# generated using pymatgen
data_Na31Fe20(SO4)36
_symmetry_space_group_name_H-M   'P 1'
_cell_length_a   18.07415853
_cell_length_b   18.07767420
_cell_length_c   19.71800581
_cell_angle_alpha   107.57654120
_cell_angle_beta   107.62023744
_cell_angle_gamma   90.74029568
_symmetry_Int_Tables_number   1
_chemical_formula_structural   Na31Fe20(SO4)36
_chemical_formula_sum   'Na62 Fe40 S72 O288'
_cell_volume   5814.98552016
_cell_formula_units_Z   2
loop_
 _symmetry_equiv_pos_site_id
 _symmetry_equiv_pos_as_xyz
  1  'x, y, z'
loop_
 _atom_site_type_symbol
 _atom_site_label
 _atom_site_symmetry_multiplicity
 _atom_site_fract_x
 _atom_site_fract_y
 _atom_site_fract_z
 _atom_site_occupancy
  Na  Na0  1  0.13443589  0.36528513  0.08332320  1
  Na  Na1  1  0.13504904  0.36765246  0.41959114  1
  Na  Na2  1  0.12919499  0.37256301  0.74867110  1
  Na  Na3  1  0.13312289  0.86314334  0.08034138  1
  Na  Na4  1  0.13953231  0.86369376  0.41633988  1
  Na  Na5  1  0.13419935  0.86558170  0.75197644  1
  Na  Na6  1  0.64746558  0.33270759  0.07282026  1
  Na  Na7  1  0.62807198  0.36304033  0.41226756  1
  Na  Na8  1  0.64015295  0.37034966  0.76390865  1
  Na  Na9  1  0.62577333  0.87577419  0.08024630  1
  Na  Na10  1  0.63662499  0.86096163  0.41965995  1
  Na  Na11  1  0.63951146  0.87218290  0.75153404  1
  Na  Na12  1  0.35187028  0.12879303  0.23508469  1
  Na  Na13  1  0.36906136  0.13204490  0.58363319  1
  Na  Na14  1  0.37499261  0.13663387  0.92903288  1
  Na  Na15  1  0.36801961  0.63863882  0.25498647  1
  Na  Na16  1  0.36525370  0.62556283  0.58060184  1
  Na  Na17  1  0.37030830  0.63429333  0.92139595  1
  Na  Na18  1  0.86170297  0.14943754  0.24257720  1
  Na  Na19  1  0.86406501  0.13649544  0.58524192  1
  Na  Na20  1  0.86376973  0.13546394  0.91727297  1
  Na  Na21  1  0.86902079  0.63790903  0.25317063  1
  Na  Na22  1  0.87069700  0.63743301  0.59427412  1
  Na  Na23  1  0.85573733  0.63317043  0.91402815  1
  Na  Na24  1  0.47496113  0.51876109  0.71664800  1
  Na  Na25  1  0.99275521  0.01177263  0.41583479  1
  Na  Na26  1  0.97365270  0.00733941  0.75895919  1
  Na  Na27  1  0.98385897  0.50218218  0.44130032  1
  Na  Na28  1  1.00173093  0.04346354  0.09100299  1
  Na  Na29  1  0.50371243  -0.02116181  0.42862783  1
  Na  Na30  1  0.47949239  0.50899745  0.43534440  1
  Na  Na31  1  0.95509571  0.50524364  0.05925921  1
  Na  Na32  1  0.51870143  0.47285139  0.08842703  1
  Na  Na33  1  0.51376506  0.49150873  0.91092952  1
  Na  Na34  1  -0.01278433  1.02375332  0.24281704  1
  Na  Na35  1  0.04717923  0.98443537  0.93100081  1
  Na  Na36  1  0.01063258  0.48087959  0.25194079  1
  Na  Na37  1  0.50310813  0.45457027  0.24542804  1
  Na  Na38  1  0.00821904  0.98818944  0.58850348  1
  Na  Na39  1  0.52680743  0.97190798  0.61268237  1
  Na  Na40  1  0.49580824  1.01710162  0.22584391  1
  Na  Na41  1  -0.01696330  0.53797286  0.86633857  1
  Na  Na42  1  0.74208597  0.24061618  0.67778214  1
  Na  Na43  1  0.23326117  0.23782370  0.33236397  1
  Na  Na44  1  0.26824408  0.76325845  0.32124342  1
  Na  Na45  1  0.25833053  0.24883455  0.00662911  1
  Na  Na46  1  0.75687109  0.26371025  0.31870637  1
  Na  Na47  1  0.74211862  0.74395405  0.34144695  1
  Na  Na48  1  0.25749940  0.26374222  0.66005953  1
  Na  Na49  1  0.75551577  0.75795545  -0.00612561  1
  Na  Na50  1  0.23200209  0.73398303  0.01202100  1
  Na  Na51  1  0.24698133  0.74411634  0.66870990  1
  Na  Na52  1  0.26590877  0.75701374  0.49334852  1
  Na  Na53  1  0.75297916  0.75339901  0.16560995  1
  Na  Na54  1  0.25873287  0.25626296  0.83256994  1
  Na  Na55  1  0.23579611  0.73515215  0.84145303  1
  Na  Na56  1  0.22898166  0.22861933  0.16702672  1
  Na  Na57  1  0.73784242  0.73929961  0.51936290  1
  Na  Na58  1  0.76239323  0.76185186  0.81693562  1
  Na  Na59  1  0.74016025  0.23915618  0.84815778  1
  Na  Na60  1  0.25803092  0.26244705  0.49828955  1
  Na  Na61  1  0.74538487  0.24904730  0.49779226  1
  Fe  Fe62  1  0.46537026  0.81575181  0.79180728  1
  Fe  Fe63  1  0.46170369  0.30919700  0.45635799  1
  Fe  Fe64  1  0.46450605  0.30620401  0.78443745  1
  Fe  Fe65  1  0.96473321  0.31561031  0.79157496  1
  Fe  Fe66  1  0.97182894  0.79824411  0.79199938  1
  Fe  Fe67  1  0.96825296  0.80589855  0.12120811  1
  Fe  Fe68  1  0.96490809  0.80754745  0.45245162  1
  Fe  Fe69  1  0.46280374  0.80729401  0.11816295  1
  Fe  Fe70  1  0.96419396  0.30209180  0.11737829  1
  Fe  Fe71  1  0.96678366  0.30815724  0.45527821  1
  Fe  Fe72  1  0.69240389  0.53246242  0.38010824  1
  Fe  Fe73  1  0.70216752  0.52775141  0.04246866  1
  Fe  Fe74  1  0.19724698  0.53273343  0.71071115  1
  Fe  Fe75  1  0.19488686  0.53118324  0.38198919  1
  Fe  Fe76  1  0.19483825  0.03566845  0.71591541  1
  Fe  Fe77  1  0.18885510  0.53651106  0.04531464  1
  Fe  Fe78  1  0.19022275  0.03443132  0.38031043  1
  Fe  Fe79  1  0.68456090  0.04592816  0.04167885  1
  Fe  Fe80  1  0.68929680  0.03663634  0.37610259  1
  Fe  Fe81  1  0.68776696  0.53505918  0.71138369  1
  Fe  Fe82  1  0.03651777  0.69538587  0.54891850  1
  Fe  Fe83  1  0.53404805  0.70001861  0.54538294  1
  Fe  Fe84  1  0.03836287  0.19295658  0.88170962  1
  Fe  Fe85  1  0.53416763  0.19054816  0.54633975  1
  Fe  Fe86  1  0.03320342  0.19470258  0.55148442  1
  Fe  Fe87  1  0.03825912  0.68808694  0.21251919  1
  Fe  Fe88  1  0.53234972  0.69279670  0.21178920  1
  Fe  Fe89  1  0.52891969  0.19834365  0.20238572  1
  Fe  Fe90  1  0.53344362  0.69848394  0.88060952  1
  Fe  Fe91  1  0.53675001  0.18279577  0.87686944  1
  Fe  Fe92  1  0.31362496  0.96486248  0.62530625  1
  Fe  Fe93  1  0.80082727  0.96974496  0.62373868  1
  Fe  Fe94  1  0.80790054  0.46483120  0.28148658  1
  Fe  Fe95  1  0.80772318  0.96982458  0.95275930  1
  Fe  Fe96  1  0.80418655  0.96684450  0.28329197  1
  Fe  Fe97  1  0.30646395  0.96268616  0.28329227  1
  Fe  Fe98  1  0.30306972  0.96805556  0.95887854  1
  Fe  Fe99  1  0.31356430  0.46483817  0.95659140  1
  Fe  Fe100  1  0.80835935  0.46436941  0.62407400  1
  Fe  Fe101  1  0.30493055  0.46255953  0.28148742  1
  S  S102  1  0.35904003  0.13796591  0.08420493  1
  S  S103  1  0.35762243  0.13955994  0.41470356  1
  S  S104  1  0.35719312  0.14174978  0.74929887  1
  S  S105  1  0.35918899  0.64077220  0.08293777  1
  S  S106  1  0.35910777  0.63700488  0.41677715  1
  S  S107  1  0.36032151  0.64765855  0.75293053  1
  S  S108  1  0.86151322  0.13866246  0.08719237  1
  S  S109  1  0.85992289  0.13996408  0.41501615  1
  S  S110  1  0.86276887  0.14345984  0.74839195  1
  S  S111  1  0.85780807  0.64485536  0.08594939  1
  S  S112  1  0.85883400  0.64072990  0.41820712  1
  S  S113  1  0.85657194  0.63729834  0.75153731  1
  S  S114  1  0.13858931  0.35957009  0.24610572  1
  S  S115  1  0.13951188  0.35879748  0.58604400  1
  S  S116  1  0.14465411  0.35841574  0.91669723  1
  S  S117  1  0.14095445  0.85749796  0.25428504  1
  S  S118  1  0.14156173  0.86150506  0.58172851  1
  S  S119  1  0.14738195  0.85408481  0.91560708  1
  S  S120  1  0.64201835  0.36212933  0.24782333  1
  S  S121  1  0.63955139  0.35776651  0.58315176  1
  S  S122  1  0.63600586  0.35869243  0.91708223  1
  S  S123  1  0.64087502  0.85895185  0.24931364  1
  S  S124  1  0.64252167  0.86088636  0.57936590  1
  S  S125  1  0.64279612  0.86233828  0.91779722  1
  S  S126  1  0.06484492  0.17119222  0.03897987  1
  S  S127  1  0.06295370  0.16950483  0.37901888  1
  S  S128  1  0.06933177  0.16824947  0.70976569  1
  S  S129  1  0.05905570  0.66449435  0.04119860  1
  S  S130  1  0.06918139  0.67108830  0.37793602  1
  S  S131  1  0.07101725  0.67118098  0.70769422  1
  S  S132  1  0.56618412  0.16008379  0.03662709  1
  S  S133  1  0.56309715  0.16853370  0.37092946  1
  S  S134  1  0.56497543  0.16916518  0.70916143  1
  S  S135  1  0.56973266  0.66934501  0.04363556  1
  S  S136  1  0.56784877  0.66198224  0.37083994  1
  S  S137  1  0.56674562  0.67649181  0.71008862  1
  S  S138  1  0.33361958  0.43953230  0.12343569  1
  S  S139  1  0.32599967  0.43043175  0.45485250  1
  S  S140  1  0.33197778  0.43558202  0.79261164  1
  S  S141  1  0.32886813  0.92807750  0.12166180  1
  S  S142  1  0.33078890  0.93848897  0.46011426  1
  S  S143  1  0.32465323  0.93190502  0.79177443  1
  S  S144  1  0.83670469  0.43703295  0.12978421  1
  S  S145  1  0.82459722  0.43100594  0.45783892  1
  S  S146  1  0.82622133  0.43450514  0.78958696  1
  S  S147  1  0.83065056  0.93191411  0.12490495  1
  S  S148  1  0.83152750  0.93505283  0.45757218  1
  S  S149  1  0.84537086  0.93207442  0.79693779  1
  S  S150  1  0.42914521  0.32709571  0.29139033  1
  S  S151  1  0.43460677  0.32770718  0.62265311  1
  S  S152  1  0.43667172  0.33050124  0.95726342  1
  S  S153  1  0.43856589  0.83283168  0.29123000  1
  S  S154  1  0.43313990  0.82865415  0.62651630  1
  S  S155  1  0.42656828  0.83006335  0.95653748  1
  S  S156  1  0.93566756  0.34029765  0.29781903  1
  S  S157  1  0.92772396  0.32641072  0.62246239  1
  S  S158  1  0.93598712  0.32803652  0.95291270  1
  S  S159  1  0.93388826  0.83465528  0.29327958  1
  S  S160  1  0.93525081  0.83151143  0.62422407  1
  S  S161  1  0.93209415  0.83352789  0.96139980  1
  S  S162  1  0.16466206  0.05679206  0.21117598  1
  S  S163  1  0.16605174  0.06755706  0.54326314  1
  S  S164  1  0.17029457  0.06460842  0.87392622  1
  S  S165  1  0.16883663  0.56614600  0.20977530  1
  S  S166  1  0.16747035  0.56887086  0.54059972  1
  S  S167  1  0.17871100  0.56542979  0.87957912  1
  S  S168  1  0.67233816  0.07191542  0.21097996  1
  S  S169  1  0.67036361  0.06833500  0.53862794  1
  S  S170  1  0.67494011  0.06506765  0.87359216  1
  S  S171  1  0.67536680  0.57056482  0.20897409  1
  S  S172  1  0.66776078  0.56613696  0.54082719  1
  S  S173  1  0.65885770  0.56926444  0.87225555  1
  O  O174  1  0.37257412  0.21064933  0.06972617  1
  O  O175  1  0.36702227  0.21993819  0.40929204  1
  O  O176  1  0.36436193  0.22003483  0.73892591  1
  O  O177  1  0.36961530  0.71777007  0.07113081  1
  O  O178  1  0.36277308  0.71336404  0.40652558  1
  O  O179  1  0.36791279  0.72960564  0.75065901  1
  O  O180  1  0.87014866  0.21878362  0.08278312  1
  O  O181  1  0.87017545  0.21916747  0.40825135  1
  O  O182  1  0.87949551  0.21979053  0.73678409  1
  O  O183  1  0.86453950  0.72743512  0.08440968  1
  O  O184  1  0.86943598  0.71985889  0.40993530  1
  O  O185  1  0.87022651  0.71747985  0.74750032  1
  O  O186  1  0.28561877  0.13144346  0.10026916  1
  O  O187  1  0.27843638  0.13294190  0.42410753  1
  O  O188  1  0.27754400  0.13313793  0.75682491  1
  O  O189  1  0.27806234  0.63214667  0.08512005  1
  O  O190  1  0.28215360  0.62333830  0.42894833  1
  O  O191  1  0.28000326  0.63510995  0.75730926  1
  O  O192  1  0.78356731  0.12512679  0.09525636  1
  O  O193  1  0.78044626  0.13095583  0.42184263  1
  O  O194  1  0.78576713  0.14117586  0.75714055  1
  O  O195  1  0.77911532  0.63266965  0.09436386  1
  O  O196  1  0.77910568  0.63295017  0.42461069  1
  O  O197  1  0.77436671  0.63035229  0.75510811  1
  O  O198  1  0.13385184  0.28267806  0.25496091  1
  O  O199  1  0.12492077  0.28198202  0.59882832  1
  O  O200  1  0.13756564  0.27910125  0.92485137  1
  O  O201  1  0.12956344  0.78010863  0.26562652  1
  O  O202  1  0.13400042  0.78265218  0.58954207  1
  O  O203  1  0.14848852  0.77373303  0.91655091  1
  O  O204  1  0.62801367  0.28306936  0.25412537  1
  O  O205  1  0.63257090  0.27777889  0.59034908  1
  O  O206  1  0.62126181  0.27990818  0.92304515  1
  O  O207  1  0.63187640  0.77958886  0.25691037  1
  O  O208  1  0.63257475  0.77543085  0.57136596  1
  O  O209  1  0.63060742  0.78379399  0.92748593  1
  O  O210  1  0.21494534  0.37197999  0.23227567  1
  O  O211  1  0.21654132  0.36109914  0.57665919  1
  O  O212  1  0.22361976  0.36806524  0.90867571  1
  O  O213  1  0.22240893  0.86512001  0.25260900  1
  O  O214  1  0.22013779  0.87259684  0.57383488  1
  O  O215  1  0.22510183  0.87481213  0.90477616  1
  O  O216  1  0.72611810  0.37089463  0.25291652  1
  O  O217  1  0.71781377  0.36800394  0.57367620  1
  O  O218  1  0.70912235  0.36539333  0.90155910  1
  O  O219  1  0.72079649  0.86813496  0.24242310  1
  O  O220  1  0.72382315  0.87143761  0.57305683  1
  O  O221  1  0.72186627  0.86697168  0.90818611  1
  O  O222  1  0.42359297  0.12677491  0.14875750  1
  O  O223  1  0.41672667  0.12928562  0.48151020  1
  O  O224  1  0.41501432  0.13507857  0.81763851  1
  O  O225  1  0.41496281  0.63738971  0.15476439  1
  O  O226  1  0.42114602  0.63075273  0.48481850  1
  O  O227  1  0.41803377  0.63969987  0.82266294  1
  O  O228  1  0.92184634  0.12583456  0.15113605  1
  O  O229  1  0.91825390  0.12978019  0.48294869  1
  O  O230  1  0.92352172  0.13143011  0.81397147  1
  O  O231  1  0.91780107  0.63631426  0.15420672  1
  O  O232  1  0.91731570  0.63262771  0.48646006  1
  O  O233  1  0.91095840  0.62526846  0.81785438  1
  O  O234  1  0.35996191  0.07251310  0.01383210  1
  O  O235  1  0.36365145  0.08229224  0.34523674  1
  O  O236  1  0.36394926  0.08246627  0.68099499  1
  O  O237  1  0.37394971  0.58003141  0.01954740  1
  O  O238  1  0.36762058  0.57498325  0.35003780  1
  O  O239  1  0.37230106  0.59267251  0.68666927  1
  O  O240  1  0.86926908  0.08256464  0.01599857  1
  O  O241  1  0.86908885  0.08076450  0.34738875  1
  O  O242  1  0.86798522  0.08101124  0.67939042  1
  O  O243  1  0.86565228  0.59001189  0.01785247  1
  O  O244  1  0.86733527  0.58161172  0.35077834  1
  O  O245  1  0.86186033  0.58016946  0.68084226  1
  O  O246  1  0.07627507  0.36940017  0.18031885  1
  O  O247  1  0.07922402  0.36582228  0.51761828  1
  O  O248  1  0.08548865  0.36460450  0.84765182  1
  O  O249  1  0.08549821  0.86209808  0.18323113  1
  O  O250  1  0.08146393  0.86904839  0.51353478  1
  O  O251  1  0.08577607  0.86291061  0.84799720  1
  O  O252  1  0.59089783  0.37437822  0.17972232  1
  O  O253  1  0.57984137  0.36351037  0.51436990  1
  O  O254  1  0.57127455  0.37480215  0.85521584  1
  O  O255  1  0.58273255  0.86702500  0.18105656  1
  O  O256  1  0.58560055  0.88036089  0.51769535  1
  O  O257  1  0.58370371  0.86880982  0.84985690  1
  O  O258  1  0.13159883  0.42064349  0.31478436  1
  O  O259  1  0.13366606  0.42038963  0.65322274  1
  O  O260  1  0.13597023  0.41676606  0.98436256  1
  O  O261  1  0.12821891  0.91831082  0.31926387  1
  O  O262  1  0.13105821  0.92048593  0.64869471  1
  O  O263  1  0.13743198  0.90876577  0.98307939  1
  O  O264  1  0.62863253  0.42009467  0.31545498  1
  O  O265  1  0.63153563  0.41581514  0.65125447  1
  O  O266  1  0.63489348  0.41720477  0.98973861  1
  O  O267  1  0.63437737  0.91767293  0.31783213  1
  O  O268  1  0.63836404  0.90920009  0.65209959  1
  O  O269  1  0.63970395  0.92214023  0.98682924  1
  O  O270  1  0.02921856  0.20473358  0.09841800  1
  O  O271  1  0.03392226  0.20249306  0.44568699  1
  O  O272  1  0.03769787  0.19790363  0.77306589  1
  O  O273  1  0.02912556  0.69949958  0.10834338  1
  O  O274  1  0.02917269  0.69990891  0.43670369  1
  O  O275  1  0.03193657  0.69920355  0.76499408  1
  O  O276  1  0.53644044  0.19489712  0.09976571  1
  O  O277  1  0.52823639  0.19599236  0.43314082  1
  O  O278  1  0.52622102  0.20268527  0.76900268  1
  O  O279  1  0.53168069  0.69857116  0.10375484  1
  O  O280  1  0.53112499  0.67890890  0.42969929  1
  O  O281  1  0.52760709  0.70523963  0.76979446  1
  O  O282  1  0.29512623  0.47541282  0.06302354  1
  O  O283  1  0.29450794  0.46026650  0.38796967  1
  O  O284  1  0.30211715  0.47382969  0.73517979  1
  O  O285  1  0.30505604  0.96147836  0.05928547  1
  O  O286  1  0.29611908  0.97417004  0.39850695  1
  O  O287  1  0.29893255  0.97386307  0.73347459  1
  O  O288  1  0.80732872  0.47280751  0.06960123  1
  O  O289  1  0.79771978  0.47144051  0.39941044  1
  O  O290  1  0.79174007  0.46642653  0.72430123  1
  O  O291  1  0.80416664  0.96527562  0.06294993  1
  O  O292  1  0.80285745  0.97157261  0.39658593  1
  O  O293  1  0.83043410  0.96779303  0.73628315  1
  O  O294  1  0.46703738  0.30183719  0.23280044  1
  O  O295  1  0.47124642  0.29187472  0.56137091  1
  O  O296  1  0.45902765  0.29606840  0.88755566  1
  O  O297  1  0.46919590  0.80025677  0.22515036  1
  O  O298  1  0.47181982  0.80002125  0.56893500  1
  O  O299  1  0.46936807  0.80687732  0.89972691  1
  O  O300  1  0.96789774  0.31961697  0.23571561  1
  O  O301  1  0.96467947  0.29561700  0.56141104  1
  O  O302  1  0.97731506  0.29464670  0.89422709  1
  O  O303  1  0.96931788  0.80488292  0.23262432  1
  O  O304  1  0.97401057  0.80247979  0.56361120  1
  O  O305  1  0.96938026  0.81112263  0.90274221  1
  O  O306  1  0.20480059  0.02479762  0.27606415  1
  O  O307  1  0.19737753  0.03260366  0.60455570  1
  O  O308  1  0.19995653  0.02726834  0.93299880  1
  O  O309  1  0.20072394  0.53142250  0.27190443  1
  O  O310  1  0.18981686  0.53519519  0.60156764  1
  O  O311  1  0.21014345  0.52461193  0.93842719  1
  O  O312  1  0.69910442  0.02843631  0.26856655  1
  O  O313  1  0.70009191  0.03331245  0.59836142  1
  O  O314  1  0.70660025  0.03262468  0.94001024  1
  O  O315  1  0.70397760  0.53334557  0.26977048  1
  O  O316  1  0.69361647  0.52745681  0.60029987  1
  O  O317  1  0.67750064  0.53363448  0.93267426  1
  O  O318  1  0.08091367  0.09098286  0.03714740  1
  O  O319  1  0.08218810  0.08750558  0.37697112  1
  O  O320  1  0.08520898  0.08502949  0.70175819  1
  O  O321  1  0.08480426  0.58667803  0.04581250  1
  O  O322  1  0.08520418  0.58875206  0.37024663  1
  O  O323  1  0.09611873  0.59359384  0.70603114  1
  O  O324  1  0.57430514  0.07554201  0.02787941  1
  O  O325  1  0.58063659  0.08555508  0.36264241  1
  O  O326  1  0.58008917  0.08969720  0.70540249  1
  O  O327  1  0.58764213  0.58782746  0.03830048  1
  O  O328  1  0.58564677  0.57819047  0.35238274  1
  O  O329  1  0.58441809  0.59492232  0.70652002  1
  O  O330  1  0.41523364  0.43167212  0.12591640  1
  O  O331  1  0.40705764  0.41040960  0.45647473  1
  O  O332  1  0.41278161  0.41459703  0.79418129  1
  O  O333  1  0.41229529  0.91090665  0.13373803  1
  O  O334  1  0.41322802  0.93048288  0.46879277  1
  O  O335  1  0.40511321  0.91433424  0.79838334  1
  O  O336  1  0.91736574  0.41546138  0.13001163  1
  O  O337  1  0.90510898  0.41068468  0.46128369  1
  O  O338  1  0.90687644  0.41447263  0.78844826  1
  O  O339  1  0.91258543  0.91168190  0.13478296  1
  O  O340  1  0.91531046  0.91963252  0.46438886  1
  O  O341  1  0.92889005  0.91188311  0.81208719  1
  O  O342  1  0.41321254  0.41114606  0.29962897  1
  O  O343  1  0.41716180  0.40559559  0.62202063  1
  O  O344  1  0.41979529  0.41419022  0.96225673  1
  O  O345  1  0.41238809  0.91200766  0.29125293  1
  O  O346  1  0.41282391  0.90942004  0.62687260  1
  O  O347  1  0.40004890  0.90810842  0.95933516  1
  O  O348  1  0.91909937  0.42533949  0.31314584  1
  O  O349  1  0.90799178  0.40565493  0.62467234  1
  O  O350  1  0.92040880  0.40649430  0.95128255  1
  O  O351  1  0.91552675  0.91681881  0.29886887  1
  O  O352  1  0.91941805  0.91394317  0.62821243  1
  O  O353  1  0.91471000  0.91692523  0.97580682  1
  O  O354  1  0.08656531  0.07425720  0.21620326  1
  O  O355  1  0.08290576  0.08270668  0.53881350  1
  O  O356  1  0.08775173  0.08116369  0.86985574  1
  O  O357  1  0.08548920  0.57937983  0.20506513  1
  O  O358  1  0.08554557  0.59133919  0.52814573  1
  O  O359  1  0.10202229  0.58676276  0.88125201  1
  O  O360  1  0.59296263  0.09309446  0.20967865  1
  O  O361  1  0.58767540  0.08570423  0.53207679  1
  O  O362  1  0.59556887  0.08692500  0.87302186  1
  O  O363  1  0.59270677  0.58683461  0.20052931  1
  O  O364  1  0.58876900  0.59114978  0.53725279  1
  O  O365  1  0.57460066  0.58663204  0.85678272  1
  O  O366  1  0.13712598  0.22165089  0.05216312  1
  O  O367  1  0.13433622  0.21967833  0.39122208  1
  O  O368  1  0.14023272  0.21846276  0.72204214  1
  O  O369  1  0.12467209  0.71841419  0.04931449  1
  O  O370  1  0.14117024  0.72323759  0.39791696  1
  O  O371  1  0.13948779  0.72770291  0.72192716  1
  O  O372  1  0.64169923  0.20136343  0.04775007  1
  O  O373  1  0.63516967  0.22034565  0.38840899  1
  O  O374  1  0.63637750  0.22311550  0.72765761  1
  O  O375  1  0.64001753  0.72321454  0.06089019  1
  O  O376  1  0.64048914  0.71574045  0.39293626  1
  O  O377  1  0.63751227  0.72924904  0.72820901  1
  O  O378  1  0.28699377  0.36521193  0.10806987  1
  O  O379  1  0.27466300  0.35807405  0.43961165  1
  O  O380  1  0.27945797  0.36405962  0.77736765  1
  O  O381  1  0.27649530  0.85838143  0.10694682  1
  O  O382  1  0.28272162  0.86280628  0.44053760  1
  O  O383  1  0.26939011  0.86140341  0.76841456  1
  O  O384  1  0.78487927  0.37096642  0.12315197  1
  O  O385  1  0.77069494  0.35951295  0.43764099  1
  O  O386  1  0.77592920  0.36286191  0.77564722  1
  O  O387  1  0.77595628  0.86317928  0.11143467  1
  O  O388  1  0.78175218  0.86202470  0.43950608  1
  O  O389  1  0.78940399  0.86364591  0.77750124  1
  O  O390  1  0.35629482  0.27698686  0.27439293  1
  O  O391  1  0.36381158  0.27368244  0.60685814  1
  O  O392  1  0.36447178  0.28351952  0.94870987  1
  O  O393  1  0.37284946  0.77819465  0.28204916  1
  O  O394  1  0.36125441  0.77673440  0.61044231  1
  O  O395  1  0.36046941  0.77116968  0.93793167  1
  O  O396  1  0.86523498  0.28883594  0.28351164  1
  O  O397  1  0.85716271  0.27252015  0.60545257  1
  O  O398  1  0.86592776  0.27411115  0.93450456  1
  O  O399  1  0.86285741  0.78309914  0.27925646  1
  O  O400  1  0.86418648  0.77922886  0.60513779  1
  O  O401  1  0.85935771  0.78053387  0.94130277  1
  O  O402  1  0.21467778  0.12982144  0.22550372  1
  O  O403  1  0.21517418  0.13975236  0.55699519  1
  O  O404  1  0.22064723  0.13655725  0.88881954  1
  O  O405  1  0.21741996  0.63898968  0.22562289  1
  O  O406  1  0.22200793  0.63815430  0.55528276  1
  O  O407  1  0.23530540  0.63495422  0.89890270  1
  O  O408  1  0.72846839  0.14114189  0.23343001  1
  O  O409  1  0.72075890  0.14055727  0.55271925  1
  O  O410  1  0.72829553  0.13468546  0.88870892  1
  O  O411  1  0.72725398  0.64337145  0.22881782  1
  O  O412  1  0.72576851  0.63150689  0.55541163  1
  O  O413  1  0.71229462  0.64068804  0.89215612  1
  O  O414  1  0.50225421  0.33523265  0.02408951  1
  O  O415  1  0.48706579  0.32921174  0.36534178  1
  O  O416  1  0.49316460  0.33012326  0.69599259  1
  O  O417  1  0.48631208  0.83501161  0.03004954  1
  O  O418  1  0.50399076  0.84509770  0.36047934  1
  O  O419  1  0.48959760  0.83625735  0.70201960  1
  O  O420  1  0.99239990  0.33101897  0.02773954  1
  O  O421  1  0.99674620  0.33900057  0.36924927  1
  O  O422  1  0.98731338  0.32820510  0.69462860  1
  O  O423  1  0.98995329  0.82857860  0.03260651  1
  O  O424  1  0.99344968  0.83820890  0.36651623  1
  O  O425  1  0.99270002  0.83328865  0.69712467  1
  O  O426  1  0.15869374  -0.00233026  0.14012419  1
  O  O427  1  0.16201710  0.00801498  0.47014690  1
  O  O428  1  0.16459590  0.00648616  0.79911564  1
  O  O429  1  0.16846956  0.50727503  0.13797223  1
  O  O430  1  0.16454603  0.50706780  0.46839136  1
  O  O431  1  0.17576914  0.50928568  0.80516402  1
  O  O432  1  0.67022212  0.01551713  0.13772269  1
  O  O433  1  0.66592676  0.00962785  0.46394650  1
  O  O434  1  0.67154023  0.00242199  0.80586130  1
  O  O435  1  0.67639713  0.51248925  0.13747024  1
  O  O436  1  0.65965943  0.50522198  0.46640726  1
  O  O437  1  0.66312188  0.51039743  0.80171673  1
  O  O438  1  -0.00065153  0.16387185  0.31059688  1
  O  O439  1  0.00690112  0.16562829  0.63828820  1
  O  O440  1  0.00663472  0.16705482  0.96411271  1
  O  O441  1  0.01150111  0.67212414  0.30535760  1
  O  O442  1  0.01163795  0.66551868  0.63261961  1
  O  O443  1  -0.00700932  0.65112469  0.97247552  1
  O  O444  1  0.50424545  0.16734299  0.29874609  1
  O  O445  1  0.50760848  0.16964292  0.63549152  1
  O  O446  1  0.50664822  0.16402666  0.96583969  1
  O  O447  1  0.51034440  0.66950011  0.30089582  1
  O  O448  1  0.50914220  0.67373934  0.63672805  1
  O  O449  1  0.51106514  0.66793030  0.97084012  1
  O  O450  1  0.33378716  0.49569089  0.19771700  1
  O  O451  1  0.32892633  0.49170811  0.52301482  1
  O  O452  1  0.34055143  0.49229598  0.86878252  1
  O  O453  1  0.32963595  0.99016255  0.19270796  1
  O  O454  1  0.32344999  0.99379413  0.53136317  1
  O  O455  1  0.32249250  0.98800347  0.86480820  1
  O  O456  1  0.84932970  0.49986660  0.20527469  1
  O  O457  1  0.82660236  0.48805419  0.53071754  1
  O  O458  1  0.83319099  0.49661619  0.85901949  1
  O  O459  1  0.83463952  0.99398224  0.19758655  1
  O  O460  1  0.83229489  0.99262448  0.53000444  1
  O  O461  1  0.84307823  0.99312880  0.86718095  1
