# generated using pymatgen
data_Na31Fe20(SO4)36
_symmetry_space_group_name_H-M   'P 1'
_cell_length_a   18.06755347
_cell_length_b   18.06577536
_cell_length_c   19.70038886
_cell_angle_alpha   107.58474416
_cell_angle_beta   107.58903115
_cell_angle_gamma   90.70801525
_symmetry_Int_Tables_number   1
_chemical_formula_structural   Na31Fe20(SO4)36
_chemical_formula_sum   'Na62 Fe40 S72 O288'
_cell_volume   5805.09693663
_cell_formula_units_Z   2
loop_
 _symmetry_equiv_pos_site_id
 _symmetry_equiv_pos_as_xyz
  1  'x, y, z'
loop_
 _atom_site_type_symbol
 _atom_site_label
 _atom_site_symmetry_multiplicity
 _atom_site_fract_x
 _atom_site_fract_y
 _atom_site_fract_z
 _atom_site_occupancy
  Na  Na0  1  0.13664863  0.36397367  0.08113584  1
  Na  Na1  1  0.14245900  0.36286408  0.42519011  1
  Na  Na2  1  0.13607347  0.36866215  0.74695174  1
  Na  Na3  1  0.13492834  0.86015986  0.08568433  1
  Na  Na4  1  0.13888970  0.87271560  0.42980680  1
  Na  Na5  1  0.15146924  0.87933627  0.77661388  1
  Na  Na6  1  0.63238210  0.36666713  0.08513627  1
  Na  Na7  1  0.62865192  0.36421805  0.41192650  1
  Na  Na8  1  0.62765474  0.36957655  0.74685858  1
  Na  Na9  1  0.63171772  0.86203594  0.08118128  1
  Na  Na10  1  0.63211398  0.86153353  0.41098123  1
  Na  Na11  1  0.63458959  0.86042565  0.74416265  1
  Na  Na12  1  0.35818238  0.12564845  0.23709649  1
  Na  Na13  1  0.34470460  0.13777972  0.57716769  1
  Na  Na14  1  0.35284479  0.13840129  0.91313520  1
  Na  Na15  1  0.38179473  0.63315863  0.25176792  1
  Na  Na16  1  0.36245843  0.63979735  0.58366303  1
  Na  Na17  1  0.35926457  0.63016993  0.90424776  1
  Na  Na18  1  0.86210580  0.13635187  0.24696099  1
  Na  Na19  1  0.86613627  0.13620843  0.57948324  1
  Na  Na20  1  0.88079332  0.14011283  0.93058503  1
  Na  Na21  1  0.87009603  0.63011688  0.25148440  1
  Na  Na22  1  0.86754029  0.63949389  0.59153920  1
  Na  Na23  1  0.87079562  0.63832724  0.92605088  1
  Na  Na24  1  1.04526109  -0.01745169  0.02681555  1
  Na  Na25  1  0.45822010  0.00673605  0.74312142  1
  Na  Na26  1  0.99296292  0.04637473  0.41632111  1
  Na  Na27  1  0.49458239  0.53193073  0.11282373  1
  Na  Na28  1  0.48654760  0.01042372  0.41996102  1
  Na  Na29  1  0.43649218  0.00029050  0.06861621  1
  Na  Na30  1  0.99033685  -0.00477702  0.76385049  1
  Na  Na31  1  1.01460051  0.46303653  0.13788557  1
  Na  Na32  1  1.00309419  0.49957010  0.41001542  1
  Na  Na33  1  0.03369825  0.48001413  0.62231858  1
  Na  Na34  1  0.50755543  0.49547762  0.91255651  1
  Na  Na35  1  0.01512997  0.97605158  0.22387187  1
  Na  Na36  1  0.48326832  1.00810217  0.59041936  1
  Na  Na37  1  0.01305136  0.49161071  0.90699425  1
  Na  Na38  1  0.00862095  1.00462309  0.58063951  1
  Na  Na39  1  0.48236930  1.00376096  0.92434576  1
  Na  Na40  1  0.51465776  0.98359855  0.24938829  1
  Na  Na41  1  0.49549087  0.49672003  0.59285160  1
  Na  Na42  1  0.25202366  0.75660095  -0.00308980  1
  Na  Na43  1  0.73571949  0.73699488  0.33711988  1
  Na  Na44  1  0.24731218  0.24440130  0.00379894  1
  Na  Na45  1  0.23344924  0.24699378  0.66815847  1
  Na  Na46  1  0.75799420  0.25809918  0.65819349  1
  Na  Na47  1  0.24078157  0.74666950  0.67409076  1
  Na  Na48  1  0.25475542  0.75740535  0.33384055  1
  Na  Na49  1  0.24009544  0.24118896  0.34042246  1
  Na  Na50  1  0.76354076  0.75798143  -0.00328520  1
  Na  Na51  1  0.75717976  0.25649414  -0.00259270  1
  Na  Na52  1  0.75798420  0.75515326  0.16528433  1
  Na  Na53  1  0.76247490  0.75982355  0.82083101  1
  Na  Na54  1  0.75934304  0.26122278  0.48185704  1
  Na  Na55  1  0.23688809  0.23323192  0.16998728  1
  Na  Na56  1  0.24086183  0.74023388  0.83556568  1
  Na  Na57  1  0.75894715  0.25785208  0.83042451  1
  Na  Na58  1  0.73887502  0.73909577  0.51608235  1
  Na  Na59  1  0.75223014  0.24688919  0.17010040  1
  Na  Na60  1  0.25331087  0.75007148  0.16640547  1
  Na  Na61  1  0.25566291  0.75788217  0.50189050  1
  Fe  Fe62  1  0.96997038  0.30115420  0.78443615  1
  Fe  Fe63  1  0.96314096  0.80934933  0.78804065  1
  Fe  Fe64  1  0.46806627  0.80648608  0.45333899  1
  Fe  Fe65  1  0.46176131  0.30780013  0.78354304  1
  Fe  Fe66  1  0.45942423  0.30984860  0.45285042  1
  Fe  Fe67  1  0.46491870  0.80794822  0.78470280  1
  Fe  Fe68  1  0.97134185  0.30120535  0.45536906  1
  Fe  Fe69  1  0.47099372  0.79779068  0.12214427  1
  Fe  Fe70  1  0.96257548  0.80917675  0.45261447  1
  Fe  Fe71  1  0.46774383  0.31635865  0.12543310  1
  Fe  Fe72  1  0.20133271  0.03033615  0.70980694  1
  Fe  Fe73  1  0.69177217  0.03714410  0.38163784  1
  Fe  Fe74  1  0.69293712  0.53351031  0.05132028  1
  Fe  Fe75  1  0.19137140  0.53597967  0.37701888  1
  Fe  Fe76  1  0.18990641  0.03571527  0.38281318  1
  Fe  Fe77  1  0.68906613  0.03167788  0.04695280  1
  Fe  Fe78  1  0.69139480  0.03537292  0.71668817  1
  Fe  Fe79  1  0.69467355  0.53448866  0.71508627  1
  Fe  Fe80  1  0.69073819  0.53270922  0.37962040  1
  Fe  Fe81  1  0.19458656  0.53635488  0.04577591  1
  Fe  Fe82  1  0.53618666  0.68680614  0.87662578  1
  Fe  Fe83  1  0.53489486  0.19140102  0.21568157  1
  Fe  Fe84  1  0.02922775  0.69948144  0.20984828  1
  Fe  Fe85  1  0.04151418  0.19055521  0.87914514  1
  Fe  Fe86  1  0.03300801  0.68768385  0.87746038  1
  Fe  Fe87  1  0.03216290  0.69501739  0.54859270  1
  Fe  Fe88  1  0.03000186  0.19657224  0.20242468  1
  Fe  Fe89  1  0.53838729  0.68697413  0.54613007  1
  Fe  Fe90  1  0.53065914  0.19688322  0.55001317  1
  Fe  Fe91  1  0.53029377  0.19528911  0.88289016  1
  Fe  Fe92  1  0.81027768  0.46353744  0.95682740  1
  Fe  Fe93  1  0.30776389  0.46609791  0.94857212  1
  Fe  Fe94  1  0.29932552  0.46994960  0.62114248  1
  Fe  Fe95  1  0.81019813  0.46590765  0.62020676  1
  Fe  Fe96  1  0.80756098  0.96823957  0.28436763  1
  Fe  Fe97  1  0.81070318  0.45893085  0.28690649  1
  Fe  Fe98  1  0.31178906  0.46691366  0.28722238  1
  Fe  Fe99  1  0.80433436  0.96558716  0.61820068  1
  Fe  Fe100  1  0.30470880  0.96541094  0.28583183  1
  Fe  Fe101  1  0.80963970  0.96287689  0.95416420  1
  S  S102  1  0.36435376  0.14763241  0.08263016  1
  S  S103  1  0.35815823  0.13998471  0.41818694  1
  S  S104  1  0.35957088  0.14310745  0.74807326  1
  S  S105  1  0.35925556  0.63982757  0.08049159  1
  S  S106  1  0.35936637  0.64157041  0.41678814  1
  S  S107  1  0.36030725  0.64270067  0.74609647  1
  S  S108  1  0.85375343  0.13794036  0.08078064  1
  S  S109  1  0.85592096  0.14078131  0.41636969  1
  S  S110  1  0.85783816  0.13861518  0.74928714  1
  S  S111  1  0.85757383  0.63868212  0.08553716  1
  S  S112  1  0.86024265  0.64033714  0.41653299  1
  S  S113  1  0.85888336  0.63982739  0.75217837  1
  S  S114  1  0.14652619  0.36244293  0.24965582  1
  S  S115  1  0.14278822  0.35844155  0.57904664  1
  S  S116  1  0.14267584  0.36208503  0.91655940  1
  S  S117  1  0.14262480  0.85895256  0.25325287  1
  S  S118  1  0.13755920  0.85957064  0.58595658  1
  S  S119  1  0.13718577  0.85378282  0.91705137  1
  S  S120  1  0.64206313  0.35563138  0.25299905  1
  S  S121  1  0.63821031  0.35972386  0.58291307  1
  S  S122  1  0.63836610  0.35918667  0.91618745  1
  S  S123  1  0.64323893  0.86130378  0.25143728  1
  S  S124  1  0.64054744  0.86111578  0.58336824  1
  S  S125  1  0.64003284  0.85675175  0.91416530  1
  S  S126  1  0.07290061  0.17423170  0.04261378  1
  S  S127  1  0.06383031  0.16844158  0.36498734  1
  S  S128  1  0.06633680  0.16605103  0.70429238  1
  S  S129  1  0.06852831  0.66593000  0.04206275  1
  S  S130  1  0.06873390  0.67526659  0.37669666  1
  S  S131  1  0.06405042  0.67530096  0.71139986  1
  S  S132  1  0.56869537  0.16932895  0.04281031  1
  S  S133  1  0.56229547  0.16728149  0.37728333  1
  S  S134  1  0.56598945  0.17165740  0.71142471  1
  S  S135  1  0.56747607  0.66545623  0.03952714  1
  S  S136  1  0.57091615  0.67213069  0.38165691  1
  S  S137  1  0.56993227  0.66752682  0.70847375  1
  S  S138  1  0.33209076  0.43654943  0.12351363  1
  S  S139  1  0.33046895  0.43631716  0.45685713  1
  S  S140  1  0.33392396  0.43323253  0.78955081  1
  S  S141  1  0.33521140  0.92531251  0.12824108  1
  S  S142  1  0.33558821  0.93758365  0.45957342  1
  S  S143  1  0.33342363  0.93677831  0.79210201  1
  S  S144  1  0.82376933  0.42732122  0.12178107  1
  S  S145  1  0.83103883  0.43397851  0.45925088  1
  S  S146  1  0.82847325  0.42974645  0.79059634  1
  S  S147  1  0.82609030  0.93252316  0.12140892  1
  S  S148  1  0.82679177  0.93360838  0.45606988  1
  S  S149  1  0.82614371  0.93451094  0.79063793  1
  S  S150  1  0.42871813  0.32504869  0.28916683  1
  S  S151  1  0.42882684  0.33146019  0.62295865  1
  S  S152  1  0.43466239  0.33511153  0.96139199  1
  S  S153  1  0.43453318  0.83272147  0.29331839  1
  S  S154  1  0.44124750  0.82975711  0.62236765  1
  S  S155  1  0.43801232  0.82467801  0.95520707  1
  S  S156  1  0.93612786  0.32705890  0.29197749  1
  S  S157  1  0.93027591  0.32965758  0.62299181  1
  S  S158  1  0.93745639  0.33273493  0.95537281  1
  S  S159  1  0.93489608  0.83669810  0.29570021  1
  S  S160  1  0.93081206  0.83537627  0.62574267  1
  S  S161  1  0.93377637  0.82926007  0.95708359  1
  S  S162  1  0.16765414  0.06229172  0.20828232  1
  S  S163  1  0.16489222  0.06190053  0.54455152  1
  S  S164  1  0.17086400  0.06784766  0.87230393  1
  S  S165  1  0.17336857  0.57286813  0.21078568  1
  S  S166  1  0.16743028  0.57223239  0.53929745  1
  S  S167  1  0.16963630  0.56465928  0.87415579  1
  S  S168  1  0.66321368  0.06488783  0.20539833  1
  S  S169  1  0.66491643  0.06811133  0.54313239  1
  S  S170  1  0.66181748  0.06719308  0.87438129  1
  S  S171  1  0.67564987  0.56358237  0.21539457  1
  S  S172  1  0.67324593  0.56436761  0.54434167  1
  S  S173  1  0.67325987  0.56530198  0.87795224  1
  O  O174  1  0.37937061  0.22915442  0.07933730  1
  O  O175  1  0.36679858  0.21939576  0.41131679  1
  O  O176  1  0.36545130  0.22435091  0.74454797  1
  O  O177  1  0.36900561  0.71939638  0.07299633  1
  O  O178  1  0.36960055  0.72213969  0.41128777  1
  O  O179  1  0.37512206  0.72052914  0.73453073  1
  O  O180  1  0.85851794  0.21351448  0.06914726  1
  O  O181  1  0.86697910  0.22215894  0.41610557  1
  O  O182  1  0.86738761  0.21815676  0.74199426  1
  O  O183  1  0.86313209  0.71521636  0.07589140  1
  O  O184  1  0.86941081  0.71792128  0.40490590  1
  O  O185  1  0.86549305  0.71934643  0.74548377  1
  O  O186  1  0.28729859  0.14105715  0.09093276  1
  O  O187  1  0.28007563  0.12898391  0.42598873  1
  O  O188  1  0.27810499  0.12765929  0.74928999  1
  O  O189  1  0.27871801  0.63305459  0.08688688  1
  O  O190  1  0.27934790  0.63397449  0.42386653  1
  O  O191  1  0.28382826  0.64083623  0.75662054  1
  O  O192  1  0.77632819  0.12480781  0.09275168  1
  O  O193  1  0.77473985  0.13103647  0.42197914  1
  O  O194  1  0.77902304  0.13172248  0.75918863  1
  O  O195  1  0.77988761  0.62622412  0.09716822  1
  O  O196  1  0.77957765  0.63217786  0.42096325  1
  O  O197  1  0.78022837  0.62867173  0.76126560  1
  O  O198  1  0.13476323  0.28031311  0.25072493  1
  O  O199  1  0.13668377  0.27771982  0.57748864  1
  O  O200  1  0.13386306  0.28453980  0.92669040  1
  O  O201  1  0.13134411  0.77867616  0.25864093  1
  O  O202  1  0.12330801  0.78186813  0.59597919  1
  O  O203  1  0.12512193  0.77051759  0.91931355  1
  O  O204  1  0.62891896  0.27806828  0.26184413  1
  O  O205  1  0.62825339  0.28267179  0.59552479  1
  O  O206  1  0.62864049  0.28082897  0.92548130  1
  O  O207  1  0.63748466  0.78675061  0.26421700  1
  O  O208  1  0.63430555  0.78231311  0.59092505  1
  O  O209  1  0.63433285  0.77776453  0.92298446  1
  O  O210  1  0.22823139  0.37025941  0.24531138  1
  O  O211  1  0.21719534  0.37707289  0.56416184  1
  O  O212  1  0.22082078  0.37266267  0.90897800  1
  O  O213  1  0.22461248  0.86494706  0.24933407  1
  O  O214  1  0.21064601  0.86218957  0.56973017  1
  O  O215  1  0.21223274  0.85899826  0.90350445  1
  O  O216  1  0.72105653  0.36217832  0.24482608  1
  O  O217  1  0.71821872  0.36653235  0.57687382  1
  O  O218  1  0.71875138  0.36690389  0.91037759  1
  O  O219  1  0.72095050  0.87435190  0.24098969  1
  O  O220  1  0.71893335  0.87242143  0.57371816  1
  O  O221  1  0.71947020  0.86869107  0.90709898  1
  O  O222  1  0.42377493  0.13530203  0.15095916  1
  O  O223  1  0.41834705  0.13094973  0.48605893  1
  O  O224  1  0.41499923  0.13701387  0.82015303  1
  O  O225  1  0.41636517  0.63018572  0.14688362  1
  O  O226  1  0.41704201  0.63215336  0.48445697  1
  O  O227  1  0.42090421  0.63317477  0.81270789  1
  O  O228  1  0.91528693  0.13208589  0.14809158  1
  O  O229  1  0.91241990  0.12357818  0.47897230  1
  O  O230  1  0.91794252  0.12780224  0.81476206  1
  O  O231  1  0.91848927  0.63205252  0.15368268  1
  O  O232  1  0.91651017  0.63728421  0.48823898  1
  O  O233  1  0.91751374  0.63036272  0.81983138  1
  O  O234  1  0.37480566  0.09113892  0.01572291  1
  O  O235  1  0.36857169  0.08201197  0.35028983  1
  O  O236  1  0.37690022  0.08814042  0.68439936  1
  O  O237  1  0.36656262  0.58182485  0.01099908  1
  O  O238  1  0.36567959  0.58474202  0.34722993  1
  O  O239  1  0.36464060  0.58229487  0.67674005  1
  O  O240  1  0.85967677  0.07590176  0.01252993  1
  O  O241  1  0.86094142  0.08574445  0.34375000  1
  O  O242  1  0.86142333  0.08027085  0.67877603  1
  O  O243  1  0.86446647  0.57726714  0.01768628  1
  O  O244  1  0.87369400  0.57881486  0.35293145  1
  O  O245  1  0.86627907  0.58204014  0.68352468  1
  O  O246  1  0.09150883  0.37743808  0.18522117  1
  O  O247  1  0.07778136  0.37255879  0.51532975  1
  O  O248  1  0.08202572  0.36922293  0.84832913  1
  O  O249  1  0.08731329  0.87065418  0.18712592  1
  O  O250  1  0.07265558  0.87317096  0.52390358  1
  O  O251  1  0.07439934  0.86624267  0.85192940  1
  O  O252  1  0.58428551  0.36389215  0.18380936  1
  O  O253  1  0.58012745  0.36401181  0.51297054  1
  O  O254  1  0.58101313  0.36597991  0.84663195  1
  O  O255  1  0.58229795  0.86691779  0.18256901  1
  O  O256  1  0.58112015  0.87061404  0.51608963  1
  O  O257  1  0.58162797  0.86261512  0.84488526  1
  O  O258  1  0.14160955  0.41696687  0.32202990  1
  O  O259  1  0.13905527  0.41355245  0.65008917  1
  O  O260  1  0.13243147  0.42232566  0.98361959  1
  O  O261  1  0.13641918  0.91633041  0.32357498  1
  O  O262  1  0.13782318  0.91988306  0.65826237  1
  O  O263  1  0.13366005  0.90693218  0.98801791  1
  O  O264  1  0.63513087  0.41663615  0.31999797  1
  O  O265  1  0.62830996  0.42178740  0.64851376  1
  O  O266  1  0.62783825  0.41961963  0.98210597  1
  O  O267  1  0.63295190  0.92539852  0.31709952  1
  O  O268  1  0.63293917  0.92022511  0.65180833  1
  O  O269  1  0.62914004  0.91534715  0.98093080  1
  O  O270  1  0.03112430  0.19938472  0.09893623  1
  O  O271  1  0.02511185  0.19404158  0.42328249  1
  O  O272  1  0.03715524  0.19787315  0.77214353  1
  O  O273  1  0.03426543  0.68864427  0.10302806  1
  O  O274  1  0.03104338  0.70424444  0.43746071  1
  O  O275  1  0.02326587  0.70608881  0.76971151  1
  O  O276  1  0.53819112  0.20038793  0.10691617  1
  O  O277  1  0.52577864  0.19717587  0.43821697  1
  O  O278  1  0.52969526  0.20204994  0.77240171  1
  O  O279  1  0.53180559  0.69623402  0.09894619  1
  O  O280  1  0.53431183  0.70317044  0.44465674  1
  O  O281  1  0.53435204  0.69788104  0.76958208  1
  O  O282  1  0.30118292  0.47342396  0.06273482  1
  O  O283  1  0.30443577  0.47620156  0.39798833  1
  O  O284  1  0.31529293  0.47080379  0.73117993  1
  O  O285  1  0.31416981  0.95718702  0.06691943  1
  O  O286  1  0.30227696  0.96855202  0.39443426  1
  O  O287  1  0.30081306  0.97067913  0.72937366  1
  O  O288  1  0.79017567  0.46578933  0.06131780  1
  O  O289  1  0.80005874  0.47156815  0.39858548  1
  O  O290  1  0.79904217  0.46512659  0.72853389  1
  O  O291  1  0.78916975  0.96554964  0.05798679  1
  O  O292  1  0.79880613  0.97014351  0.39476422  1
  O  O293  1  0.79571957  0.97098079  0.72887505  1
  O  O294  1  0.47052400  0.29795168  0.23182841  1
  O  O295  1  0.46678589  0.29988277  0.56155248  1
  O  O296  1  0.47016443  0.30286694  0.89920279  1
  O  O297  1  0.46827736  0.80670419  0.23236072  1
  O  O298  1  0.47581638  0.79179925  0.56060989  1
  O  O299  1  0.47473910  0.79022227  0.89409731  1
  O  O300  1  0.97424803  0.30196045  0.23398593  1
  O  O301  1  0.96645356  0.30708096  0.56352098  1
  O  O302  1  0.96979090  0.29750658  0.89098077  1
  O  O303  1  0.97111044  0.80551353  0.23671515  1
  O  O304  1  0.96369784  0.80253645  0.56276338  1
  O  O305  1  0.96287508  0.79313373  0.89120547  1
  O  O306  1  0.19846292  0.02985797  0.27411995  1
  O  O307  1  0.19328262  0.02361595  0.60427844  1
  O  O308  1  0.18821973  0.02513019  0.92463725  1
  O  O309  1  0.20300881  0.53448837  0.27082320  1
  O  O310  1  0.19726879  0.53814531  0.59952885  1
  O  O311  1  0.20416322  0.53200389  0.93908848  1
  O  O312  1  0.69815541  0.03261420  0.26881725  1
  O  O313  1  0.69572529  0.03332814  0.60507582  1
  O  O314  1  0.69111359  0.03120339  0.93521820  1
  O  O315  1  0.71067336  0.52297384  0.27356780  1
  O  O316  1  0.70581723  0.52779416  0.60570179  1
  O  O317  1  0.70260551  0.52737124  0.93800672  1
  O  O318  1  0.09781477  0.09719957  0.03731190  1
  O  O319  1  0.08066500  0.08455278  0.35902389  1
  O  O320  1  0.10094840  0.09019444  0.70635827  1
  O  O321  1  0.08723466  0.58266175  0.02863057  1
  O  O322  1  0.08605781  0.59364458  0.37128506  1
  O  O323  1  0.08264231  0.59698078  0.70920754  1
  O  O324  1  0.58303552  0.08570395  0.03400983  1
  O  O325  1  0.57898917  0.08437067  0.37264681  1
  O  O326  1  0.58275657  0.08935913  0.70578264  1
  O  O327  1  0.58486001  0.58296356  0.03697467  1
  O  O328  1  0.59752225  0.59553895  0.38573717  1
  O  O329  1  0.58877388  0.58612085  0.70438532  1
  O  O330  1  0.41427798  0.42154954  0.12772964  1
  O  O331  1  0.41364988  0.41956501  0.46659156  1
  O  O332  1  0.41678653  0.41188181  0.80321461  1
  O  O333  1  0.41912680  0.90534568  0.14123301  1
  O  O334  1  0.41691418  0.91655845  0.46004835  1
  O  O335  1  0.41417503  0.91456152  0.78905896  1
  O  O336  1  0.89873675  0.40317397  0.11731130  1
  O  O337  1  0.91008812  0.41203348  0.46003414  1
  O  O338  1  0.90836704  0.40764729  0.79502464  1
  O  O339  1  0.90552467  0.91829708  0.12402536  1
  O  O340  1  0.90961660  0.91791648  0.46535261  1
  O  O341  1  0.90648950  0.91497906  0.79199559  1
  O  O342  1  0.40754091  0.40395266  0.29118403  1
  O  O343  1  0.41066988  0.41152484  0.62348759  1
  O  O344  1  0.42037455  0.41808208  0.96589949  1
  O  O345  1  0.41684265  0.91630278  0.30391069  1
  O  O346  1  0.43438633  0.91188146  0.62664730  1
  O  O347  1  0.42946107  0.90660847  0.95969399  1
  O  O348  1  0.91501160  0.40953721  0.29929543  1
  O  O349  1  0.91332304  0.41317591  0.63576524  1
  O  O350  1  0.91190781  0.41050863  0.95046317  1
  O  O351  1  0.91784825  0.91953637  0.30005304  1
  O  O352  1  0.91437131  0.91808261  0.62910293  1
  O  O353  1  0.91135667  0.90877143  0.95416521  1
  O  O354  1  0.08817457  0.08582478  0.20584238  1
  O  O355  1  0.08111605  0.06914331  0.53131269  1
  O  O356  1  0.08620399  0.08486469  0.85295545  1
  O  O357  1  0.09292906  0.59227748  0.20759949  1
  O  O358  1  0.08414099  0.58897904  0.53157820  1
  O  O359  1  0.08946534  0.58432344  0.87621395  1
  O  O360  1  0.58108625  0.07968740  0.20448762  1
  O  O361  1  0.58262985  0.08565540  0.53891566  1
  O  O362  1  0.57855726  0.08316213  0.86703127  1
  O  O363  1  0.59945459  0.58451806  0.21970866  1
  O  O364  1  0.59336045  0.58328502  0.54496159  1
  O  O365  1  0.59189411  0.58274870  0.87435413  1
  O  O366  1  0.14086742  0.23328210  0.06160954  1
  O  O367  1  0.13612670  0.21864508  0.38227375  1
  O  O368  1  0.12532414  0.22488119  0.70877381  1
  O  O369  1  0.13988990  0.71910566  0.05943341  1
  O  O370  1  0.14069878  0.72773782  0.39527118  1
  O  O371  1  0.13410084  0.73069108  0.72940741  1
  O  O372  1  0.64043623  0.21829730  0.05461752  1
  O  O373  1  0.63357120  0.21813739  0.39359379  1
  O  O374  1  0.63728560  0.22294760  0.72673018  1
  O  O375  1  0.63964798  0.71512434  0.05272548  1
  O  O376  1  0.64072922  0.72878216  0.40022263  1
  O  O377  1  0.63948114  0.71980674  0.72210335  1
  O  O378  1  0.28153479  0.36434569  0.10676141  1
  O  O379  1  0.27886907  0.36406377  0.43543549  1
  O  O380  1  0.27871682  0.36476538  0.77225700  1
  O  O381  1  0.28250051  0.85525725  0.11619730  1
  O  O382  1  0.28476147  0.86660976  0.44734417  1
  O  O383  1  0.28328053  0.86547886  0.77962989  1
  O  O384  1  0.76668602  0.35996547  0.10782452  1
  O  O385  1  0.77508614  0.36716092  0.44592422  1
  O  O386  1  0.77314449  0.35983963  0.77397595  1
  O  O387  1  0.77460723  0.86091621  0.10792588  1
  O  O388  1  0.77561405  0.86176218  0.43881396  1
  O  O389  1  0.77379710  0.86462645  0.77575186  1
  O  O390  1  0.36008708  0.26871580  0.27157473  1
  O  O391  1  0.36033681  0.27863460  0.60969124  1
  O  O392  1  0.36348678  0.28617681  0.94811478  1
  O  O393  1  0.36331490  0.78076756  0.27878327  1
  O  O394  1  0.36591026  0.78415379  0.60633476  1
  O  O395  1  0.36341592  0.77661015  0.93717075  1
  O  O396  1  0.86522133  0.27434401  0.27518581  1
  O  O397  1  0.85693249  0.27743348  0.60310956  1
  O  O398  1  0.86785513  0.27908772  0.94300602  1
  O  O399  1  0.86215714  0.78707464  0.28158770  1
  O  O400  1  0.85998673  0.78552457  0.61337224  1
  O  O401  1  0.86239919  0.77826490  0.94518613  1
  O  O402  1  0.22289316  0.13208537  0.22455867  1
  O  O403  1  0.21370875  0.13591639  0.56600435  1
  O  O404  1  0.22144182  0.14177551  0.89456207  1
  O  O405  1  0.22791443  0.64239661  0.22689726  1
  O  O406  1  0.21726106  0.64495765  0.55287677  1
  O  O407  1  0.22089540  0.63736145  0.89027117  1
  O  O408  1  0.71070838  0.13574065  0.21467980  1
  O  O409  1  0.71578433  0.13928412  0.55721980  1
  O  O410  1  0.71233273  0.13916352  0.88950346  1
  O  O411  1  0.73126819  0.63233517  0.23029824  1
  O  O412  1  0.72545848  0.63436376  0.55853537  1
  O  O413  1  0.72516791  0.63666765  0.89460730  1
  O  O414  1  0.49592774  0.33760848  0.03348868  1
  O  O415  1  0.48665429  0.32881857  0.36349268  1
  O  O416  1  0.49068476  0.33540606  0.69527773  1
  O  O417  1  0.49345394  0.82194479  0.02830937  1
  O  O418  1  0.49467382  0.83345552  0.36554699  1
  O  O419  1  0.49749773  0.82647451  0.69468489  1
  O  O420  1  0.99917603  0.34524147  0.02665477  1
  O  O421  1  0.99381518  0.33272064  0.36726876  1
  O  O422  1  0.98744548  0.32492942  0.69415226  1
  O  O423  1  0.99630613  0.83892269  0.02702792  1
  O  O424  1  0.99267800  0.84095705  0.37069902  1
  O  O425  1  0.99147594  0.84161853  0.69887920  1
  O  O426  1  0.16298657  -0.00023888  0.13928831  1
  O  O427  1  0.17379513  0.00739314  0.47292924  1
  O  O428  1  0.17808644  0.01450488  0.79723239  1
  O  O429  1  0.16924007  0.51294366  0.13760244  1
  O  O430  1  0.16336111  0.51283424  0.46489207  1
  O  O431  1  0.16515941  0.50496637  0.80440776  1
  O  O432  1  0.65789792  0.00253510  0.13321780  1
  O  O433  1  0.66128245  0.00812265  0.47042632  1
  O  O434  1  0.66142545  0.00771931  0.80210071  1
  O  O435  1  0.66751342  0.50562186  0.13950815  1
  O  O436  1  0.66849658  0.50419946  0.47178900  1
  O  O437  1  0.67064525  0.50708985  0.80462759  1
  O  O438  1  0.00641106  0.16623160  0.29119537  1
  O  O439  1  -0.00283628  0.14536517  0.63699551  1
  O  O440  1  0.01514738  0.17361273  0.96801373  1
  O  O441  1  0.01067325  0.67551317  0.30466983  1
  O  O442  1  0.00583651  0.67456559  0.63778047  1
  O  O443  1  0.00854871  0.66749611  0.97095017  1
  O  O444  1  0.50361724  0.16367093  0.30415886  1
  O  O445  1  0.50602866  0.16818208  0.63852092  1
  O  O446  1  0.50649394  0.16828860  0.97174541  1
  O  O447  1  0.51190069  0.66584512  0.31113679  1
  O  O448  1  0.50898877  0.66145362  0.63490155  1
  O  O449  1  0.50907161  0.65780908  0.96405519  1
  O  O450  1  0.33319220  0.49453219  0.19623098  1
  O  O451  1  0.32965349  0.49391440  0.52926470  1
  O  O452  1  0.33603868  0.49340655  0.86277901  1
  O  O453  1  0.33666779  0.98710577  0.20094597  1
  O  O454  1  0.34454409  1.00004294  0.52990187  1
  O  O455  1  0.34623790  0.99731011  0.86470112  1
  O  O456  1  0.83111622  0.48716829  0.19596067  1
  O  O457  1  0.83799575  0.49508386  0.53305105  1
  O  O458  1  0.83116562  0.49013469  0.86239924  1
  O  O459  1  0.82517796  0.99332055  0.19289887  1
  O  O460  1  0.82548899  0.99328081  0.52745676  1
  O  O461  1  0.82975830  0.99501832  0.86263855  1
