# generated using pymatgen
data_Na31Fe20(SO4)36
_symmetry_space_group_name_H-M   'P 1'
_cell_length_a   18.07957560
_cell_length_b   18.07942485
_cell_length_c   19.71185993
_cell_angle_alpha   107.62310390
_cell_angle_beta   107.58804778
_cell_angle_gamma   90.70168238
_symmetry_Int_Tables_number   1
_chemical_formula_structural   Na31Fe20(SO4)36
_chemical_formula_sum   'Na62 Fe40 S72 O288'
_cell_volume   5815.45652491
_cell_formula_units_Z   2
loop_
 _symmetry_equiv_pos_site_id
 _symmetry_equiv_pos_as_xyz
  1  'x, y, z'
loop_
 _atom_site_type_symbol
 _atom_site_label
 _atom_site_symmetry_multiplicity
 _atom_site_fract_x
 _atom_site_fract_y
 _atom_site_fract_z
 _atom_site_occupancy
  Na  Na0  1  0.15070136  0.36336439  0.09665325  1
  Na  Na1  1  0.12582342  0.35534137  0.40851704  1
  Na  Na2  1  0.12815552  0.36047239  0.74029530  1
  Na  Na3  1  0.14331807  0.86371558  0.08999727  1
  Na  Na4  1  0.13231239  0.85608448  0.40888567  1
  Na  Na5  1  0.13648336  0.86489163  0.75135256  1
  Na  Na6  1  0.64537472  0.39025047  0.10710039  1
  Na  Na7  1  0.63035764  0.35543537  0.39553337  1
  Na  Na8  1  0.63092273  0.36546117  0.75166238  1
  Na  Na9  1  0.64624410  0.87411253  0.09449654  1
  Na  Na10  1  0.63728482  0.86154850  0.41143356  1
  Na  Na11  1  0.63245933  0.86872516  0.74988967  1
  Na  Na12  1  0.36667109  0.13762847  0.24727698  1
  Na  Na13  1  0.36786531  0.13017224  0.58297056  1
  Na  Na14  1  0.36677964  0.13415460  0.91662477  1
  Na  Na15  1  0.34920752  0.64451375  0.23785103  1
  Na  Na16  1  0.36473480  0.62969840  0.57663086  1
  Na  Na17  1  0.36797853  0.64119857  0.92298629  1
  Na  Na18  1  0.86631007  0.13196361  0.26017579  1
  Na  Na19  1  0.87055171  0.13751699  0.58435409  1
  Na  Na20  1  0.86762922  0.13186305  0.91728956  1
  Na  Na21  1  0.86474115  0.64218433  0.25549394  1
  Na  Na22  1  0.84611230  0.60906469  0.54964017  1
  Na  Na23  1  0.86543307  0.63697124  0.92137466  1
  Na  Na24  1  0.49515197  -0.00133425  0.42989179  1
  Na  Na25  1  1.03851161  0.48715701  0.04862493  1
  Na  Na26  1  0.48588140  0.50263769  0.75919744  1
  Na  Na27  1  0.98841011  0.00745188  0.75465978  1
  Na  Na28  1  0.99432773  0.00783755  0.07076118  1
  Na  Na29  1  0.49123052  0.03937407  0.08679700  1
  Na  Na30  1  0.96946527  0.02867904  0.41686256  1
  Na  Na31  1  0.98700654  0.50238473  0.77636382  1
  Na  Na32  1  0.52489242  0.48670731  0.39072531  1
  Na  Na33  1  0.50718723  0.48834299  0.57920174  1
  Na  Na34  1  0.51616593  0.99759426  0.90421663  1
  Na  Na35  1  0.48926802  0.49939391  0.96098494  1
  Na  Na36  1  0.00180684  0.99106324  0.24409579  1
  Na  Na37  1  -0.01544829  0.40977840  0.51366594  1
  Na  Na38  1  0.01067905  0.95507146  0.56014051  1
  Na  Na39  1  -0.04698974  0.51267831  0.31757928  1
  Na  Na40  1  0.51208715  1.00507002  0.24826832  1
  Na  Na41  1  0.54742698  0.50937444  0.24297967  1
  Na  Na42  1  0.75601785  0.74786255  0.65764176  1
  Na  Na43  1  0.74769045  0.25252922  0.00729191  1
  Na  Na44  1  0.23450666  0.23479327  0.67393424  1
  Na  Na45  1  0.75813956  0.25744009  0.66280361  1
  Na  Na46  1  0.76746388  0.26628940  0.33411692  1
  Na  Na47  1  0.77705289  0.77551036  0.32826249  1
  Na  Na48  1  0.23843294  0.72894302  0.01892759  1
  Na  Na49  1  0.25604238  0.25199096  0.32665025  1
  Na  Na50  1  0.24268225  0.24237827  0.01236565  1
  Na  Na51  1  0.25617844  0.75490780  0.66246314  1
  Na  Na52  1  0.76176673  0.25914159  0.49299538  1
  Na  Na53  1  0.24618703  0.74283526  0.84051059  1
  Na  Na54  1  0.25930954  0.75482137  0.48511504  1
  Na  Na55  1  0.22919289  0.23465331  0.50629771  1
  Na  Na56  1  0.23524532  0.24393447  0.84180733  1
  Na  Na57  1  0.75487850  0.27508002  0.17917628  1
  Na  Na58  1  0.75958668  0.75577851  0.48705195  1
  Na  Na59  1  0.76644125  0.76915692  0.15774738  1
  Na  Na60  1  0.74895636  0.25183471  0.83456258  1
  Na  Na61  1  0.74280960  0.74332882  0.84595373  1
  Fe  Fe62  1  0.96743737  0.30569763  0.79058185  1
  Fe  Fe63  1  0.96627714  0.80956842  0.78703932  1
  Fe  Fe64  1  0.46739426  0.29989952  0.12679870  1
  Fe  Fe65  1  0.96527082  0.31154742  0.12608029  1
  Fe  Fe66  1  0.46169400  0.30771200  0.78938959  1
  Fe  Fe67  1  0.46440511  0.81027571  0.11621578  1
  Fe  Fe68  1  0.46491010  0.80769078  0.78390109  1
  Fe  Fe69  1  0.46701178  0.29987260  0.44814774  1
  Fe  Fe70  1  0.46376272  0.80773562  0.44967493  1
  Fe  Fe71  1  0.96665190  0.80906137  0.11820522  1
  Fe  Fe72  1  0.69801550  0.03626798  0.05540918  1
  Fe  Fe73  1  0.69791955  0.03546761  0.37738338  1
  Fe  Fe74  1  0.18671126  0.53589670  0.37537897  1
  Fe  Fe75  1  0.69222561  0.53563846  0.71910694  1
  Fe  Fe76  1  0.18622294  0.53614773  0.70642081  1
  Fe  Fe77  1  0.18959425  0.03328139  0.71005186  1
  Fe  Fe78  1  0.19059989  0.03536873  0.04512082  1
  Fe  Fe79  1  0.68841020  0.03373725  0.71025503  1
  Fe  Fe80  1  0.19636302  0.02749083  0.38032170  1
  Fe  Fe81  1  0.69601531  0.54132116  0.05100129  1
  Fe  Fe82  1  0.53426446  0.19269867  0.87957190  1
  Fe  Fe83  1  0.03577774  0.69473767  0.88207236  1
  Fe  Fe84  1  0.03717542  0.69138533  0.21363277  1
  Fe  Fe85  1  0.53265405  0.70017310  0.21507863  1
  Fe  Fe86  1  0.02991349  0.69699119  0.53864904  1
  Fe  Fe87  1  0.53657083  0.69675143  0.88350441  1
  Fe  Fe88  1  0.53636251  0.19072710  0.54956469  1
  Fe  Fe89  1  0.53442798  0.68970969  0.54450181  1
  Fe  Fe90  1  0.03748857  0.19003735  0.21666162  1
  Fe  Fe91  1  0.03578520  0.19150664  0.88405572  1
  Fe  Fe92  1  0.80691704  0.96280429  0.61646796  1
  Fe  Fe93  1  0.81174973  0.46589498  0.96087885  1
  Fe  Fe94  1  0.30708705  0.96068383  0.28175574  1
  Fe  Fe95  1  0.30633310  0.46674271  0.61777342  1
  Fe  Fe96  1  0.30568847  0.46742312  0.28431042  1
  Fe  Fe97  1  0.30183819  0.47156768  0.96201150  1
  Fe  Fe98  1  0.80345936  0.46547935  0.61643166  1
  Fe  Fe99  1  0.31214049  0.96248581  0.61918620  1
  Fe  Fe100  1  0.80703710  0.96427842  0.94969357  1
  Fe  Fe101  1  0.30858052  0.96493852  0.95092533  1
  S  S102  1  0.35650988  0.13845647  0.07970480  1
  S  S103  1  0.36060595  0.13523573  0.41799496  1
  S  S104  1  0.35816425  0.13994985  0.74947004  1
  S  S105  1  0.36451478  0.64192943  0.07919352  1
  S  S106  1  0.36037013  0.63891289  0.41696894  1
  S  S107  1  0.36045510  0.63927319  0.75008815  1
  S  S108  1  0.86182942  0.13867036  0.08136325  1
  S  S109  1  0.85418542  0.14291256  0.42247163  1
  S  S110  1  0.85842864  0.13868363  0.75132655  1
  S  S111  1  0.86070255  0.64428624  0.08377702  1
  S  S112  1  0.85971990  0.64776474  0.41734300  1
  S  S113  1  0.85846177  0.64139876  0.74980697  1
  S  S114  1  0.14229086  0.35810620  0.25153019  1
  S  S115  1  0.14856800  0.35778648  0.58454040  1
  S  S116  1  0.13916071  0.35766140  0.92125592  1
  S  S117  1  0.14353363  0.85689882  0.24521594  1
  S  S118  1  0.14672748  0.85505757  0.58479801  1
  S  S119  1  0.14378771  0.85910355  0.91641075  1
  S  S120  1  0.63403718  0.36517485  0.25008707  1
  S  S121  1  0.63678577  0.35965907  0.58720171  1
  S  S122  1  0.63671459  0.36304299  0.91978332  1
  S  S123  1  0.63553487  0.86523156  0.25085312  1
  S  S124  1  0.64115864  0.85684116  0.58285056  1
  S  S125  1  0.63961670  0.86351642  0.91495338  1
  S  S126  1  0.06719621  0.16850108  0.04285413  1
  S  S127  1  0.07017878  0.15567740  0.37125415  1
  S  S128  1  0.06242677  0.16475782  0.71051941  1
  S  S129  1  0.06323964  0.67327258  0.03947888  1
  S  S130  1  0.06850535  0.66853261  0.37581110  1
  S  S131  1  0.07002512  0.67643217  0.70736793  1
  S  S132  1  0.56804073  0.16983384  0.04182163  1
  S  S133  1  0.56638348  0.16459475  0.37761225  1
  S  S134  1  0.56819594  0.17271834  0.71245606  1
  S  S135  1  0.57186125  0.67958630  0.04347308  1
  S  S136  1  0.56238884  0.67333650  0.37726377  1
  S  S137  1  0.56452110  0.66903018  0.71021577  1
  S  S138  1  0.33935322  0.42907243  0.12765243  1
  S  S139  1  0.33181435  0.42907810  0.45596393  1
  S  S140  1  0.33000588  0.43332249  0.79494418  1
  S  S141  1  0.33314910  0.93533967  0.12077433  1
  S  S142  1  0.33237621  0.93163621  0.45884764  1
  S  S143  1  0.33142533  0.93394931  0.78992922  1
  S  S144  1  0.83237859  0.43691684  0.12496877  1
  S  S145  1  0.81048159  0.42908471  0.45050864  1
  S  S146  1  0.82490253  0.43090548  0.79517940  1
  S  S147  1  0.83670045  0.93909698  0.12207409  1
  S  S148  1  0.82733954  0.93827459  0.45798346  1
  S  S149  1  0.82761385  0.93184128  0.78629050  1
  S  S150  1  0.42713181  0.32607889  0.29012446  1
  S  S151  1  0.43105108  0.32851113  0.62433426  1
  S  S152  1  0.42462294  0.32187787  0.95661426  1
  S  S153  1  0.43438693  0.83861901  0.29403151  1
  S  S154  1  0.43347085  0.82566381  0.62209039  1
  S  S155  1  0.43684314  0.83639102  0.95661621  1
  S  S156  1  0.93246211  0.31975481  0.28471189  1
  S  S157  1  0.92989805  0.34020479  0.63525472  1
  S  S158  1  0.93198796  0.32585573  0.95834597  1
  S  S159  1  0.94497365  0.83684394  0.28911989  1
  S  S160  1  0.93688419  0.83162473  0.62620956  1
  S  S161  1  0.93490877  0.83078819  0.95448783  1
  S  S162  1  0.17150474  0.06407545  0.20677422  1
  S  S163  1  0.16714161  0.05353746  0.54165134  1
  S  S164  1  0.16985514  0.06442363  0.87470883  1
  S  S165  1  0.16714769  0.56308445  0.20793038  1
  S  S166  1  0.17352521  0.57486989  0.54233766  1
  S  S167  1  0.17287090  0.56851038  0.87258981  1
  S  S168  1  0.66734379  0.07029298  0.21264965  1
  S  S169  1  0.67205687  0.06768846  0.54406070  1
  S  S170  1  0.67170471  0.06975856  0.87673434  1
  S  S171  1  0.67041633  0.58733113  0.21027174  1
  S  S172  1  0.66103739  0.55961268  0.54579602  1
  S  S173  1  0.66623199  0.56804179  0.87595607  1
  O  O174  1  0.37163090  0.21859087  0.07352986  1
  O  O175  1  0.37023708  0.21471351  0.41130797  1
  O  O176  1  0.36713592  0.21986094  0.74229224  1
  O  O177  1  0.37774302  0.71846540  0.06444470  1
  O  O178  1  0.36742898  0.72052126  0.41561635  1
  O  O179  1  0.36935979  0.71756035  0.74083733  1
  O  O180  1  0.87128735  0.21718630  0.07246568  1
  O  O181  1  0.85542479  0.22369430  0.42154014  1
  O  O182  1  0.86822377  0.21875306  0.74597483  1
  O  O183  1  0.86945190  0.72186740  0.07352918  1
  O  O184  1  0.86771461  0.72634742  0.41090099  1
  O  O185  1  0.86799249  0.72248719  0.74689408  1
  O  O186  1  0.27375531  0.13254278  0.07776653  1
  O  O187  1  0.28388316  0.12727977  0.43069664  1
  O  O188  1  0.27815159  0.13145316  0.75652693  1
  O  O189  1  0.28486550  0.63348612  0.07966308  1
  O  O190  1  0.28356506  0.62582279  0.42818045  1
  O  O191  1  0.28126344  0.62961462  0.75662722  1
  O  O192  1  0.78305278  0.13227451  0.09046193  1
  O  O193  1  0.77172460  0.12758444  0.43150665  1
  O  O194  1  0.77902330  0.13002756  0.75875944  1
  O  O195  1  0.78155505  0.63666564  0.09205921  1
  O  O196  1  0.79017996  0.63626022  0.43821626  1
  O  O197  1  0.78259837  0.63283355  0.76482224  1
  O  O198  1  0.13431887  0.27923290  0.26069551  1
  O  O199  1  0.14314743  0.28373792  0.59942202  1
  O  O200  1  0.13412203  0.27338296  0.92082959  1
  O  O201  1  0.13362632  0.77703241  0.24775550  1
  O  O202  1  0.12981412  0.77554175  0.59126497  1
  O  O203  1  0.13592543  0.77801657  0.92031503  1
  O  O204  1  0.63768802  0.29086639  0.26625254  1
  O  O205  1  0.62839779  0.28253396  0.59944934  1
  O  O206  1  0.62961411  0.28372050  0.92808223  1
  O  O207  1  0.62203269  0.79180454  0.26765264  1
  O  O208  1  0.63105671  0.77789751  0.59141704  1
  O  O209  1  0.63045393  0.78288235  0.91742866  1
  O  O210  1  0.22018729  0.36885618  0.24264782  1
  O  O211  1  0.23087212  0.37141258  0.58193853  1
  O  O212  1  0.21966538  0.37173805  0.91781208  1
  O  O213  1  0.21972084  0.86929848  0.23279628  1
  O  O214  1  0.23039471  0.85829570  0.58674525  1
  O  O215  1  0.22208140  0.86915116  0.90621655  1
  O  O216  1  0.70599924  0.38825418  0.23833498  1
  O  O217  1  0.71747445  0.36873511  0.58433062  1
  O  O218  1  0.71533937  0.37274072  0.91107921  1
  O  O219  1  0.71101685  0.86783668  0.23891766  1
  O  O220  1  0.72144394  0.86406835  0.57611006  1
  O  O221  1  0.71625866  0.87228785  0.90194695  1
  O  O222  1  0.41009820  0.12640793  0.14622146  1
  O  O223  1  0.42251146  0.12486139  0.48358788  1
  O  O224  1  0.41637917  0.13246855  0.81775179  1
  O  O225  1  0.42047960  0.64160776  0.15196868  1
  O  O226  1  0.42166027  0.62779155  0.48307186  1
  O  O227  1  0.41951364  0.63257710  0.81900569  1
  O  O228  1  0.92205433  0.12642978  0.14589213  1
  O  O229  1  0.91165733  0.13095520  0.48773180  1
  O  O230  1  0.91730208  0.12816731  0.81847723  1
  O  O231  1  0.91906088  0.63620161  0.15168835  1
  O  O232  1  0.92801573  0.64024101  0.48574366  1
  O  O233  1  0.92195355  0.62790750  0.81271787  1
  O  O234  1  0.36757930  0.08094360  0.01082204  1
  O  O235  1  0.36443783  0.07685003  0.34786814  1
  O  O236  1  0.36576362  0.08238737  0.68113307  1
  O  O237  1  0.38001772  0.57953404  0.01575409  1
  O  O238  1  0.36678279  0.58372179  0.34660011  1
  O  O239  1  0.37097950  0.57887813  0.68341925  1
  O  O240  1  0.86747760  0.07924958  0.01142871  1
  O  O241  1  0.85937504  0.08706470  0.35283650  1
  O  O242  1  0.86674748  0.08047509  0.68312551  1
  O  O243  1  0.86630415  0.58313136  0.01541709  1
  O  O244  1  0.86520881  0.58796148  0.35021144  1
  O  O245  1  0.85856233  0.58532248  0.67756402  1
  O  O246  1  0.08205012  0.36356982  0.18313783  1
  O  O247  1  0.09470744  0.35826675  0.51249894  1
  O  O248  1  0.08285874  0.36458089  0.85071642  1
  O  O249  1  0.08150287  0.87332365  0.18245314  1
  O  O250  1  0.09542372  0.86665995  0.51713369  1
  O  O251  1  0.08370054  0.86927304  0.85045542  1
  O  O252  1  0.57069975  0.35579506  0.17241222  1
  O  O253  1  0.57943061  0.36382949  0.51671075  1
  O  O254  1  0.57693311  0.36807887  0.85041093  1
  O  O255  1  0.57314304  0.87397319  0.18420503  1
  O  O256  1  0.58371005  0.86573256  0.51493703  1
  O  O257  1  0.57807341  0.87671323  0.85015963  1
  O  O258  1  0.13478024  0.41674570  0.32008633  1
  O  O259  1  0.13559221  0.42164504  0.64815554  1
  O  O260  1  0.12548690  0.40848716  0.98812862  1
  O  O261  1  0.14085253  0.91288043  0.31748425  1
  O  O262  1  0.13685074  0.91382762  0.65315432  1
  O  O263  1  0.13919967  0.91513942  0.98717293  1
  O  O264  1  0.60697602  0.42415607  0.30502861  1
  O  O265  1  0.62373901  0.42095885  0.65191641  1
  O  O266  1  0.62655336  0.42276462  0.98638086  1
  O  O267  1  0.62905846  0.93002914  0.31829384  1
  O  O268  1  0.63535274  0.91601549  0.65174357  1
  O  O269  1  0.63512887  0.92049727  0.98557169  1
  O  O270  1  0.03231377  0.19945091  0.10432668  1
  O  O271  1  0.03801658  0.17058612  0.43204793  1
  O  O272  1  0.03016850  0.19584226  0.77600436  1
  O  O273  1  0.02639405  0.70609958  0.10056324  1
  O  O274  1  0.03780819  0.69779449  0.44012455  1
  O  O275  1  0.02916835  0.70416844  0.76544034  1
  O  O276  1  0.52658772  0.19622186  0.09790492  1
  O  O277  1  0.53482784  0.19632484  0.44365119  1
  O  O278  1  0.52910554  0.20232240  0.77195311  1
  O  O279  1  0.53714278  0.71033974  0.10513830  1
  O  O280  1  0.52500707  0.70743927  0.43858378  1
  O  O281  1  0.52946799  0.70186984  0.77216643  1
  O  O282  1  0.32461281  0.46722387  0.06968038  1
  O  O283  1  0.30530322  0.46574616  0.39576784  1
  O  O284  1  0.30457099  0.47065009  0.73473047  1
  O  O285  1  0.30206905  0.97360976  0.06101249  1
  O  O286  1  0.30155618  0.96580656  0.39599381  1
  O  O287  1  0.30187996  0.97085765  0.72977875  1
  O  O288  1  0.79604746  0.47004255  0.06028173  1
  O  O289  1  0.76702698  0.47752246  0.41053910  1
  O  O290  1  0.79583571  0.46956255  0.73593366  1
  O  O291  1  0.79893879  0.96810174  0.05516536  1
  O  O292  1  0.78655666  0.97122460  0.39747483  1
  O  O293  1  0.79750279  0.96976779  0.72612788  1
  O  O294  1  0.45777134  0.29698137  0.22605020  1
  O  O295  1  0.46811755  0.29816584  0.56408393  1
  O  O296  1  0.46728002  0.29576563  0.89923704  1
  O  O297  1  0.46386771  0.80546503  0.22876175  1
  O  O298  1  0.47227057  0.79714061  0.56295547  1
  O  O299  1  0.47144898  0.80343177  0.89417964  1
  O  O300  1  0.97135711  0.28423515  0.22295681  1
  O  O301  1  0.96343038  0.32840519  0.57549610  1
  O  O302  1  0.96815814  0.29491648  0.89690860  1
  O  O303  1  0.97595165  0.79565674  0.22345614  1
  O  O304  1  0.97652612  0.80304776  0.56887525  1
  O  O305  1  0.97328663  0.80020538  0.89429491  1
  O  O306  1  0.20213582  0.02811902  0.26765944  1
  O  O307  1  0.20764613  0.01951258  0.60437232  1
  O  O308  1  0.19851275  0.02623758  0.93429888  1
  O  O309  1  0.20149831  0.53224168  0.27500984  1
  O  O310  1  0.20132757  0.53618008  0.60263762  1
  O  O311  1  0.19966695  0.53020639  0.93014372  1
  O  O312  1  0.69562259  0.03715667  0.27586713  1
  O  O313  1  0.69987438  0.02696927  0.60223303  1
  O  O314  1  0.70064839  0.03362437  0.93790992  1
  O  O315  1  0.68576880  0.55751902  0.27251382  1
  O  O316  1  0.69738017  0.53083424  0.61277353  1
  O  O317  1  0.69559236  0.53402267  0.93796402  1
  O  O318  1  0.08483310  0.08681732  0.03998433  1
  O  O319  1  0.09352798  0.07267438  0.35390921  1
  O  O320  1  0.08254883  0.08305307  0.70853846  1
  O  O321  1  0.08367318  0.59572758  0.03776316  1
  O  O322  1  0.08203565  0.58475052  0.36695427  1
  O  O323  1  0.08539860  0.59466935  0.70084842  1
  O  O324  1  0.58719426  0.08753402  0.03755583  1
  O  O325  1  0.59251073  0.08482518  0.37859168  1
  O  O326  1  0.59022841  0.09413128  0.71056903  1
  O  O327  1  0.59042336  0.59805494  0.03649188  1
  O  O328  1  0.57341670  0.59230726  0.37311775  1
  O  O329  1  0.57833931  0.58612044  0.70596898  1
  O  O330  1  0.42113885  0.40433455  0.14283726  1
  O  O331  1  0.41350226  0.40793810  0.46345298  1
  O  O332  1  0.41375719  0.41649456  0.80277490  1
  O  O333  1  0.41640442  0.92197056  0.12614895  1
  O  O334  1  0.41339269  0.91307042  0.46054466  1
  O  O335  1  0.41297781  0.91547927  0.79561470  1
  O  O336  1  0.90688085  0.40794782  0.11613047  1
  O  O337  1  0.87627534  0.40023532  0.42493829  1
  O  O338  1  0.90594377  0.41191031  0.80149119  1
  O  O339  1  0.91575338  0.91630306  0.11671732  1
  O  O340  1  0.90661408  0.92729151  0.45555605  1
  O  O341  1  0.90876779  0.91470695  0.78955651  1
  O  O342  1  0.40937747  0.40851497  0.30019256  1
  O  O343  1  0.41551747  0.41148211  0.62955324  1
  O  O344  1  0.40650295  0.40260309  0.96105716  1
  O  O345  1  0.42014368  0.92242199  0.29856877  1
  O  O346  1  0.41060819  0.90423580  0.62410506  1
  O  O347  1  0.42144459  0.91877125  0.96038184  1
  O  O348  1  0.90278428  0.39017521  0.27076174  1
  O  O349  1  0.90783208  0.42218851  0.65901678  1
  O  O350  1  0.91507141  0.40734416  0.96271977  1
  O  O351  1  0.93601251  0.91792769  0.28889817  1
  O  O352  1  0.91866631  0.91372940  0.62896605  1
  O  O353  1  0.91454115  0.91108229  0.95612990  1
  O  O354  1  0.08823335  0.07914563  0.19914497  1
  O  O355  1  0.08528928  0.05643250  0.53802457  1
  O  O356  1  0.08844403  0.08278075  0.86893746  1
  O  O357  1  0.08854790  0.58798694  0.20884864  1
  O  O358  1  0.09534348  0.60026686  0.54088419  1
  O  O359  1  0.09234032  0.59160215  0.86763139  1
  O  O360  1  0.58352296  0.07771899  0.19936991  1
  O  O361  1  0.59011890  0.08460380  0.53884181  1
  O  O362  1  0.58998712  0.08709240  0.87121981  1
  O  O363  1  0.58542670  0.60294049  0.18876965  1
  O  O364  1  0.58188267  0.58329222  0.54919979  1
  O  O365  1  0.58432061  0.58731097  0.87001844  1
  O  O366  1  0.13694728  0.21926870  0.05465773  1
  O  O367  1  0.13949691  0.21128124  0.38634577  1
  O  O368  1  0.13553476  0.21617031  0.72816730  1
  O  O369  1  0.13036954  0.72880108  0.05193452  1
  O  O370  1  0.14102059  0.71703522  0.39006223  1
  O  O371  1  0.14389295  0.72806394  0.73028431  1
  O  O372  1  0.63892582  0.22245210  0.05900712  1
  O  O373  1  0.63322645  0.21860796  0.38879602  1
  O  O374  1  0.63745566  0.22816747  0.72938155  1
  O  O375  1  0.64063397  0.73192423  0.05562480  1
  O  O376  1  0.63520615  0.72363348  0.39578562  1
  O  O377  1  0.63789330  0.71772024  0.72642491  1
  O  O378  1  0.28232340  0.36044424  0.10638091  1
  O  O379  1  0.27777512  0.35979323  0.44080430  1
  O  O380  1  0.27864425  0.36125809  0.77732957  1
  O  O381  1  0.28435642  0.86223716  0.10247765  1
  O  O382  1  0.28104241  0.86276506  0.44766154  1
  O  O383  1  0.27993028  0.86249566  0.77446790  1
  O  O384  1  0.77609722  0.36935533  0.11255161  1
  O  O385  1  0.75987452  0.36035133  0.44725130  1
  O  O386  1  0.77182692  0.35917404  0.77678763  1
  O  O387  1  0.78589169  0.87123926  0.11427157  1
  O  O388  1  0.77991084  0.86473461  0.44601329  1
  O  O389  1  0.77554908  0.86026541  0.76904615  1
  O  O390  1  0.35921099  0.27393910  0.28050145  1
  O  O391  1  0.36017608  0.27667871  0.60848412  1
  O  O392  1  0.35317235  0.26784008  0.93398549  1
  O  O393  1  0.36497705  0.79165739  0.28696995  1
  O  O394  1  0.36501151  0.76957396  0.60599893  1
  O  O395  1  0.36464105  0.78664562  0.94101943  1
  O  O396  1  0.86590421  0.26113383  0.27024803  1
  O  O397  1  0.86028157  0.28306090  0.61549548  1
  O  O398  1  0.85949618  0.27463684  0.94073845  1
  O  O399  1  0.86815119  0.79137134  0.27120259  1
  O  O400  1  0.86534005  0.78038525  0.61033810  1
  O  O401  1  0.86513685  0.77752538  0.93795065  1
  O  O402  1  0.22166350  0.13563335  0.22244444  1
  O  O403  1  0.21179558  0.13050763  0.56010505  1
  O  O404  1  0.22286569  0.13574811  0.89314996  1
  O  O405  1  0.22067760  0.62798633  0.21591518  1
  O  O406  1  0.23078686  0.64253338  0.55966430  1
  O  O407  1  0.22742831  0.63933754  0.88995696  1
  O  O408  1  0.71582953  0.14318628  0.22793674  1
  O  O409  1  0.72396409  0.13984675  0.56495281  1
  O  O410  1  0.72317477  0.14210805  0.89377013  1
  O  O411  1  0.72235751  0.65828607  0.22363358  1
  O  O412  1  0.71217265  0.62825466  0.55436168  1
  O  O413  1  0.71834317  0.63639493  0.88680322  1
  O  O414  1  0.47939587  0.32017890  0.02980474  1
  O  O415  1  0.49192002  0.32834563  0.36091328  1
  O  O416  1  0.48931875  0.33297790  0.69858028  1
  O  O417  1  0.49619620  0.83839942  0.02844550  1
  O  O418  1  0.49869302  0.84505662  0.36590883  1
  O  O419  1  0.49257672  0.83098540  0.69618582  1
  O  O420  1  0.99095673  0.32677623  0.02996013  1
  O  O421  1  0.99227692  0.33271917  0.35732282  1
  O  O422  1  0.99091629  0.33406854  0.70532053  1
  O  O423  1  0.99475908  0.83668583  0.02749325  1
  O  O424  1  1.00104573  0.83471199  0.35900718  1
  O  O425  1  0.99410469  0.83888018  0.70208120  1
  O  O426  1  0.16975623  0.00477568  0.13394046  1
  O  O427  1  0.17378505  -0.00073657  0.47020622  1
  O  O428  1  0.16882087  0.00621372  0.80202357  1
  O  O429  1  0.15589785  0.49553785  0.14017850  1
  O  O430  1  0.16920170  0.51439232  0.47031752  1
  O  O431  1  0.16663946  0.51120343  0.79705056  1
  O  O432  1  0.67609029  0.01037582  0.14310505  1
  O  O433  1  0.67071710  0.01106046  0.47032521  1
  O  O434  1  0.67123799  0.01104256  0.80471102  1
  O  O435  1  0.67639746  0.52441940  0.14095766  1
  O  O436  1  0.64853927  0.49418575  0.47728740  1
  O  O437  1  0.66017787  0.50533748  0.80304180  1
  O  O438  1  0.00962945  0.15536392  0.29852323  1
  O  O439  1  0.00352108  0.16308431  0.64165600  1
  O  O440  1  0.00653591  0.16336328  0.96947995  1
  O  O441  1  0.00779520  0.66970393  0.30567703  1
  O  O442  1  0.01622779  0.67977827  0.63433552  1
  O  O443  1  0.00204905  0.66981544  0.96577478  1
  O  O444  1  0.50145726  0.15162050  0.30832528  1
  O  O445  1  0.50929282  0.16896733  0.63909665  1
  O  O446  1  0.51094521  0.16242634  0.96554786  1
  O  O447  1  0.50517565  0.67521970  0.30481816  1
  O  O448  1  0.50574276  0.66835796  0.63847355  1
  O  O449  1  0.50872633  0.67476682  0.97095652  1
  O  O450  1  0.33714068  0.48909184  0.19839598  1
  O  O451  1  0.33653652  0.48995350  0.52935517  1
  O  O452  1  0.33232516  0.49124806  0.86827588  1
  O  O453  1  0.33406660  0.99263571  0.19392329  1
  O  O454  1  0.33818957  0.99354007  0.53107638  1
  O  O455  1  0.33364930  0.99332070  0.86258957  1
  O  O456  1  0.84595545  0.49985522  0.19525376  1
  O  O457  1  0.84454742  0.47723399  0.53531809  1
  O  O458  1  0.82507023  0.48904487  0.86764693  1
  O  O459  1  0.84968887  1.00402803  0.19094892  1
  O  O460  1  0.83133523  0.99523032  0.53336499  1
  O  O461  1  0.82935359  0.99004660  0.85907460  1
