# generated using pymatgen
data_Na31Fe20(SO4)36
_symmetry_space_group_name_H-M   'P 1'
_cell_length_a   18.06099704
_cell_length_b   18.06037546
_cell_length_c   19.69410209
_cell_angle_alpha   107.58088519
_cell_angle_beta   107.55816077
_cell_angle_gamma   90.70786141
_symmetry_Int_Tables_number   1
_chemical_formula_structural   Na31Fe20(SO4)36
_chemical_formula_sum   'Na62 Fe40 S72 O288'
_cell_volume   5800.66330094
_cell_formula_units_Z   2
loop_
 _symmetry_equiv_pos_site_id
 _symmetry_equiv_pos_as_xyz
  1  'x, y, z'
loop_
 _atom_site_type_symbol
 _atom_site_label
 _atom_site_symmetry_multiplicity
 _atom_site_fract_x
 _atom_site_fract_y
 _atom_site_fract_z
 _atom_site_occupancy
  Na  Na0  1  0.11908299  0.35900742  0.07291006  1
  Na  Na1  1  0.13519273  0.36399971  0.42048373  1
  Na  Na2  1  0.13784568  0.37186760  0.75172161  1
  Na  Na3  1  0.13169948  0.87005611  0.08199071  1
  Na  Na4  1  0.14407711  0.86199985  0.41272714  1
  Na  Na5  1  0.14125353  0.86736270  0.75910813  1
  Na  Na6  1  0.62541884  0.36634563  0.07996573  1
  Na  Na7  1  0.63251948  0.36713004  0.41451514  1
  Na  Na8  1  0.63035791  0.36401111  0.74513600  1
  Na  Na9  1  0.64054807  0.86611204  0.09372715  1
  Na  Na10  1  0.64194335  0.83967490  0.40853131  1
  Na  Na11  1  0.63735819  0.86532784  0.74902267  1
  Na  Na12  1  0.37802758  0.13834138  0.25918368  1
  Na  Na13  1  0.35799862  0.13202666  0.57822005  1
  Na  Na14  1  0.34873708  0.13037664  0.91302659  1
  Na  Na15  1  0.36822125  0.63343620  0.25379982  1
  Na  Na16  1  0.36905339  0.62843301  0.58233664  1
  Na  Na17  1  0.35930056  0.63212683  0.90514395  1
  Na  Na18  1  0.86421129  0.13445723  0.24732744  1
  Na  Na19  1  0.86326829  0.13240819  0.57924867  1
  Na  Na20  1  0.87941567  0.14982351  0.92959956  1
  Na  Na21  1  0.85091848  0.64672925  0.25200278  1
  Na  Na22  1  0.86148445  0.62702348  0.57710761  1
  Na  Na23  1  0.86705134  0.63524156  0.91890699  1
  Na  Na24  1  0.98682963  0.04175246  0.75898623  1
  Na  Na25  1  0.49930909  -0.00411530  0.40195275  1
  Na  Na26  1  0.98781257  0.50173352  0.43397952  1
  Na  Na27  1  0.48899658  0.00893610  0.75302998  1
  Na  Na28  1  1.01938997  -0.00579306  0.40539732  1
  Na  Na29  1  0.97984867  0.51140206  0.70861814  1
  Na  Na30  1  0.49034121  0.51092820  0.42777751  1
  Na  Na31  1  0.47388887  0.02558937  0.11224928  1
  Na  Na32  1  0.49473262  0.51601937  0.73053214  1
  Na  Na33  1  0.00974130  0.99079415  0.58152660  1
  Na  Na34  1  0.00457340  0.45373783  0.22205401  1
  Na  Na35  1  0.47619136  1.00802839  0.93315857  1
  Na  Na36  1  0.51291424  0.48965369  0.23395684  1
  Na  Na37  1  0.00253314  0.47857501  0.92785270  1
  Na  Na38  1  0.00858622  0.99914563  0.92320971  1
  Na  Na39  1  0.04130818  0.99853167  0.24230592  1
  Na  Na40  1  0.51212560  0.95783711  0.56922326  1
  Na  Na41  1  0.49540733  0.49175770  0.93643475  1
  Na  Na42  1  0.24933998  0.74273686  0.66821532  1
  Na  Na43  1  0.23443056  0.24059271  -0.00032512  1
  Na  Na44  1  0.25683384  0.75970280  -0.00557037  1
  Na  Na45  1  0.73885527  0.24518575  0.32939726  1
  Na  Na46  1  0.76211271  0.26260839  -0.00445532  1
  Na  Na47  1  0.24181702  0.23588530  0.34318422  1
  Na  Na48  1  0.75960430  0.75626596  0.65284949  1
  Na  Na49  1  0.74264254  0.74306399  0.01357232  1
  Na  Na50  1  0.76023852  0.26538069  0.65852212  1
  Na  Na51  1  0.26504724  0.76065125  0.32944139  1
  Na  Na52  1  0.25966710  0.75929509  0.16398539  1
  Na  Na53  1  0.75273172  0.25765522  0.16173620  1
  Na  Na54  1  0.75966870  0.26577315  0.49621715  1
  Na  Na55  1  0.24828463  0.24503818  0.16952508  1
  Na  Na56  1  0.75553974  0.25906725  0.82590964  1
  Na  Na57  1  0.23465859  0.23444524  0.51264296  1
  Na  Na58  1  0.75437842  0.75139281  0.83191138  1
  Na  Na59  1  0.26238412  0.75469261  0.49500366  1
  Na  Na60  1  0.25004769  0.25780052  0.82150905  1
  Na  Na61  1  0.25131162  0.74721895  0.83117109  1
  Fe  Fe62  1  0.96476393  0.81002748  0.78459621  1
  Fe  Fe63  1  0.46662610  0.30076649  0.12305353  1
  Fe  Fe64  1  0.96407604  0.80550823  0.44733417  1
  Fe  Fe65  1  0.46837381  0.30898596  0.45433067  1
  Fe  Fe66  1  0.46671397  0.81230259  0.12431478  1
  Fe  Fe67  1  0.96790523  0.30031479  0.78836673  1
  Fe  Fe68  1  0.96275514  0.30902848  0.45621805  1
  Fe  Fe69  1  0.46940407  0.80863590  0.78839935  1
  Fe  Fe70  1  0.46185806  0.30535458  0.78364925  1
  Fe  Fe71  1  0.96499348  0.80710282  0.11815073  1
  Fe  Fe72  1  0.69803399  0.53108577  0.70748222  1
  Fe  Fe73  1  0.20227402  0.03084180  0.03973930  1
  Fe  Fe74  1  0.69120720  0.03368717  0.71347665  1
  Fe  Fe75  1  0.68880717  0.03387498  0.37672690  1
  Fe  Fe76  1  0.69056838  0.54049834  0.05262830  1
  Fe  Fe77  1  0.69244531  0.03546453  0.05067637  1
  Fe  Fe78  1  0.19089301  0.53181086  0.38038539  1
  Fe  Fe79  1  0.69230138  0.53898339  0.38279226  1
  Fe  Fe80  1  0.19316135  0.03349899  0.71652308  1
  Fe  Fe81  1  0.19432642  0.53716084  0.04889091  1
  Fe  Fe82  1  0.03427117  0.69483340  0.54949940  1
  Fe  Fe83  1  0.53646621  0.69260745  0.21655690  1
  Fe  Fe84  1  0.53422412  0.19392383  0.88412692  1
  Fe  Fe85  1  0.53602490  0.19102205  0.54897520  1
  Fe  Fe86  1  0.53169185  0.69991889  0.54276993  1
  Fe  Fe87  1  0.03437424  0.69126710  0.87927148  1
  Fe  Fe88  1  0.03262376  0.68842719  0.21248496  1
  Fe  Fe89  1  0.03045422  0.19625815  0.20628470  1
  Fe  Fe90  1  0.53937107  0.69528894  0.88363903  1
  Fe  Fe91  1  0.03731350  0.18864187  0.54601525  1
  Fe  Fe92  1  0.30574328  0.46924257  0.95323697  1
  Fe  Fe93  1  0.80806767  0.96089446  0.28417096  1
  Fe  Fe94  1  0.80575332  0.46756562  0.28549851  1
  Fe  Fe95  1  0.81215160  0.96885946  0.95755238  1
  Fe  Fe96  1  0.30547558  0.46401900  0.28663098  1
  Fe  Fe97  1  0.30163030  0.96936426  0.29227794  1
  Fe  Fe98  1  0.29739029  0.46591630  0.62184172  1
  Fe  Fe99  1  0.80858811  0.96468431  0.61482635  1
  Fe  Fe100  1  0.80939063  0.46682496  0.95837536  1
  Fe  Fe101  1  0.30581430  0.96472668  0.61547387  1
  S  S102  1  0.35942941  0.14267788  0.08321265  1
  S  S103  1  0.36393736  0.14322193  0.41842652  1
  S  S104  1  0.36005576  0.13850853  0.75260130  1
  S  S105  1  0.36135375  0.64212108  0.08415351  1
  S  S106  1  0.35695278  0.63779508  0.41772615  1
  S  S107  1  0.36619583  0.63996036  0.74949416  1
  S  S108  1  0.85479400  0.14333611  0.08383926  1
  S  S109  1  0.85860640  0.13827043  0.41665139  1
  S  S110  1  0.85218424  0.14042563  0.74787274  1
  S  S111  1  0.85823081  0.64331011  0.08393529  1
  S  S112  1  0.86198448  0.63931264  0.41738786  1
  S  S113  1  0.86071050  0.64403045  0.75014776  1
  S  S114  1  0.14286761  0.35707487  0.25047719  1
  S  S115  1  0.13759318  0.35543771  0.58091936  1
  S  S116  1  0.13992866  0.36334820  0.91575711  1
  S  S117  1  0.13742419  0.85602599  0.24904839  1
  S  S118  1  0.14018885  0.85782632  0.58167140  1
  S  S119  1  0.13937252  0.85816069  0.91806855  1
  S  S120  1  0.63975838  0.36271024  0.24863609  1
  S  S121  1  0.63895020  0.35794876  0.58716424  1
  S  S122  1  0.63621860  0.36132711  0.91606358  1
  S  S123  1  0.64219451  0.85793817  0.25256152  1
  S  S124  1  0.64658657  0.86032104  0.58396273  1
  S  S125  1  0.64496359  0.86186802  0.91808623  1
  S  S126  1  0.07335968  0.16361882  0.03981340  1
  S  S127  1  0.05993172  0.16875513  0.37195264  1
  S  S128  1  0.06326742  0.16540553  0.70682796  1
  S  S129  1  0.06797591  0.67070427  0.04410713  1
  S  S130  1  0.06913482  0.67002877  0.37652480  1
  S  S131  1  0.06557413  0.67373888  0.71126438  1
  S  S132  1  0.56547428  0.16851760  0.04223790  1
  S  S133  1  0.57037741  0.17144242  0.38022557  1
  S  S134  1  0.56401014  0.16630165  0.71027183  1
  S  S135  1  0.56485664  0.67105666  0.04026060  1
  S  S136  1  0.56352123  0.65933907  0.37192945  1
  S  S137  1  0.57264880  0.67491175  0.70956556  1
  S  S138  1  0.32667813  0.42988426  0.12284697  1
  S  S139  1  0.32735542  0.42902205  0.45771454  1
  S  S140  1  0.33683467  0.43255803  0.79527965  1
  S  S141  1  0.32764108  0.93467571  0.12758005  1
  S  S142  1  0.33210951  0.93762314  0.45613199  1
  S  S143  1  0.33469682  0.93312801  0.78924829  1
  S  S144  1  0.82128998  0.43521528  0.12114000  1
  S  S145  1  0.82610027  0.43335291  0.45559463  1
  S  S146  1  0.82994081  0.43393563  0.79344821  1
  S  S147  1  0.83461584  0.93341700  0.12585183  1
  S  S148  1  0.83451134  0.93306627  0.45756018  1
  S  S149  1  0.83183064  0.93704873  0.79249991  1
  S  S150  1  0.43363326  0.33793589  0.29453210  1
  S  S151  1  0.42688524  0.32911546  0.62313171  1
  S  S152  1  0.42762396  0.32511355  0.95593395  1
  S  S153  1  0.43350132  0.82915704  0.29157199  1
  S  S154  1  0.43663536  0.83306006  0.62648951  1
  S  S155  1  0.43871839  0.83102388  0.96025249  1
  S  S156  1  0.93338177  0.33230079  0.29233423  1
  S  S157  1  0.93330527  0.32207214  0.62201883  1
  S  S158  1  0.93024857  0.33298745  0.95768405  1
  S  S159  1  0.93666097  0.83225044  0.29200205  1
  S  S160  1  0.93839517  0.83621851  0.62855020  1
  S  S161  1  0.93249889  0.83216994  0.95681327  1
  S  S162  1  0.17682483  0.07133337  0.20618551  1
  S  S163  1  0.16604204  0.05806473  0.54097480  1
  S  S164  1  0.16686099  0.05704875  0.87481171  1
  S  S165  1  0.17001026  0.56740028  0.21054265  1
  S  S166  1  0.17022681  0.56839830  0.54243782  1
  S  S167  1  0.17035996  0.56987131  0.87725172  1
  S  S168  1  0.67032017  0.06295516  0.21057992  1
  S  S169  1  0.66908480  0.06569197  0.54292181  1
  S  S170  1  0.66949437  0.06864940  0.87695884  1
  S  S171  1  0.66602519  0.56691068  0.20608554  1
  S  S172  1  0.66658736  0.57009794  0.54238425  1
  S  S173  1  0.67203961  0.56878661  0.87430521  1
  O  O174  1  0.36436498  0.22443550  0.07885901  1
  O  O175  1  0.37929402  0.21817754  0.40328003  1
  O  O176  1  0.36849420  0.21872085  0.74868394  1
  O  O177  1  0.36768140  0.72150991  0.07564635  1
  O  O178  1  0.36192996  0.71505431  0.40977116  1
  O  O179  1  0.37843475  0.71782495  0.73820264  1
  O  O180  1  0.85959868  0.22099011  0.07630852  1
  O  O181  1  0.86356369  0.21939192  0.41124792  1
  O  O182  1  0.86192720  0.21987136  0.74058995  1
  O  O183  1  0.87095094  0.72127282  0.07366935  1
  O  O184  1  0.87366996  0.71846631  0.41187612  1
  O  O185  1  0.86654291  0.72635860  0.74686121  1
  O  O186  1  0.27385659  0.13012128  0.08000059  1
  O  O187  1  0.28599762  0.14117610  0.42579571  1
  O  O188  1  0.28294687  0.12806443  0.76426530  1
  O  O189  1  0.28328724  0.63258392  0.09496291  1
  O  O190  1  0.27922419  0.62367143  0.42830517  1
  O  O191  1  0.29165134  0.63568152  0.76331473  1
  O  O192  1  0.77720854  0.12902710  0.09554477  1
  O  O193  1  0.78137726  0.12712359  0.42827319  1
  O  O194  1  0.77000677  0.13180825  0.75021055  1
  O  O195  1  0.77683494  0.63682836  0.08591515  1
  O  O196  1  0.78505717  0.62868333  0.42727478  1
  O  O197  1  0.78089267  0.63159332  0.75595874  1
  O  O198  1  0.13401974  0.27879012  0.26043030  1
  O  O199  1  0.13169043  0.27052623  0.57675550  1
  O  O200  1  0.13353936  0.28806097  0.92709074  1
  O  O201  1  0.12945527  0.77620948  0.25678163  1
  O  O202  1  0.13302733  0.77888888  0.59032437  1
  O  O203  1  0.12331813  0.78352298  0.93273605  1
  O  O204  1  0.63323116  0.28675081  0.25870396  1
  O  O205  1  0.62274030  0.28219622  0.60161690  1
  O  O206  1  0.62869104  0.28425018  0.92913858  1
  O  O207  1  0.62868921  0.77979514  0.26024763  1
  O  O208  1  0.63309654  0.78196021  0.59168177  1
  O  O209  1  0.63778001  0.78142813  0.92391494  1
  O  O210  1  0.22474563  0.36659056  0.24784808  1
  O  O211  1  0.21547337  0.36826284  0.56985571  1
  O  O212  1  0.21867629  0.37661814  0.90639604  1
  O  O213  1  0.21856276  0.86568637  0.24515596  1
  O  O214  1  0.21789814  0.86691322  0.57080587  1
  O  O215  1  0.21479563  0.85763695  0.90531693  1
  O  O216  1  0.71720159  0.37463132  0.23655934  1
  O  O217  1  0.71781316  0.35946999  0.58175484  1
  O  O218  1  0.71686935  0.37107607  0.91203909  1
  O  O219  1  0.71976572  0.86603496  0.24239176  1
  O  O220  1  0.73052013  0.86906072  0.58827775  1
  O  O221  1  0.72300493  0.87287830  0.90818155  1
  O  O222  1  0.40959673  0.13615092  0.15430427  1
  O  O223  1  0.42268919  0.13779502  0.48874521  1
  O  O224  1  0.42154637  0.12602765  0.81756932  1
  O  O225  1  0.42137108  0.63467225  0.15140170  1
  O  O226  1  0.41819766  0.63000081  0.48545845  1
  O  O227  1  0.43040771  0.63012104  0.81424640  1
  O  O228  1  0.91578513  0.13473028  0.15032473  1
  O  O229  1  0.92050572  0.12889572  0.48212403  1
  O  O230  1  0.90755498  0.13058506  0.81496942  1
  O  O231  1  0.91314502  0.63813811  0.15515871  1
  O  O232  1  0.92353347  0.62815048  0.48366691  1
  O  O233  1  0.91799052  0.63777786  0.82094430  1
  O  O234  1  0.37528047  0.08742279  0.01874157  1
  O  O235  1  0.37330668  0.07853922  0.35413665  1
  O  O236  1  0.36606978  0.08172734  0.68227605  1
  O  O237  1  0.36775746  0.58358302  0.01511501  1
  O  O238  1  0.36528931  0.57706564  0.34997525  1
  O  O239  1  0.37029122  0.57832792  0.68037531  1
  O  O240  1  0.86024177  0.08411801  0.01398120  1
  O  O241  1  0.86459994  0.08202338  0.34644363  1
  O  O242  1  0.86186979  0.08196660  0.67898795  1
  O  O243  1  0.86926201  0.58316939  0.01815697  1
  O  O244  1  0.86946251  0.58098100  0.34804364  1
  O  O245  1  0.87378846  0.58912624  0.68460183  1
  O  O246  1  0.08741403  0.36428876  0.18211599  1
  O  O247  1  0.07729622  0.36690075  0.51428937  1
  O  O248  1  0.08019652  0.36926800  0.84657769  1
  O  O249  1  0.08207170  0.86095975  0.17650107  1
  O  O250  1  0.07901122  0.86597032  0.51483786  1
  O  O251  1  0.07751765  0.87081073  0.85392644  1
  O  O252  1  0.57830028  0.37033405  0.18045258  1
  O  O253  1  0.58191247  0.36470129  0.51729240  1
  O  O254  1  0.57985435  0.36202614  0.84361406  1
  O  O255  1  0.58225099  0.86781138  0.18549586  1
  O  O256  1  0.59470856  0.87055400  0.51544580  1
  O  O257  1  0.58448976  0.87070516  0.85136160  1
  O  O258  1  0.13218496  0.41705002  0.31792015  1
  O  O259  1  0.13160497  0.40663293  0.65081315  1
  O  O260  1  0.13012842  0.42674217  0.98168512  1
  O  O261  1  0.12244881  0.91518766  0.31143836  1
  O  O262  1  0.13312402  0.91668775  0.65026260  1
  O  O263  1  0.13796616  0.92216550  0.98779556  1
  O  O264  1  0.63192683  0.42537593  0.31537163  1
  O  O265  1  0.63061301  0.42069052  0.65320830  1
  O  O266  1  0.62183599  0.42351194  0.97878272  1
  O  O267  1  0.63699639  0.91719273  0.32232180  1
  O  O268  1  0.63298555  0.91958187  0.65143071  1
  O  O269  1  0.63831411  0.91831885  0.98791485  1
  O  O270  1  0.04356838  0.18169139  0.10420596  1
  O  O271  1  0.02117412  0.20187666  0.43115851  1
  O  O272  1  0.02421709  0.19270688  0.76451031  1
  O  O273  1  0.03048522  0.69792065  0.10491113  1
  O  O274  1  0.03381801  0.70149508  0.43847464  1
  O  O275  1  0.03024868  0.71100283  0.77361019  1
  O  O276  1  0.52938307  0.19916151  0.10121441  1
  O  O277  1  0.54019550  0.20506068  0.44662038  1
  O  O278  1  0.52782528  0.19711358  0.77168969  1
  O  O279  1  0.53055784  0.70103736  0.10220679  1
  O  O280  1  0.52883482  0.68636587  0.43271670  1
  O  O281  1  0.53842300  0.70649728  0.77268403  1
  O  O282  1  0.29973667  0.46957608  0.06359363  1
  O  O283  1  0.29633359  0.46633093  0.39709802  1
  O  O284  1  0.31369326  0.46581455  0.73376016  1
  O  O285  1  0.29887279  0.97379738  0.06893276  1
  O  O286  1  0.29163263  0.96893547  0.39530796  1
  O  O287  1  0.30200002  0.96326486  0.72317242  1
  O  O288  1  0.78717786  0.47504871  0.06178127  1
  O  O289  1  0.79592270  0.46635140  0.39054781  1
  O  O290  1  0.80166863  0.47178733  0.73536530  1
  O  O291  1  0.80524019  0.97016542  0.06487128  1
  O  O292  1  0.80457483  0.96806082  0.39576973  1
  O  O293  1  0.80235327  0.97450453  0.73246126  1
  O  O294  1  0.46836969  0.31754849  0.23383830  1
  O  O295  1  0.46392309  0.30310663  0.56256117  1
  O  O296  1  0.46766280  0.29739135  0.89667504  1
  O  O297  1  0.46449622  0.79820531  0.22521031  1
  O  O298  1  0.47227054  0.80459764  0.56636920  1
  O  O299  1  0.47554808  0.79709804  0.89855776  1
  O  O300  1  0.97115282  0.30329600  0.23400755  1
  O  O301  1  0.97219088  0.28873351  0.56227290  1
  O  O302  1  0.96067752  0.31170505  0.89274999  1
  O  O303  1  0.97067957  0.80018502  0.22927201  1
  O  O304  1  0.97174632  0.80322097  0.56555661  1
  O  O305  1  0.96668715  0.79994906  0.89480549  1
  O  O306  1  0.20105905  0.02940176  0.26209219  1
  O  O307  1  0.19964913  0.03070208  0.60913480  1
  O  O308  1  0.20513026  0.02367959  0.93606619  1
  O  O309  1  0.20037263  0.52858204  0.27023041  1
  O  O310  1  0.19963813  0.53294827  0.60204832  1
  O  O311  1  0.20494705  0.54086539  0.94454166  1
  O  O312  1  0.70605469  0.02621436  0.27185959  1
  O  O313  1  0.69989049  0.02743615  0.60277125  1
  O  O314  1  0.69796960  0.03311798  0.93842311  1
  O  O315  1  0.70071374  0.53569629  0.27050890  1
  O  O316  1  0.68781301  0.53186884  0.60069610  1
  O  O317  1  0.69985642  0.53213225  0.93510408  1
  O  O318  1  0.10529233  0.08399444  0.03004433  1
  O  O319  1  0.06985358  0.08649049  0.36620238  1
  O  O320  1  0.08267811  0.08285393  0.70392895  1
  O  O321  1  0.08644311  0.58902378  0.03659463  1
  O  O322  1  0.08395435  0.58760703  0.36982829  1
  O  O323  1  0.07728932  0.59400794  0.70928063  1
  O  O324  1  0.58487130  0.08673838  0.03865786  1
  O  O325  1  0.58953048  0.09035819  0.38061119  1
  O  O326  1  0.57977562  0.08359211  0.70530735  1
  O  O327  1  0.58668956  0.59042451  0.03752487  1
  O  O328  1  0.57612963  0.57375237  0.36011369  1
  O  O329  1  0.59016053  0.59389203  0.70664896  1
  O  O330  1  0.40645417  0.40752419  0.12676491  1
  O  O331  1  0.40927889  0.41366440  0.46185486  1
  O  O332  1  0.42092368  0.41416081  0.80815592  1
  O  O333  1  0.40775779  0.91483713  0.12756005  1
  O  O334  1  0.41469014  0.93213622  0.46087791  1
  O  O335  1  0.41743813  0.91525680  0.79287890  1
  O  O336  1  0.89836963  0.41571098  0.11957705  1
  O  O337  1  0.90610545  0.41049316  0.45594538  1
  O  O338  1  0.91006011  0.41127241  0.79684338  1
  O  O339  1  0.91667709  0.91580857  0.13248140  1
  O  O340  1  0.91755109  0.91613328  0.46229371  1
  O  O341  1  0.91427334  0.92025461  0.79761759  1
  O  O342  1  0.41447878  0.42154078  0.30769406  1
  O  O343  1  0.40585184  0.41009176  0.63088300  1
  O  O344  1  0.41026236  0.40679889  0.96142677  1
  O  O345  1  0.40498907  0.90667928  0.29185593  1
  O  O346  1  0.41843448  0.91582813  0.63118274  1
  O  O347  1  0.42860454  0.91288771  0.96750997  1
  O  O348  1  0.91587310  0.41515461  0.29667588  1
  O  O349  1  0.91539840  0.40024132  0.62254443  1
  O  O350  1  0.91125997  0.41670931  0.96939191  1
  O  O351  1  0.91856684  0.91413444  0.29507968  1
  O  O352  1  0.92138935  0.91853402  0.63082978  1
  O  O353  1  0.91623947  0.91377660  0.95972602  1
  O  O354  1  0.09651330  0.09203726  0.20311033  1
  O  O355  1  0.08453192  0.07917956  0.53949677  1
  O  O356  1  0.08332528  0.05915639  0.86617830  1
  O  O357  1  0.08924922  0.58495510  0.20841144  1
  O  O358  1  0.08963586  0.59079047  0.53818482  1
  O  O359  1  0.08931043  0.58947351  0.87643190  1
  O  O360  1  0.59045405  0.07595348  0.20714946  1
  O  O361  1  0.58573628  0.07905409  0.53724828  1
  O  O362  1  0.58660235  0.08535985  0.86955050  1
  O  O363  1  0.58481914  0.58396441  0.20511870  1
  O  O364  1  0.58628094  0.59511154  0.53395649  1
  O  O365  1  0.58950361  0.58675537  0.86728382  1
  O  O366  1  0.13921615  0.22338431  0.05610882  1
  O  O367  1  0.13496479  0.21775608  0.39284988  1
  O  O368  1  0.13397229  0.21695795  0.72183088  1
  O  O369  1  0.13909133  0.72388347  0.06213439  1
  O  O370  1  0.14190419  0.72033331  0.39267499  1
  O  O371  1  0.13884724  0.72368957  0.72645007  1
  O  O372  1  0.63583385  0.21980094  0.05352936  1
  O  O373  1  0.64318929  0.22140491  0.39432175  1
  O  O374  1  0.63581276  0.21732368  0.72685331  1
  O  O375  1  0.63252588  0.72396210  0.05032319  1
  O  O376  1  0.63661944  0.70555335  0.38610194  1
  O  O377  1  0.64422589  0.72647058  0.72474367  1
  O  O378  1  0.27010785  0.36196350  0.10600335  1
  O  O379  1  0.27672574  0.35630689  0.44017971  1
  O  O380  1  0.28447983  0.36332988  0.78234865  1
  O  O381  1  0.27446600  0.86246901  0.10862313  1
  O  O382  1  0.28883052  0.86115351  0.44399062  1
  O  O383  1  0.28527126  0.86066293  0.77579657  1
  O  O384  1  0.76568136  0.36557505  0.10394238  1
  O  O385  1  0.77270512  0.36181168  0.43845998  1
  O  O386  1  0.77483103  0.36371973  0.77777277  1
  O  O387  1  0.78207766  0.86271889  0.10904229  1
  O  O388  1  0.78460970  0.86431638  0.44747690  1
  O  O389  1  0.78051478  0.86461884  0.77472288  1
  O  O390  1  0.36352166  0.28428295  0.27781381  1
  O  O391  1  0.35900120  0.27365810  0.60800842  1
  O  O392  1  0.35540727  0.27250006  0.93536446  1
  O  O393  1  0.36572665  0.77208157  0.27755483  1
  O  O394  1  0.36466562  0.78254229  0.61215731  1
  O  O395  1  0.36466300  0.78095506  0.94091911  1
  O  O396  1  0.86040029  0.28188311  0.27631081  1
  O  O397  1  0.86171606  0.26787315  0.60333283  1
  O  O398  1  0.85585109  0.28118079  0.93687797  1
  O  O399  1  0.86854859  0.78213280  0.28308167  1
  O  O400  1  0.86876005  0.78621721  0.61802793  1
  O  O401  1  0.86045325  0.78210876  0.94319105  1
  O  O402  1  0.23221262  0.14194797  0.22613213  1
  O  O403  1  0.21685461  0.12599666  0.54920032  1
  O  O404  1  0.20920587  0.13415996  0.89016327  1
  O  O405  1  0.22289591  0.63862095  0.22775697  1
  O  O406  1  0.22373449  0.63817778  0.55511841  1
  O  O407  1  0.22077731  0.64247365  0.89091914  1
  O  O408  1  0.72181966  0.13510559  0.22647386  1
  O  O409  1  0.71804420  0.13964297  0.56175839  1
  O  O410  1  0.72016240  0.14011318  0.89154455  1
  O  O411  1  0.71445769  0.63552081  0.21261059  1
  O  O412  1  0.72423513  0.63704850  0.55918888  1
  O  O413  1  0.72430874  0.64098406  0.89255230  1
  O  O414  1  0.48491338  0.32439227  0.02805942  1
  O  O415  1  0.49415942  0.33815377  0.36634870  1
  O  O416  1  0.48844591  0.33200026  0.69575391  1
  O  O417  1  0.49509421  0.82610373  0.03204980  1
  O  O418  1  0.49758294  0.83832418  0.36056431  1
  O  O419  1  0.49581510  0.83806819  0.70053420  1
  O  O420  1  0.98811280  0.32740017  0.02465693  1
  O  O421  1  0.99020440  0.33696465  0.36749256  1
  O  O422  1  0.98970689  0.32248789  0.69577118  1
  O  O423  1  0.99184039  0.83403136  0.02906488  1
  O  O424  1  1.00036850  0.84023114  0.36496421  1
  O  O425  1  0.99989224  0.84242026  0.70137911  1
  O  O426  1  0.17472933  0.01557211  0.13085296  1
  O  O427  1  0.15608073  -0.00776012  0.47272250  1
  O  O428  1  0.17437727  0.00212440  0.80272160  1
  O  O429  1  0.16755846  0.50977892  0.13718821  1
  O  O430  1  0.16199804  0.50804849  0.46742163  1
  O  O431  1  0.16711732  0.50798169  0.80910758  1
  O  O432  1  0.67252153  0.00447610  0.13821088  1
  O  O433  1  0.67006813  0.00844136  0.47089998  1
  O  O434  1  0.66767965  0.00812501  0.80467730  1
  O  O435  1  0.65915883  0.50281957  0.13421444  1
  O  O436  1  0.66192181  0.50983011  0.46841987  1
  O  O437  1  0.67039115  0.51076923  0.80146775  1
  O  O438  1  0.00647973  0.17162367  0.29807030  1
  O  O439  1  0.00566157  0.15738846  0.63099283  1
  O  O440  1  0.01016484  0.15453025  0.97015607  1
  O  O441  1  0.00946602  0.67142663  0.30554622  1
  O  O442  1  0.00693153  0.67660088  0.63958574  1
  O  O443  1  0.00832399  0.67072734  0.97260999  1
  O  O444  1  0.50984126  0.16846278  0.31149682  1
  O  O445  1  0.50550051  0.16480593  0.63795134  1
  O  O446  1  0.50557209  0.15994551  0.96652155  1
  O  O447  1  0.50353594  0.66112060  0.30009520  1
  O  O448  1  0.51252684  0.67437111  0.63830498  1
  O  O449  1  0.50308492  0.66105654  0.96625538  1
  O  O450  1  0.33194013  0.48977523  0.19659027  1
  O  O451  1  0.32705951  0.48694696  0.52988299  1
  O  O452  1  0.33955904  0.49505871  0.86768548  1
  O  O453  1  0.33176799  0.99050973  0.20177624  1
  O  O454  1  0.32943170  0.99348083  0.53029022  1
  O  O455  1  0.34011503  0.99497143  0.85889588  1
  O  O456  1  0.82527877  0.49388245  0.19508535  1
  O  O457  1  0.83043891  0.49331998  0.52512111  1
  O  O458  1  0.83604196  0.49191432  0.86901570  1
  O  O459  1  0.83571852  0.99263196  0.19808934  1
  O  O460  1  0.84072752  0.99594406  0.53063774  1
  O  O461  1  0.83407494  0.99487588  0.86566023  1
