# generated using pymatgen
data_Na31Fe20(SO4)36
_symmetry_space_group_name_H-M   'P 1'
_cell_length_a   18.07662031
_cell_length_b   18.08242773
_cell_length_c   19.70850624
_cell_angle_alpha   107.57697760
_cell_angle_beta   107.59937769
_cell_angle_gamma   90.73684899
_symmetry_Int_Tables_number   1
_chemical_formula_structural   Na31Fe20(SO4)36
_chemical_formula_sum   'Na62 Fe40 S72 O288'
_cell_volume   5815.29199076
_cell_formula_units_Z   2
loop_
 _symmetry_equiv_pos_site_id
 _symmetry_equiv_pos_as_xyz
  1  'x, y, z'
loop_
 _atom_site_type_symbol
 _atom_site_label
 _atom_site_symmetry_multiplicity
 _atom_site_fract_x
 _atom_site_fract_y
 _atom_site_fract_z
 _atom_site_occupancy
  Na  Na0  1  0.13234975  0.35944827  0.07359145  1
  Na  Na1  1  0.11195072  0.37617609  0.42094219  1
  Na  Na2  1  0.13249549  0.36257895  0.74745462  1
  Na  Na3  1  0.14207537  0.86759056  0.08526226  1
  Na  Na4  1  0.12578005  0.86263648  0.40694739  1
  Na  Na5  1  0.14849059  0.87444815  0.76733685  1
  Na  Na6  1  0.61668518  0.39350820  0.08034302  1
  Na  Na7  1  0.63386996  0.36241926  0.41333831  1
  Na  Na8  1  0.64031831  0.35652289  0.75253991  1
  Na  Na9  1  0.63992668  0.86162697  0.08013770  1
  Na  Na10  1  0.63279171  0.86241008  0.41405300  1
  Na  Na11  1  0.64167395  0.86544913  0.76067796  1
  Na  Na12  1  0.35267756  0.12899055  0.23103264  1
  Na  Na13  1  0.36033853  0.13638405  0.58389601  1
  Na  Na14  1  0.35330821  0.13254925  0.91714683  1
  Na  Na15  1  0.36836768  0.62788248  0.24823814  1
  Na  Na16  1  0.36790254  0.63221777  0.58766231  1
  Na  Na17  1  0.37825948  0.61557784  0.92167083  1
  Na  Na18  1  0.86956805  0.13798910  0.25625693  1
  Na  Na19  1  0.86496236  0.14839757  0.58552638  1
  Na  Na20  1  0.86046756  0.13521003  0.91478983  1
  Na  Na21  1  0.86133160  0.63945939  0.23835008  1
  Na  Na22  1  0.87464373  0.63044783  0.58429382  1
  Na  Na23  1  0.85926040  0.66833283  0.94689255  1
  Na  Na24  1  0.99166065  0.00954853  0.74952501  1
  Na  Na25  1  0.50122601  0.48915016  0.78635390  1
  Na  Na26  1  0.49788424  0.50894038  0.40078947  1
  Na  Na27  1  0.99236576  0.04928662  0.41989015  1
  Na  Na28  1  1.01287280  0.50289432  0.71650003  1
  Na  Na29  1  0.44291962  0.00213469  0.05980135  1
  Na  Na30  1  1.01111300  -0.00744305  0.08538856  1
  Na  Na31  1  1.00856734  0.55371312  0.09101041  1
  Na  Na32  1  0.48618789  0.00858086  0.41940555  1
  Na  Na33  1  0.51170046  0.99343637  0.24734874  1
  Na  Na34  1  0.01203605  0.95329949  0.23812992  1
  Na  Na35  1  0.50106981  0.98853700  0.59968455  1
  Na  Na36  1  -0.00902445  1.02377173  0.57488212  1
  Na  Na37  1  0.49774535  0.99925667  0.90434734  1
  Na  Na38  1  0.01604111  0.50058611  0.90434403  1
  Na  Na39  1  0.51288942  0.48985637  0.59094221  1
  Na  Na40  1  -0.00936537  0.51969626  0.24689455  1
  Na  Na41  1  0.06926134  1.00071031  0.94085941  1
  Na  Na42  1  0.24237640  0.24569252  0.33475265  1
  Na  Na43  1  0.74287233  0.73951738  0.67970462  1
  Na  Na44  1  0.76082291  0.76151607  0.32363242  1
  Na  Na45  1  0.74545294  0.24441243  0.67089226  1
  Na  Na46  1  0.23533507  0.23886144  0.67616725  1
  Na  Na47  1  0.76901277  0.26550928  0.32935180  1
  Na  Na48  1  0.75137869  0.25876350  -0.01068114  1
  Na  Na49  1  0.23876151  0.74185028  0.33720619  1
  Na  Na50  1  0.24965382  0.75220907  0.00045999  1
  Na  Na51  1  0.25026702  0.74856859  0.67280894  1
  Na  Na52  1  0.21902384  0.23958866  0.50894204  1
  Na  Na53  1  0.75213984  0.75070198  0.50269899  1
  Na  Na54  1  0.77195075  0.75164850  0.13279892  1
  Na  Na55  1  0.23942980  0.74050232  0.17276528  1
  Na  Na56  1  0.25573573  0.74713835  0.83846644  1
  Na  Na57  1  0.24197402  0.74065838  0.50186237  1
  Na  Na58  1  0.77522880  0.26899272  0.49515419  1
  Na  Na59  1  0.25284727  0.25132556  0.15024435  1
  Na  Na60  1  0.74997648  0.25948511  0.15668846  1
  Na  Na61  1  0.24650147  0.25261271  0.84768062  1
  Fe  Fe62  1  0.95923210  0.30823630  0.78596259  1
  Fe  Fe63  1  0.46349022  0.31015355  0.11467958  1
  Fe  Fe64  1  0.96323996  0.31129412  0.11991980  1
  Fe  Fe65  1  0.46410153  0.30572032  0.45205963  1
  Fe  Fe66  1  0.46429036  0.80548470  0.45157975  1
  Fe  Fe67  1  0.96680691  0.81290671  0.78796843  1
  Fe  Fe68  1  0.46380756  0.30721594  0.78987216  1
  Fe  Fe69  1  0.46465618  0.80238219  0.11515476  1
  Fe  Fe70  1  0.96739659  0.80836241  0.45321075  1
  Fe  Fe71  1  0.46696048  0.80527104  0.78822915  1
  Fe  Fe72  1  0.70023013  0.54454102  0.73461281  1
  Fe  Fe73  1  0.69227376  0.03532912  0.71940281  1
  Fe  Fe74  1  0.69098372  0.03327858  0.04724951  1
  Fe  Fe75  1  0.19162445  0.03481997  0.71536452  1
  Fe  Fe76  1  0.68917763  0.53661936  0.37750111  1
  Fe  Fe77  1  0.19731395  0.53106314  0.71180824  1
  Fe  Fe78  1  0.69087858  0.03357284  0.38274631  1
  Fe  Fe79  1  0.19364931  0.03242417  0.37821418  1
  Fe  Fe80  1  0.19142752  0.53180757  0.37613457  1
  Fe  Fe81  1  0.20329224  0.53050387  0.04195490  1
  Fe  Fe82  1  0.54392573  0.69243497  0.89036180  1
  Fe  Fe83  1  0.53610073  0.19270115  0.21340904  1
  Fe  Fe84  1  0.03681731  0.68807607  0.54253757  1
  Fe  Fe85  1  0.03142014  0.69652372  0.88067230  1
  Fe  Fe86  1  0.53708965  0.68571415  0.21013365  1
  Fe  Fe87  1  0.03125604  0.19563329  0.88456230  1
  Fe  Fe88  1  0.53345779  0.69162761  0.55059394  1
  Fe  Fe89  1  0.53696501  0.19104922  0.88049913  1
  Fe  Fe90  1  0.03021598  0.19117202  0.21271271  1
  Fe  Fe91  1  0.53557606  0.19304464  0.55108733  1
  Fe  Fe92  1  0.30840441  0.45807349  0.28182596  1
  Fe  Fe93  1  0.30993554  0.96284624  0.62199600  1
  Fe  Fe94  1  0.80352632  0.46991558  0.62066476  1
  Fe  Fe95  1  0.80873037  0.46863594  0.28895870  1
  Fe  Fe96  1  0.30696520  0.46043481  0.61693409  1
  Fe  Fe97  1  0.80442318  0.96678713  0.28280528  1
  Fe  Fe98  1  0.80491831  0.96500076  0.61993959  1
  Fe  Fe99  1  0.81238575  0.96140936  0.95390318  1
  Fe  Fe100  1  0.80020258  0.46902016  0.95890943  1
  Fe  Fe101  1  0.30643947  0.96719795  0.28037705  1
  S  S102  1  0.36339644  0.14398931  0.08618863  1
  S  S103  1  0.36040617  0.13909261  0.41794736  1
  S  S104  1  0.36074509  0.13792596  0.74793499  1
  S  S105  1  0.35964860  0.64066534  0.08622105  1
  S  S106  1  0.36073220  0.63827459  0.41591835  1
  S  S107  1  0.36621986  0.63354535  0.75108589  1
  S  S108  1  0.85421909  0.14082314  0.08187562  1
  S  S109  1  0.85274516  0.13811591  0.41915740  1
  S  S110  1  0.85825302  0.13817611  0.74950733  1
  S  S111  1  0.86450424  0.63040858  0.08783986  1
  S  S112  1  0.85917400  0.64473235  0.41647145  1
  S  S113  1  0.86311996  0.64326030  0.74724083  1
  S  S114  1  0.14075982  0.35652781  0.25095098  1
  S  S115  1  0.13735988  0.36095203  0.58256959  1
  S  S116  1  0.13209726  0.36338467  0.91537911  1
  S  S117  1  0.14798273  0.85877334  0.24983867  1
  S  S118  1  0.14277245  0.85819157  0.58373903  1
  S  S119  1  0.14334656  0.85642324  0.91501076  1
  S  S120  1  0.63802069  0.35925549  0.25004072  1
  S  S121  1  0.63912178  0.36182382  0.58377776  1
  S  S122  1  0.63867475  0.35928509  0.91150639  1
  S  S123  1  0.63843231  0.86111078  0.25015231  1
  S  S124  1  0.63874536  0.85913346  0.58612243  1
  S  S125  1  0.64268105  0.85940133  0.91670097  1
  S  S126  1  0.05723005  0.17063769  0.04591438  1
  S  S127  1  0.06901330  0.15803580  0.36892278  1
  S  S128  1  0.06168761  0.16892483  0.71026355  1
  S  S129  1  0.07857610  0.66705647  0.03925792  1
  S  S130  1  0.06639140  0.67078868  0.37589467  1
  S  S131  1  0.07370261  0.67540173  0.70949884  1
  S  S132  1  0.56740039  0.16579802  0.03869595  1
  S  S133  1  0.56654328  0.16837139  0.37818886  1
  S  S134  1  0.56518850  0.16582120  0.70564381  1
  S  S135  1  0.57016457  0.67156328  0.04927345  1
  S  S136  1  0.56660523  0.67389392  0.38009052  1
  S  S137  1  0.56895840  0.66913799  0.71050330  1
  S  S138  1  0.32679883  0.43011532  0.12606333  1
  S  S139  1  0.33513459  0.43280348  0.45730482  1
  S  S140  1  0.32605953  0.42859610  0.78706845  1
  S  S141  1  0.33857845  0.93021507  0.12560616  1
  S  S142  1  0.33465918  0.93316261  0.45985759  1
  S  S143  1  0.33354845  0.93295642  0.78922707  1
  S  S144  1  0.82968403  0.43062640  0.12406899  1
  S  S145  1  0.82561422  0.43766842  0.45547255  1
  S  S146  1  0.82484091  0.43303820  0.79236691  1
  S  S147  1  0.83415702  0.94141251  0.12411353  1
  S  S148  1  0.82710913  0.93187639  0.45995914  1
  S  S149  1  0.83031504  0.93439522  0.78883118  1
  S  S150  1  0.43406767  0.32611813  0.29134819  1
  S  S151  1  0.43124968  0.32735407  0.62167643  1
  S  S152  1  0.43286519  0.32447833  0.95063592  1
  S  S153  1  0.43426507  0.83207861  0.29311827  1
  S  S154  1  0.43289147  0.82528650  0.62323376  1
  S  S155  1  0.44024081  0.82893487  0.95443265  1
  S  S156  1  0.92893951  0.32896037  0.28592425  1
  S  S157  1  0.92094498  0.33357068  0.63016714  1
  S  S158  1  0.92296744  0.32991554  0.95754321  1
  S  S159  1  0.93118456  0.84281469  0.29553397  1
  S  S160  1  0.93522391  0.83462867  0.62447719  1
  S  S161  1  0.94058268  0.84104932  0.95935890  1
  S  S162  1  0.17003250  0.06695070  0.20831661  1
  S  S163  1  0.16931190  0.05924331  0.54322974  1
  S  S164  1  0.16412278  0.07386717  0.87241677  1
  S  S165  1  0.17359269  0.56116040  0.21047101  1
  S  S166  1  0.17683018  0.57140290  0.54349294  1
  S  S167  1  0.16645172  0.56942289  0.87151373  1
  S  S168  1  0.66738055  0.06715557  0.20988523  1
  S  S169  1  0.66537826  0.06321039  0.54373528  1
  S  S170  1  0.66827177  0.06549627  0.87741442  1
  S  S171  1  0.67611198  0.57190361  0.21735431  1
  S  S172  1  0.66547110  0.56613713  0.54030426  1
  S  S173  1  0.67090250  0.56062859  0.87134143  1
  O  O174  1  0.37415335  0.22654302  0.08597598  1
  O  O175  1  0.36873931  0.21811414  0.41029992  1
  O  O176  1  0.36966004  0.21598315  0.73722492  1
  O  O177  1  0.36370410  0.72183602  0.08023945  1
  O  O178  1  0.36904148  0.71681701  0.40648635  1
  O  O179  1  0.37484620  0.71236658  0.74149282  1
  O  O180  1  0.86167362  0.21992543  0.07403404  1
  O  O181  1  0.85758321  0.21600409  0.41212720  1
  O  O182  1  0.86793522  0.21671710  0.74146986  1
  O  O183  1  0.87625426  0.70557141  0.07634307  1
  O  O184  1  0.86894786  0.72434280  0.40875786  1
  O  O185  1  0.87580586  0.71962328  0.73462226  1
  O  O186  1  0.29111651  0.13299517  0.10227762  1
  O  O187  1  0.28338145  0.12951282  0.42937678  1
  O  O188  1  0.27991045  0.13021945  0.75338900  1
  O  O189  1  0.28049833  0.62928470  0.09712255  1
  O  O190  1  0.27915293  0.62842462  0.41801331  1
  O  O191  1  0.28718250  0.62698569  0.76007874  1
  O  O192  1  0.77604387  0.13158638  0.09207842  1
  O  O193  1  0.77330233  0.12489440  0.42861783  1
  O  O194  1  0.77875494  0.12845745  0.75474836  1
  O  O195  1  0.78864119  0.62031632  0.09855409  1
  O  O196  1  0.78027381  0.63664552  0.42492402  1
  O  O197  1  0.78003391  0.63574510  0.74395629  1
  O  O198  1  0.12596565  0.27823315  0.25805332  1
  O  O199  1  0.14131874  0.28792368  0.60143528  1
  O  O200  1  0.11732039  0.28843814  0.92909026  1
  O  O201  1  0.14081976  0.78173307  0.25802787  1
  O  O202  1  0.13376243  0.77826841  0.59001289  1
  O  O203  1  0.12870951  0.77469822  0.91781826  1
  O  O204  1  0.63028825  0.28102501  0.26189151  1
  O  O205  1  0.62993020  0.28292583  0.59258290  1
  O  O206  1  0.63413699  0.27637049  0.91219258  1
  O  O207  1  0.62919131  0.78433900  0.26183154  1
  O  O208  1  0.63003451  0.77989079  0.59357577  1
  O  O209  1  0.63640403  0.78098248  0.92450113  1
  O  O210  1  0.22206240  0.36057006  0.24690080  1
  O  O211  1  0.21602646  0.37595849  0.57048733  1
  O  O212  1  0.20426528  0.36675301  0.89820979  1
  O  O213  1  0.23028814  0.87177991  0.24655774  1
  O  O214  1  0.22179967  0.86563592  0.57460517  1
  O  O215  1  0.21586530  0.86075273  0.89739412  1
  O  O216  1  0.71902496  0.36843444  0.24643874  1
  O  O217  1  0.71676561  0.37046920  0.57361041  1
  O  O218  1  0.71821217  0.37411126  0.90324486  1
  O  O219  1  0.71790441  0.87008061  0.24346844  1
  O  O220  1  0.71779795  0.86832133  0.57820890  1
  O  O221  1  0.71815181  0.87306497  0.90449023  1
  O  O222  1  0.42944805  0.13074344  0.15082205  1
  O  O223  1  0.42171238  0.12942753  0.48434427  1
  O  O224  1  0.41803755  0.13098170  0.81654561  1
  O  O225  1  0.41880453  0.63818201  0.15703080  1
  O  O226  1  0.41584768  0.63366083  0.48759012  1
  O  O227  1  0.42607832  0.62435648  0.81773763  1
  O  O228  1  0.91434237  0.13220994  0.14896819  1
  O  O229  1  0.91199010  0.12511939  0.48318991  1
  O  O230  1  0.91677296  0.12943030  0.81749689  1
  O  O231  1  0.92700735  0.61652886  0.14995375  1
  O  O232  1  0.91770251  0.63959063  0.48620350  1
  O  O233  1  0.91525306  0.63936343  0.81988043  1
  O  O234  1  0.36919810  0.09003594  0.01626185  1
  O  O235  1  0.36802374  0.08055245  0.34929631  1
  O  O236  1  0.36894445  0.07844004  0.68010759  1
  O  O237  1  0.36603479  0.58331635  0.01999279  1
  O  O238  1  0.37560235  0.57826937  0.35239623  1
  O  O239  1  0.37213837  0.57418351  0.68218100  1
  O  O240  1  0.86050902  0.08229964  0.01273868  1
  O  O241  1  0.85853812  0.08016005  0.34801030  1
  O  O242  1  0.86856223  0.07923833  0.68171907  1
  O  O243  1  0.86956723  0.56770620  0.01452381  1
  O  O244  1  0.86812209  0.58602907  0.34931132  1
  O  O245  1  0.87751612  0.58039806  0.68424752  1
  O  O246  1  0.08570443  0.36776996  0.18277418  1
  O  O247  1  0.07600300  0.35870447  0.51488244  1
  O  O248  1  0.06630808  0.37526514  0.85215652  1
  O  O249  1  0.09251700  0.87022403  0.18346555  1
  O  O250  1  0.08407291  0.86773998  0.51637421  1
  O  O251  1  0.07828532  0.87085198  0.85136552  1
  O  O252  1  0.58190148  0.36143317  0.17838666  1
  O  O253  1  0.57832998  0.36860646  0.51544202  1
  O  O254  1  0.57924291  0.36567547  0.84165580  1
  O  O255  1  0.58015474  0.86975522  0.18248855  1
  O  O256  1  0.57975217  0.86765169  0.51817858  1
  O  O257  1  0.57919869  0.86791694  0.85032984  1
  O  O258  1  0.13465495  0.41662075  0.31978887  1
  O  O259  1  0.12986732  0.42536513  0.64976136  1
  O  O260  1  0.13119489  0.42670445  0.98531756  1
  O  O261  1  0.13969202  0.91867542  0.31937554  1
  O  O262  1  0.13615083  0.91576541  0.65285298  1
  O  O263  1  0.14266014  0.91246073  0.98581371  1
  O  O264  1  0.62558292  0.41930975  0.31499218  1
  O  O265  1  0.63110277  0.42205554  0.65071924  1
  O  O266  1  0.63021631  0.41348381  0.97850083  1
  O  O267  1  0.62913464  0.92228685  0.31773504  1
  O  O268  1  0.62982068  0.91804085  0.65384462  1
  O  O269  1  0.63434994  0.91776995  0.98546937  1
  O  O270  1  0.02076772  0.20894556  0.10630780  1
  O  O271  1  0.04148876  0.17731421  0.43323948  1
  O  O272  1  0.02968344  0.20128663  0.77489802  1
  O  O273  1  0.05183364  0.68473129  0.10369964  1
  O  O274  1  0.03463136  0.70312252  0.44135057  1
  O  O275  1  0.03460586  0.70241929  0.76822805  1
  O  O276  1  0.53654568  0.19933739  0.10263289  1
  O  O277  1  0.53007651  0.19882579  0.43940436  1
  O  O278  1  0.53131825  0.19642081  0.76740326  1
  O  O279  1  0.52800797  0.70688330  0.10789673  1
  O  O280  1  0.52893857  0.70246822  0.44127385  1
  O  O281  1  0.53510420  0.69897559  0.77264807  1
  O  O282  1  0.29471564  0.46677980  0.06671270  1
  O  O283  1  0.30424344  0.46932639  0.39672649  1
  O  O284  1  0.29639914  0.46217358  0.72201757  1
  O  O285  1  0.32107989  0.96050553  0.06341774  1
  O  O286  1  0.30671418  0.97036989  0.40011376  1
  O  O287  1  0.29882762  0.96564998  0.72479281  1
  O  O288  1  0.80147495  0.45745835  0.05781444  1
  O  O289  1  0.78993868  0.47631410  0.39526181  1
  O  O290  1  0.79787079  0.47725631  0.73651996  1
  O  O291  1  0.79446932  0.97382542  0.06080115  1
  O  O292  1  0.79483667  0.96410177  0.39693158  1
  O  O293  1  0.79691915  0.97124174  0.72766258  1
  O  O294  1  0.47233469  0.30015409  0.23228222  1
  O  O295  1  0.46897861  0.29693481  0.56108465  1
  O  O296  1  0.47555136  0.28917766  0.89260360  1
  O  O297  1  0.47085030  0.80250963  0.23342109  1
  O  O298  1  0.46836431  0.79478301  0.56095706  1
  O  O299  1  0.47418442  0.78638031  0.89294390  1
  O  O300  1  0.96457149  0.29786050  0.22282665  1
  O  O301  1  0.94287044  0.30494275  0.56366599  1
  O  O302  1  0.95627481  0.29972636  0.89441818  1
  O  O303  1  0.96731933  0.83028330  0.23748217  1
  O  O304  1  0.97186798  0.80564491  0.56408256  1
  O  O305  1  0.96489608  0.80118701  0.89002525  1
  O  O306  1  0.20456754  0.03551970  0.27406710  1
  O  O307  1  0.20504090  0.02454484  0.60527465  1
  O  O308  1  0.18943836  0.04480272  0.93535215  1
  O  O309  1  0.20930444  0.52075256  0.26868111  1
  O  O310  1  0.20893390  0.53783291  0.60586652  1
  O  O311  1  0.19204671  0.53638936  0.93332739  1
  O  O312  1  0.69779250  0.02994429  0.27049761  1
  O  O313  1  0.69598740  0.02722828  0.60486506  1
  O  O314  1  0.69805174  0.02907048  0.93794381  1
  O  O315  1  0.70714680  0.53211991  0.27828323  1
  O  O316  1  0.69710151  0.53039512  0.60064863  1
  O  O317  1  0.70798081  0.53366148  0.93602886  1
  O  O318  1  0.06606370  0.09033335  0.04642284  1
  O  O319  1  0.08409209  0.07206575  0.35075258  1
  O  O320  1  0.08058046  0.08628119  0.70550873  1
  O  O321  1  0.09916617  0.58260899  0.02253840  1
  O  O322  1  0.09148577  0.59192270  0.37569713  1
  O  O323  1  0.09457946  0.59504542  0.70436633  1
  O  O324  1  0.58302384  0.08314426  0.03445851  1
  O  O325  1  0.58095220  0.08503489  0.37357173  1
  O  O326  1  0.58546092  0.08487470  0.70226286  1
  O  O327  1  0.58886911  0.59574534  0.05235879  1
  O  O328  1  0.58468089  0.59292190  0.37709837  1
  O  O329  1  0.59030291  0.58828700  0.70633559  1
  O  O330  1  0.40439978  0.40739112  0.12462146  1
  O  O331  1  0.41871879  0.41857365  0.46302276  1
  O  O332  1  0.40548190  0.40493178  0.78521956  1
  O  O333  1  0.42241939  0.90835572  0.14095332  1
  O  O334  1  0.41835467  0.91754571  0.46676244  1
  O  O335  1  0.41253807  0.90891949  0.78706101  1
  O  O336  1  0.91370165  0.41505388  0.13494508  1
  O  O337  1  0.90266155  0.42035284  0.45529301  1
  O  O338  1  0.90812132  0.41974311  0.80222037  1
  O  O339  1  0.91546733  0.93509061  0.12591193  1
  O  O340  1  0.90941661  0.91560744  0.46771935  1
  O  O341  1  0.91245390  0.92132155  0.79148359  1
  O  O342  1  0.41502164  0.40798701  0.29932637  1
  O  O343  1  0.41841012  0.41055542  0.62770826  1
  O  O344  1  0.41284407  0.39956961  0.94570119  1
  O  O345  1  0.41765208  0.91497002  0.29931021  1
  O  O346  1  0.41581813  0.90643976  0.62637194  1
  O  O347  1  0.43152592  0.90790713  0.94959514  1
  O  O348  1  0.90623433  0.40838482  0.28511341  1
  O  O349  1  0.90294895  0.41782751  0.64396462  1
  O  O350  1  0.89969918  0.40971929  0.95951455  1
  O  O351  1  0.91203765  0.92707716  0.31686068  1
  O  O352  1  0.91582432  0.91648265  0.62880746  1
  O  O353  1  0.92175423  0.92241877  0.95743225  1
  O  O354  1  0.08843674  0.08561940  0.20544026  1
  O  O355  1  0.08725617  0.06759015  0.53743128  1
  O  O356  1  0.07868130  0.08992697  0.86090062  1
  O  O357  1  0.09376660  0.57208436  0.21126293  1
  O  O358  1  0.09741789  0.59133060  0.54033227  1
  O  O359  1  0.08241875  0.58671424  0.85923429  1
  O  O360  1  0.58520904  0.08261460  0.20633196  1
  O  O361  1  0.58273826  0.07969951  0.53857510  1
  O  O362  1  0.58682733  0.08369570  0.87316719  1
  O  O363  1  0.59893296  0.59586664  0.22363346  1
  O  O364  1  0.58240651  0.58154885  0.53643686  1
  O  O365  1  0.59593464  0.59036560  0.87829757  1
  O  O366  1  0.13038461  0.21808578  0.06071714  1
  O  O367  1  0.14178758  0.20772785  0.38259180  1
  O  O368  1  0.13415541  0.21937751  0.72597799  1
  O  O369  1  0.14789507  0.72024545  0.05056967  1
  O  O370  1  0.13607123  0.72550778  0.39051481  1
  O  O371  1  0.14463136  0.72913544  0.72722087  1
  O  O372  1  0.63824959  0.21456569  0.04832250  1
  O  O373  1  0.63897770  0.21816527  0.39509362  1
  O  O374  1  0.63348268  0.21694457  0.71422331  1
  O  O375  1  0.63751172  0.72898247  0.06535742  1
  O  O376  1  0.63828262  0.72639178  0.39912098  1
  O  O377  1  0.63592920  0.72245550  0.72020410  1
  O  O378  1  0.27209167  0.36383564  0.11712692  1
  O  O379  1  0.28632418  0.36036152  0.44180020  1
  O  O380  1  0.27291834  0.35822345  0.77137710  1
  O  O381  1  0.28459245  0.86198254  0.11419872  1
  O  O382  1  0.28488284  0.86080892  0.44389431  1
  O  O383  1  0.28122477  0.86242814  0.77571679  1
  O  O384  1  0.77890784  0.35968292  0.11139488  1
  O  O385  1  0.76964849  0.36696617  0.43765704  1
  O  O386  1  0.77425441  0.35937474  0.76633470  1
  O  O387  1  0.78840936  0.86804452  0.11175386  1
  O  O388  1  0.77633108  0.86046718  0.44691035  1
  O  O389  1  0.78157564  0.86113568  0.77111155  1
  O  O390  1  0.36339393  0.27332202  0.27450572  1
  O  O391  1  0.35783268  0.27793797  0.60282592  1
  O  O392  1  0.36588442  0.26679537  0.93453089  1
  O  O393  1  0.36363311  0.78093419  0.27982266  1
  O  O394  1  0.36087883  0.77424081  0.60702950  1
  O  O395  1  0.36675179  0.78269321  0.94256474  1
  O  O396  1  0.85696575  0.27455907  0.26622934  1
  O  O397  1  0.85039573  0.28511043  0.62556625  1
  O  O398  1  0.85645865  0.27563342  0.94713948  1
  O  O399  1  0.85899473  0.78857596  0.27319955  1
  O  O400  1  0.86427879  0.78231326  0.60859265  1
  O  O401  1  0.87116585  0.79584680  0.95505587  1
  O  O402  1  0.22032667  0.13940608  0.22382230  1
  O  O403  1  0.21697340  0.13458528  0.56139272  1
  O  O404  1  0.21195199  0.14383505  0.87913413  1
  O  O405  1  0.22446699  0.63495924  0.23136631  1
  O  O406  1  0.23028278  0.64222061  0.55818265  1
  O  O407  1  0.21901180  0.63989799  0.88614055  1
  O  O408  1  0.71732442  0.13947926  0.22609861  1
  O  O409  1  0.71559770  0.13496041  0.55941634  1
  O  O410  1  0.72019754  0.13538001  0.89146272  1
  O  O411  1  0.73105402  0.64200543  0.23693263  1
  O  O412  1  0.71470023  0.63906278  0.55556911  1
  O  O413  1  0.72288148  0.61896307  0.86306588  1
  O  O414  1  0.49149804  0.32853105  0.02517180  1
  O  O415  1  0.49332966  0.32865471  0.36467691  1
  O  O416  1  0.48903237  0.32673522  0.69364648  1
  O  O417  1  0.49720730  0.83339315  0.02903348  1
  O  O418  1  0.49389240  0.83680240  0.36741964  1
  O  O419  1  0.49242862  0.82538445  0.69418533  1
  O  O420  1  0.98710822  0.33782245  0.02931275  1
  O  O421  1  0.98616602  0.33164418  0.35616633  1
  O  O422  1  0.98661892  0.33629473  0.70081692  1
  O  O423  1  1.00836373  0.85127881  0.02614233  1
  O  O424  1  0.98841218  0.83510901  0.36655212  1
  O  O425  1  0.99419987  0.83921416  0.69789796  1
  O  O426  1  0.16638029  0.00552823  0.13921669  1
  O  O427  1  0.17383198  0.00420140  0.47092019  1
  O  O428  1  0.16153036  0.00993769  0.80009625  1
  O  O429  1  0.17207271  0.50940096  0.13466119  1
  O  O430  1  0.17503321  0.51127460  0.47171226  1
  O  O431  1  0.16458179  0.50817266  0.79937704  1
  O  O432  1  0.66559667  0.00833130  0.13755031  1
  O  O433  1  0.66198353  0.00370746  0.47088307  1
  O  O434  1  0.66493494  0.00540886  0.80444804  1
  O  O435  1  0.66935801  0.51456935  0.14614618  1
  O  O436  1  0.66001750  0.50821105  0.46594102  1
  O  O437  1  0.64819467  0.49296428  0.79864997  1
  O  O438  1  0.00733374  0.16384786  0.30002212  1
  O  O439  1  0.00082209  0.16391657  0.63991708  1
  O  O440  1  0.00065174  0.16938165  0.97153944  1
  O  O441  1  0.00377696  0.66285230  0.30646539  1
  O  O442  1  0.01507195  0.67362683  0.63655450  1
  O  O443  1  0.01384713  0.66663389  0.96930877  1
  O  O444  1  0.50826861  0.16574261  0.30535992  1
  O  O445  1  0.50211163  0.15848384  0.63263378  1
  O  O446  1  0.50532870  0.16061212  0.96663726  1
  O  O447  1  0.50882180  0.67361624  0.30841055  1
  O  O448  1  0.50591501  0.66053820  0.63715564  1
  O  O449  1  0.51094107  0.66886272  0.97504873  1
  O  O450  1  0.33771024  0.49139344  0.20139473  1
  O  O451  1  0.33789531  0.49135226  0.53062832  1
  O  O452  1  0.33167744  0.48971136  0.85586620  1
  O  O453  1  0.34182447  0.99318095  0.19816751  1
  O  O454  1  0.33781277  0.99129134  0.53354695  1
  O  O455  1  0.34260438  0.99505103  0.85933988  1
  O  O456  1  0.83079786  0.49307274  0.19425709  1
  O  O457  1  0.82422832  0.49491432  0.52886482  1
  O  O458  1  0.81968062  0.48582457  0.86505475  1
  O  O459  1  0.83273822  0.99969511  0.19681710  1
  O  O460  1  0.82883010  0.99360813  0.53160222  1
  O  O461  1  0.82916530  0.99206011  0.86038898  1
