# generated using pymatgen
data_Na31Fe20(SO4)36
_symmetry_space_group_name_H-M   'P 1'
_cell_length_a   18.07021103
_cell_length_b   18.07430392
_cell_length_c   19.70631369
_cell_angle_alpha   107.57570341
_cell_angle_beta   107.56766294
_cell_angle_gamma   90.78005368
_symmetry_Int_Tables_number   1
_chemical_formula_structural   Na31Fe20(SO4)36
_chemical_formula_sum   'Na62 Fe40 S72 O288'
_cell_volume   5810.60822091
_cell_formula_units_Z   2
loop_
 _symmetry_equiv_pos_site_id
 _symmetry_equiv_pos_as_xyz
  1  'x, y, z'
loop_
 _atom_site_type_symbol
 _atom_site_label
 _atom_site_symmetry_multiplicity
 _atom_site_fract_x
 _atom_site_fract_y
 _atom_site_fract_z
 _atom_site_occupancy
  Na  Na0  1  0.13709957  0.35476255  0.07669469  1
  Na  Na1  1  0.12662343  0.36676969  0.41817084  1
  Na  Na2  1  0.14476370  0.35512741  0.74596148  1
  Na  Na3  1  0.16889631  0.86946714  0.11300209  1
  Na  Na4  1  0.13098478  0.85505308  0.40194748  1
  Na  Na5  1  0.12883227  0.85588311  0.74119780  1
  Na  Na6  1  0.63627853  0.36780760  0.08177702  1
  Na  Na7  1  0.63529173  0.36626252  0.41507491  1
  Na  Na8  1  0.64150370  0.37189988  0.75638071  1
  Na  Na9  1  0.63178712  0.86960684  0.08905848  1
  Na  Na10  1  0.62618058  0.86814444  0.41313433  1
  Na  Na11  1  0.62877119  0.87325988  0.75358214  1
  Na  Na12  1  0.34385736  0.12239454  0.22658633  1
  Na  Na13  1  0.36465875  0.13681135  0.58739105  1
  Na  Na14  1  0.36294476  0.14611321  0.92549512  1
  Na  Na15  1  0.35644670  0.62605689  0.24118726  1
  Na  Na16  1  0.36494227  0.63170760  0.58349365  1
  Na  Na17  1  0.36122455  0.63005823  0.91146017  1
  Na  Na18  1  0.87293383  0.13880948  0.26038240  1
  Na  Na19  1  0.86989384  0.13924618  0.58873851  1
  Na  Na20  1  0.86534981  0.13612440  0.91668439  1
  Na  Na21  1  0.86826880  0.64823440  0.25158250  1
  Na  Na22  1  0.86840505  0.63487710  0.58154890  1
  Na  Na23  1  0.86582773  0.63205179  0.92051556  1
  Na  Na24  1  0.48944974  0.51287067  0.73501546  1
  Na  Na25  1  1.02673198  -0.01871305  0.07487998  1
  Na  Na26  1  0.99480789  0.03041644  0.74982126  1
  Na  Na27  1  1.02538888  0.48085229  0.74047672  1
  Na  Na28  1  0.97788294  0.53163555  0.08083838  1
  Na  Na29  1  0.99708888  0.02658360  0.41478043  1
  Na  Na30  1  0.48487821  0.50236526  0.09998289  1
  Na  Na31  1  0.45312176  0.01297463  0.30253868  1
  Na  Na32  1  0.48734771  0.50689519  0.41726709  1
  Na  Na33  1  0.05635760  0.99442270  0.92588277  1
  Na  Na34  1  -0.00756190  0.51263868  0.25751942  1
  Na  Na35  1  0.00366724  0.46115709  0.90220381  1
  Na  Na36  1  0.02682822  0.48336692  0.56346936  1
  Na  Na37  1  0.01780800  0.97782381  0.57483222  1
  Na  Na38  1  0.01609900  0.98100167  0.24439519  1
  Na  Na39  1  0.48622734  0.99943154  0.93235063  1
  Na  Na40  1  0.51745850  0.49221663  0.92025115  1
  Na  Na41  1  0.50418852  0.99545020  0.58569824  1
  Na  Na42  1  0.24804380  0.75566474  0.31098353  1
  Na  Na43  1  0.75848132  0.75878184  0.32309847  1
  Na  Na44  1  0.74107134  0.74007485  0.01875656  1
  Na  Na45  1  0.76783054  0.26387529  0.32897862  1
  Na  Na46  1  0.24462811  0.73989705  0.01228875  1
  Na  Na47  1  0.76007784  0.26559768  -0.00893600  1
  Na  Na48  1  0.74701471  0.75127371  0.66649198  1
  Na  Na49  1  0.76658060  0.26415606  0.66171487  1
  Na  Na50  1  0.24366847  0.23898421  0.33664428  1
  Na  Na51  1  0.21932409  0.71888989  0.66718562  1
  Na  Na52  1  0.77927537  0.28115117  0.83065007  1
  Na  Na53  1  0.23509186  0.73972842  0.50111527  1
  Na  Na54  1  0.23356861  0.73183655  0.83781321  1
  Na  Na55  1  0.24850281  0.24400175  0.15577390  1
  Na  Na56  1  0.74283889  0.74680682  0.84041887  1
  Na  Na57  1  0.75419406  0.75623146  0.49581191  1
  Na  Na58  1  0.24108020  0.24275667  0.51602661  1
  Na  Na59  1  0.75892040  0.25980768  0.16141138  1
  Na  Na60  1  0.77049806  0.26372522  0.49290723  1
  Na  Na61  1  0.24569596  0.24321856  0.83986422  1
  Fe  Fe62  1  0.45984843  0.80784973  0.44871042  1
  Fe  Fe63  1  0.96596617  0.31047777  0.12133617  1
  Fe  Fe64  1  0.46771074  0.30759838  0.12076889  1
  Fe  Fe65  1  0.46476016  0.30674354  0.78442133  1
  Fe  Fe66  1  0.97254026  0.79681620  0.45375281  1
  Fe  Fe67  1  0.96700663  0.80631596  0.78712955  1
  Fe  Fe68  1  0.46188960  0.80798427  0.78455698  1
  Fe  Fe69  1  0.46132368  0.80680895  0.12169462  1
  Fe  Fe70  1  0.46565233  0.31309487  0.45684739  1
  Fe  Fe71  1  0.97153820  0.79555358  0.12273474  1
  Fe  Fe72  1  0.68922793  0.03436265  0.38101871  1
  Fe  Fe73  1  0.19164528  0.53038518  0.04946102  1
  Fe  Fe74  1  0.19513234  0.03550037  0.71342391  1
  Fe  Fe75  1  0.69964463  0.53384010  0.04513875  1
  Fe  Fe76  1  0.68896930  0.53607638  0.71018469  1
  Fe  Fe77  1  0.18777078  0.53410132  0.37854813  1
  Fe  Fe78  1  0.69359770  0.03658785  0.71910301  1
  Fe  Fe79  1  0.69386351  0.03513272  0.05056094  1
  Fe  Fe80  1  0.20194764  0.03121711  0.37772951  1
  Fe  Fe81  1  0.68921918  0.53860726  0.37822837  1
  Fe  Fe82  1  0.53084917  0.69660956  0.88363910  1
  Fe  Fe83  1  0.53172786  0.69568104  0.54661194  1
  Fe  Fe84  1  0.03369776  0.68471670  0.87743259  1
  Fe  Fe85  1  0.53679065  0.19184849  0.21508703  1
  Fe  Fe86  1  0.03201182  0.19023380  0.21185184  1
  Fe  Fe87  1  0.53701645  0.69187540  0.21628805  1
  Fe  Fe88  1  0.53595283  0.19107969  0.88101815  1
  Fe  Fe89  1  0.03266187  0.20205359  0.54724549  1
  Fe  Fe90  1  0.53724433  0.19364018  0.54756242  1
  Fe  Fe91  1  0.03345945  0.19927271  0.88153297  1
  Fe  Fe92  1  0.30964377  0.96498277  0.62169801  1
  Fe  Fe93  1  0.30209998  0.96823004  0.95957257  1
  Fe  Fe94  1  0.81309769  0.46790276  0.29279284  1
  Fe  Fe95  1  0.80544665  0.96799664  0.62166015  1
  Fe  Fe96  1  0.30441431  0.46122548  0.28455795  1
  Fe  Fe97  1  0.81390412  0.46692310  0.62140109  1
  Fe  Fe98  1  0.80684228  0.96271078  0.28568556  1
  Fe  Fe99  1  0.30195399  0.46529276  0.62192435  1
  Fe  Fe100  1  0.30637903  0.46242326  0.94816337  1
  Fe  Fe101  1  0.80995938  0.96498780  0.95666822  1
  S  S102  1  0.36689624  0.13965196  0.08131520  1
  S  S103  1  0.36348108  0.14790088  0.42153367  1
  S  S104  1  0.36302933  0.13934491  0.75227270  1
  S  S105  1  0.36228609  0.63242689  0.08396343  1
  S  S106  1  0.35749466  0.63906488  0.41535346  1
  S  S107  1  0.35995911  0.64099178  0.74733121  1
  S  S108  1  0.85595470  0.14253793  0.08347421  1
  S  S109  1  0.85757499  0.13652156  0.41870756  1
  S  S110  1  0.85733901  0.14161711  0.75408622  1
  S  S111  1  0.85643392  0.64114975  0.08080882  1
  S  S112  1  0.85440422  0.64389074  0.41453340  1
  S  S113  1  0.85360710  0.64589256  0.74954509  1
  S  S114  1  0.14191757  0.35442677  0.25172662  1
  S  S115  1  0.14275048  0.35973801  0.58657165  1
  S  S116  1  0.14255097  0.35816945  0.91211321  1
  S  S117  1  0.13787387  0.86210965  0.25047977  1
  S  S118  1  0.14403033  0.85996089  0.58394403  1
  S  S119  1  0.14126140  0.85445908  0.91934469  1
  S  S120  1  0.64135553  0.36071772  0.25203180  1
  S  S121  1  0.64217190  0.35962348  0.58191418  1
  S  S122  1  0.64000431  0.35864662  0.91587628  1
  S  S123  1  0.63831178  0.86049782  0.25097658  1
  S  S124  1  0.63766167  0.86301093  0.58395832  1
  S  S125  1  0.63749434  0.86232946  0.91934934  1
  S  S126  1  0.05806676  0.16672093  0.04194780  1
  S  S127  1  0.06864883  0.16323420  0.37506374  1
  S  S128  1  0.06666832  0.16285736  0.70644358  1
  S  S129  1  0.06789299  0.66409251  0.03822512  1
  S  S130  1  0.06506807  0.66873724  0.37249847  1
  S  S131  1  0.05424750  0.66498337  0.70902226  1
  S  S132  1  0.57199847  0.17240644  0.04431805  1
  S  S133  1  0.56994355  0.17340883  0.37970930  1
  S  S134  1  0.57311292  0.17436464  0.71266304  1
  S  S135  1  0.56558353  0.66914093  0.04187787  1
  S  S136  1  0.56477692  0.67167278  0.37781531  1
  S  S137  1  0.56728558  0.67550900  0.70968065  1
  S  S138  1  0.33007255  0.42664377  0.12468646  1
  S  S139  1  0.32717033  0.43221045  0.45667279  1
  S  S140  1  0.33970591  0.43292864  0.79330692  1
  S  S141  1  0.34248183  0.93253770  0.12511081  1
  S  S142  1  0.33074745  0.93389357  0.45948695  1
  S  S143  1  0.32406658  0.92671528  0.79152985  1
  S  S144  1  0.83006260  0.43616413  0.12719574  1
  S  S145  1  0.82871874  0.44020489  0.45735850  1
  S  S146  1  0.83112417  0.44573509  0.78623967  1
  S  S147  1  0.83133235  0.93365909  0.12461694  1
  S  S148  1  0.82908731  0.92989236  0.45892715  1
  S  S149  1  0.82931555  0.93154891  0.79410325  1
  S  S150  1  0.43130630  0.32697764  0.29098264  1
  S  S151  1  0.43427727  0.33206910  0.62502892  1
  S  S152  1  0.43615206  0.33404952  0.95903399  1
  S  S153  1  0.42827746  0.81835561  0.28701447  1
  S  S154  1  0.43158924  0.83044935  0.62198496  1
  S  S155  1  0.42643078  0.82614451  0.95480466  1
  S  S156  1  0.93546539  0.33104709  0.28980608  1
  S  S157  1  0.93728252  0.33105783  0.62345123  1
  S  S158  1  0.94085662  0.33573092  0.96295118  1
  S  S159  1  0.93152928  0.83797689  0.29571711  1
  S  S160  1  0.93185753  0.84127900  0.62844897  1
  S  S161  1  0.93182877  0.82646746  0.95748335  1
  S  S162  1  0.16441754  0.06905652  0.20707506  1
  S  S163  1  0.17168752  0.06691265  0.54103809  1
  S  S164  1  0.17072893  0.06645329  0.87258175  1
  S  S165  1  0.16307010  0.55334560  0.20653247  1
  S  S166  1  0.17332461  0.56314643  0.54129946  1
  S  S167  1  0.17060611  0.56061354  0.87749165  1
  S  S168  1  0.67660472  0.07225389  0.21483870  1
  S  S169  1  0.67094268  0.06905115  0.54701422  1
  S  S170  1  0.67094776  0.06901535  0.88185502  1
  S  S171  1  0.67194874  0.56711048  0.20821814  1
  S  S172  1  0.66605701  0.56987966  0.54011466  1
  S  S173  1  0.65900792  0.56933348  0.87168029  1
  O  O174  1  0.38137431  0.21645929  0.06972087  1
  O  O175  1  0.36971360  0.23137161  0.42182241  1
  O  O176  1  0.37435514  0.21629865  0.74195846  1
  O  O177  1  0.37111789  0.71052291  0.07464336  1
  O  O178  1  0.36617457  0.71781947  0.40750535  1
  O  O179  1  0.37356644  0.71636540  0.73298393  1
  O  O180  1  0.86325953  0.22179453  0.07528596  1
  O  O181  1  0.85977850  0.21252453  0.40717358  1
  O  O182  1  0.86184353  0.21978330  0.74772211  1
  O  O183  1  0.86915714  0.72293409  0.07693120  1
  O  O184  1  0.86642985  0.72371736  0.40695749  1
  O  O185  1  0.86434329  0.72613923  0.74383127  1
  O  O186  1  0.29131441  0.13375506  0.09259249  1
  O  O187  1  0.28465107  0.13471223  0.42938369  1
  O  O188  1  0.28339544  0.13054829  0.75933606  1
  O  O189  1  0.28554154  0.62262387  0.09492922  1
  O  O190  1  0.27916543  0.62935006  0.42343151  1
  O  O191  1  0.28243140  0.63615801  0.75497482  1
  O  O192  1  0.77638136  0.13259787  0.09052814  1
  O  O193  1  0.78072766  0.12212312  0.43067842  1
  O  O194  1  0.78106519  0.12722713  0.76695036  1
  O  O195  1  0.77205562  0.63492419  0.07859804  1
  O  O196  1  0.77013669  0.63730354  0.41357454  1
  O  O197  1  0.77259839  0.63811835  0.75456315  1
  O  O198  1  0.12892889  0.27613131  0.26029277  1
  O  O199  1  0.13345759  0.27658764  0.58652064  1
  O  O200  1  0.13382436  0.27678583  0.91440263  1
  O  O201  1  0.12448609  0.78916230  0.26480096  1
  O  O202  1  0.13670211  0.78431703  0.59468216  1
  O  O203  1  0.13453642  0.77137055  0.91839961  1
  O  O204  1  0.63199523  0.28271773  0.26277779  1
  O  O205  1  0.63378615  0.28026949  0.59008974  1
  O  O206  1  0.62674704  0.28164618  0.92804974  1
  O  O207  1  0.63147776  0.78351221  0.26408397  1
  O  O208  1  0.62905764  0.78386122  0.59179611  1
  O  O209  1  0.62832400  0.78301456  0.92689310  1
  O  O210  1  0.22315587  0.35976155  0.24700570  1
  O  O211  1  0.22668157  0.36838706  0.58472755  1
  O  O212  1  0.22375607  0.36853820  0.90692798  1
  O  O213  1  0.21363465  0.87232046  0.24058816  1
  O  O214  1  0.22255424  0.87244412  0.57492612  1
  O  O215  1  0.22067090  0.86850292  0.91276716  1
  O  O216  1  0.72202770  0.36868284  0.24666256  1
  O  O217  1  0.72150939  0.36896689  0.57419824  1
  O  O218  1  0.71683894  0.36399820  0.90679026  1
  O  O219  1  0.71705400  0.87128970  0.24378577  1
  O  O220  1  0.71693241  0.87179105  0.57634508  1
  O  O221  1  0.71643150  0.87091707  0.91090059  1
  O  O222  1  0.42868821  0.13187407  0.14842265  1
  O  O223  1  0.42240448  0.13860604  0.48986347  1
  O  O224  1  0.42044420  0.13393859  0.82278057  1
  O  O225  1  0.42437386  0.62266655  0.14986070  1
  O  O226  1  0.41756173  0.63095635  0.48360432  1
  O  O227  1  0.41997442  0.63494251  0.81653498  1
  O  O228  1  0.91341685  0.13559154  0.15252776  1
  O  O229  1  0.91976376  0.13111890  0.48669391  1
  O  O230  1  0.91979174  0.13106597  0.81932919  1
  O  O231  1  0.90797289  0.63155876  0.15017687  1
  O  O232  1  0.90657552  0.63688913  0.48337301  1
  O  O233  1  0.90968060  0.63663724  0.81786520  1
  O  O234  1  0.37162883  0.07828695  0.01151539  1
  O  O235  1  0.37244112  0.09655670  0.35230862  1
  O  O236  1  0.37126336  0.07777578  0.68597102  1
  O  O237  1  0.36962719  0.57291451  0.01522307  1
  O  O238  1  0.36737715  0.57922107  0.34829087  1
  O  O239  1  0.37046613  0.57727340  0.68204878  1
  O  O240  1  0.86472544  0.08384135  0.01580995  1
  O  O241  1  0.86803571  0.07529590  0.35223661  1
  O  O242  1  0.86388796  0.08250935  0.68433400  1
  O  O243  1  0.86823908  0.58468946  0.01481852  1
  O  O244  1  0.86289471  0.58578281  0.34580089  1
  O  O245  1  0.86096817  0.58880344  0.68057005  1
  O  O246  1  0.08703121  0.36197601  0.18181989  1
  O  O247  1  0.08979219  0.37107263  0.51866129  1
  O  O248  1  0.08570530  0.37216315  0.84786992  1
  O  O249  1  0.07513567  0.86912286  0.18095621  1
  O  O250  1  0.08395471  0.86767063  0.51535829  1
  O  O251  1  0.08297226  0.86577486  0.85087931  1
  O  O252  1  0.58456676  0.36546617  0.18140159  1
  O  O253  1  0.58384702  0.36673287  0.51313162  1
  O  O254  1  0.57894021  0.36684879  0.84837719  1
  O  O255  1  0.57919718  0.86265155  0.18121425  1
  O  O256  1  0.57850996  0.87189069  0.51672311  1
  O  O257  1  0.57793490  0.87065243  0.85178171  1
  O  O258  1  0.13301749  0.41446023  0.31810192  1
  O  O259  1  0.13289046  0.41401284  0.65450277  1
  O  O260  1  0.13629308  0.41304443  0.98382192  1
  O  O261  1  0.12695913  0.92807137  0.31516738  1
  O  O262  1  0.13398156  0.92263747  0.64993003  1
  O  O263  1  0.12952418  0.90778230  0.98686178  1
  O  O264  1  0.63120001  0.42103367  0.31778288  1
  O  O265  1  0.63331232  0.41783926  0.64966066  1
  O  O266  1  0.63228219  0.42050372  0.98345062  1
  O  O267  1  0.62841567  0.92176879  0.31736232  1
  O  O268  1  0.62973717  0.92208476  0.65247925  1
  O  O269  1  0.62995494  0.92108741  0.98787694  1
  O  O270  1  0.02173946  0.20277443  0.10300134  1
  O  O271  1  0.03101421  0.18208897  0.43393170  1
  O  O272  1  0.02835287  0.17626644  0.76482416  1
  O  O273  1  0.03210705  0.69330480  0.09802183  1
  O  O274  1  0.03404008  0.70014871  0.43639521  1
  O  O275  1  0.02331086  0.70219980  0.77618478  1
  O  O276  1  0.54099748  0.20436360  0.10843025  1
  O  O277  1  0.53219342  0.20468840  0.43968074  1
  O  O278  1  0.53576521  0.20172665  0.77329145  1
  O  O279  1  0.53108688  0.69828075  0.10428053  1
  O  O280  1  0.52604899  0.70340352  0.43733315  1
  O  O281  1  0.53324596  0.70652914  0.77213674  1
  O  O282  1  0.29958754  0.46147463  0.06274620  1
  O  O283  1  0.29772914  0.47207525  0.39805602  1
  O  O284  1  0.31723120  0.46752573  0.73219094  1
  O  O285  1  0.31733928  0.96652822  0.06242823  1
  O  O286  1  0.30404953  0.97203227  0.40164863  1
  O  O287  1  0.29928363  0.96681465  0.73284290  1
  O  O288  1  0.80050720  0.47165484  0.06755027  1
  O  O289  1  0.79278123  0.47731909  0.39637738  1
  O  O290  1  0.79121991  0.47750146  0.72075588  1
  O  O291  1  0.80105841  0.97300312  0.06485654  1
  O  O292  1  0.79751358  0.96362657  0.39648471  1
  O  O293  1  0.79914359  0.96720102  0.73240798  1
  O  O294  1  0.46978048  0.30082779  0.23121372  1
  O  O295  1  0.47561206  0.30740074  0.56737029  1
  O  O296  1  0.47113900  0.30274142  0.89746217  1
  O  O297  1  0.46839299  0.78689459  0.22733034  1
  O  O298  1  0.47037186  0.80009341  0.56208740  1
  O  O299  1  0.46458169  0.79775138  0.89384228  1
  O  O300  1  0.96746637  0.29811862  0.22417532  1
  O  O301  1  0.96586213  0.29802657  0.55857493  1
  O  O302  1  0.97572258  0.30033051  0.90289751  1
  O  O303  1  0.96187709  0.81539376  0.23229066  1
  O  O304  1  0.96586582  0.82018529  0.56727196  1
  O  O305  1  0.96940368  0.79871114  0.89724096  1
  O  O306  1  0.19722555  0.05202951  0.27823321  1
  O  O307  1  0.20250880  0.03105620  0.60282663  1
  O  O308  1  0.19884588  0.02766879  0.93088876  1
  O  O309  1  0.20217655  0.51983721  0.26968599  1
  O  O310  1  0.20997621  0.52592064  0.60035337  1
  O  O311  1  0.20295278  0.53118963  0.94432902  1
  O  O312  1  0.70558363  0.03307060  0.27421190  1
  O  O313  1  0.70152894  0.03133672  0.60766596  1
  O  O314  1  0.70160721  0.02916005  0.94032636  1
  O  O315  1  0.69779799  0.52719805  0.26682137  1
  O  O316  1  0.69434226  0.53372199  0.60078132  1
  O  O317  1  0.67942361  0.53225509  0.93045807  1
  O  O318  1  0.06543460  0.08448460  0.03706674  1
  O  O319  1  0.08739462  0.08002760  0.36228296  1
  O  O320  1  0.08351735  0.07792420  0.68810812  1
  O  O321  1  0.08302853  0.58051818  0.03235645  1
  O  O322  1  0.08801468  0.58796964  0.37119636  1
  O  O323  1  0.06543282  0.58379962  0.70570536  1
  O  O324  1  0.58878995  0.09030113  0.03799860  1
  O  O325  1  0.58598883  0.09162325  0.37623167  1
  O  O326  1  0.58988618  0.09189410  0.70449864  1
  O  O327  1  0.58869194  0.58935987  0.03891982  1
  O  O328  1  0.58449051  0.59221316  0.37887619  1
  O  O329  1  0.58560913  0.59456538  0.70604644  1
  O  O330  1  0.41225374  0.41040568  0.12820765  1
  O  O331  1  0.40869569  0.41603154  0.45840194  1
  O  O332  1  0.42444677  0.41725811  0.80567659  1
  O  O333  1  0.42516437  0.91364874  0.13555964  1
  O  O334  1  0.41341079  0.91481735  0.46705008  1
  O  O335  1  0.40734235  0.91133433  0.80204676  1
  O  O336  1  0.91208954  0.41759095  0.13251053  1
  O  O337  1  0.90869631  0.42842501  0.46135547  1
  O  O338  1  0.91071886  0.43311988  0.78421409  1
  O  O339  1  0.91105020  0.91318081  0.12602623  1
  O  O340  1  0.91013291  0.91110717  0.46363873  1
  O  O341  1  0.91064190  0.91346350  0.79959027  1
  O  O342  1  0.40966507  0.40780256  0.29720045  1
  O  O343  1  0.40853535  0.41102146  0.62773808  1
  O  O344  1  0.42149836  0.41741237  0.96563668  1
  O  O345  1  0.40393491  0.89370580  0.28537623  1
  O  O346  1  0.41598031  0.91190933  0.62551040  1
  O  O347  1  0.40623564  0.90628136  0.95702661  1
  O  O348  1  0.91368387  0.41079796  0.28892853  1
  O  O349  1  0.91375772  0.41157493  0.62279715  1
  O  O350  1  0.93048660  0.41737941  0.96724853  1
  O  O351  1  0.91804172  0.92388345  0.31054261  1
  O  O352  1  0.91575391  0.92620918  0.64282844  1
  O  O353  1  0.91475154  0.90942489  0.96424278  1
  O  O354  1  0.07882427  0.08345878  0.19729662  1
  O  O355  1  0.08949861  0.08382299  0.53701621  1
  O  O356  1  0.09053849  0.08899548  0.87328510  1
  O  O357  1  0.08015834  0.55533645  0.19952033  1
  O  O358  1  0.09655207  0.58155469  0.54538870  1
  O  O359  1  0.08851259  0.57909482  0.87266577  1
  O  O360  1  0.59853242  0.09472677  0.21398760  1
  O  O361  1  0.59028920  0.08710830  0.54519905  1
  O  O362  1  0.59053527  0.08715574  0.87990606  1
  O  O363  1  0.59012511  0.58659733  0.20246681  1
  O  O364  1  0.58476190  0.59026987  0.53467446  1
  O  O365  1  0.57471511  0.58689252  0.85888890  1
  O  O366  1  0.13254081  0.21358038  0.05908195  1
  O  O367  1  0.13980597  0.21734704  0.39505349  1
  O  O368  1  0.13894165  0.21546173  0.73042143  1
  O  O369  1  0.13974708  0.71296145  0.05143127  1
  O  O370  1  0.13640757  0.72005091  0.38506967  1
  O  O371  1  0.12971527  0.71401155  0.72836470  1
  O  O372  1  0.64239492  0.22335871  0.05581367  1
  O  O373  1  0.64237044  0.22422997  0.39658195  1
  O  O374  1  0.64423303  0.22688387  0.72983226  1
  O  O375  1  0.63105341  0.72511181  0.05270527  1
  O  O376  1  0.63467843  0.72565216  0.39418861  1
  O  O377  1  0.63812100  0.72798329  0.72425884  1
  O  O378  1  0.28057176  0.35582871  0.11272075  1
  O  O379  1  0.27511842  0.36059615  0.43843186  1
  O  O380  1  0.28982622  0.36182205  0.77925537  1
  O  O381  1  0.29090742  0.85975771  0.10516929  1
  O  O382  1  0.27900386  0.86202109  0.44276928  1
  O  O383  1  0.27169195  0.85458743  0.77058934  1
  O  O384  1  0.77835420  0.36370003  0.11141234  1
  O  O385  1  0.77724978  0.36646039  0.43830333  1
  O  O386  1  0.78221424  0.37066337  0.76888136  1
  O  O387  1  0.77542126  0.86581934  0.10819678  1
  O  O388  1  0.77570599  0.85979392  0.44478824  1
  O  O389  1  0.77555339  0.86142911  0.77839536  1
  O  O390  1  0.36261805  0.27134836  0.27394733  1
  O  O391  1  0.36816715  0.27423469  0.60824306  1
  O  O392  1  0.36427057  0.28462633  0.94391058  1
  O  O393  1  0.36342196  0.76026222  0.27428913  1
  O  O394  1  0.36028890  0.77848871  0.60399643  1
  O  O395  1  0.35652400  0.77172147  0.93759692  1
  O  O396  1  0.86304690  0.27853208  0.27291301  1
  O  O397  1  0.86563076  0.27974148  0.61212220  1
  O  O398  1  0.86602637  0.28752634  0.94729586  1
  O  O399  1  0.85846899  0.78995925  0.28081717  1
  O  O400  1  0.85888574  0.79058168  0.61099635  1
  O  O401  1  0.85923068  0.77534856  0.93899485  1
  O  O402  1  0.20982272  0.14102189  0.21218943  1
  O  O403  1  0.22359756  0.13727655  0.55667639  1
  O  O404  1  0.22442370  0.13407552  0.88443295  1
  O  O405  1  0.20726435  0.62887912  0.22271040  1
  O  O406  1  0.22638651  0.63432595  0.55516923  1
  O  O407  1  0.22190295  0.63289354  0.89292536  1
  O  O408  1  0.73249648  0.14070683  0.23018923  1
  O  O409  1  0.72361611  0.13975271  0.56341686  1
  O  O410  1  0.72391538  0.13972020  0.89894592  1
  O  O411  1  0.72497359  0.63768552  0.22671432  1
  O  O412  1  0.71930577  0.64049765  0.55539017  1
  O  O413  1  0.71118034  0.64176864  0.89109734  1
  O  O414  1  0.49589949  0.33643611  0.03178708  1
  O  O415  1  0.49158746  0.33245817  0.36434209  1
  O  O416  1  0.49428703  0.34007035  0.69934182  1
  O  O417  1  0.48609104  0.82741457  0.02624800  1
  O  O418  1  0.49051065  0.82627668  0.36128375  1
  O  O419  1  0.48946915  0.83300776  0.69554064  1
  O  O420  1  0.99653478  0.33441409  0.03709462  1
  O  O421  1  0.99469489  0.33399347  0.35897975  1
  O  O422  1  0.99869350  0.34076001  0.69467623  1
  O  O423  1  0.98982515  0.82811449  0.03004209  1
  O  O424  1  0.99199763  0.83379277  0.36544109  1
  O  O425  1  0.99060063  0.83844704  0.69966945  1
  O  O426  1  0.16262842  0.00239845  0.14176592  1
  O  O427  1  0.16817463  0.00713995  0.46821069  1
  O  O428  1  0.15821606  0.00683266  0.79640787  1
  O  O429  1  0.17011345  0.49683504  0.13525826  1
  O  O430  1  0.16886721  0.50527461  0.46664719  1
  O  O431  1  0.16819303  0.49884353  0.80907595  1
  O  O432  1  0.67133171  0.01243795  0.14131694  1
  O  O433  1  0.66762952  0.00996654  0.47416144  1
  O  O434  1  0.66727135  0.01115398  0.80780225  1
  O  O435  1  0.66875971  0.50894214  0.13462315  1
  O  O436  1  0.66180718  0.50994716  0.46726645  1
  O  O437  1  0.65998971  0.51164597  0.79899546  1
  O  O438  1  0.01003583  0.16563808  0.30338011  1
  O  O439  1  0.00972778  0.17008343  0.63638132  1
  O  O440  1  0.00274458  0.16953252  0.96885873  1
  O  O441  1  0.00380691  0.65897933  0.30083287  1
  O  O442  1  -0.00304832  0.67121633  0.64166836  1
  O  O443  1  0.00797737  0.66124398  0.96439473  1
  O  O444  1  0.51145844  0.17030205  0.30673104  1
  O  O445  1  0.51314682  0.17361444  0.64077418  1
  O  O446  1  0.50921343  0.16951776  0.97329193  1
  O  O447  1  0.50724015  0.66446420  0.30349316  1
  O  O448  1  0.50725950  0.67255739  0.63750597  1
  O  O449  1  0.50257881  0.66026076  0.96861052  1
  O  O450  1  0.33398677  0.48772273  0.19712569  1
  O  O451  1  0.33065793  0.48814450  0.53129148  1
  O  O452  1  0.33950477  0.49414141  0.86470325  1
  O  O453  1  0.34120212  0.99190138  0.19423379  1
  O  O454  1  0.33550163  0.99231436  0.53454078  1
  O  O455  1  0.32281580  0.98430896  0.86425277  1
  O  O456  1  0.83415431  0.49403609  0.20152918  1
  O  O457  1  0.82371129  0.49634949  0.52935211  1
  O  O458  1  0.82992224  0.50237598  0.85611290  1
  O  O459  1  0.83728713  0.99300179  0.19869427  1
  O  O460  1  0.83211082  0.99098112  0.53113876  1
  O  O461  1  0.83099481  0.99155605  0.86618192  1
