# generated using pymatgen
data_Na31Fe20(SO4)36
_symmetry_space_group_name_H-M   'P 1'
_cell_length_a   18.07248139
_cell_length_b   18.07901942
_cell_length_c   19.70152399
_cell_angle_alpha   107.60359129
_cell_angle_beta   107.58638998
_cell_angle_gamma   90.70804051
_symmetry_Int_Tables_number   1
_chemical_formula_structural   Na31Fe20(SO4)36
_chemical_formula_sum   'Na62 Fe40 S72 O288'
_cell_volume   5810.68331472
_cell_formula_units_Z   2
loop_
 _symmetry_equiv_pos_site_id
 _symmetry_equiv_pos_as_xyz
  1  'x, y, z'
loop_
 _atom_site_type_symbol
 _atom_site_label
 _atom_site_symmetry_multiplicity
 _atom_site_fract_x
 _atom_site_fract_y
 _atom_site_fract_z
 _atom_site_occupancy
  Na  Na0  1  0.14365137  0.36886417  0.08712944  1
  Na  Na1  1  0.13701094  0.36666597  0.41444946  1
  Na  Na2  1  0.12455596  0.36764649  0.74670846  1
  Na  Na3  1  0.14695630  0.86594387  0.09843595  1
  Na  Na4  1  0.15287148  0.86254192  0.43053829  1
  Na  Na5  1  0.12533632  0.85328064  0.73792653  1
  Na  Na6  1  0.62405874  0.36858163  0.07616823  1
  Na  Na7  1  0.63326481  0.36591741  0.42441160  1
  Na  Na8  1  0.65128910  0.36036164  0.75677721  1
  Na  Na9  1  0.63375002  0.86863749  0.08622007  1
  Na  Na10  1  0.63189242  0.86290895  0.41187298  1
  Na  Na11  1  0.63045148  0.86977952  0.74898734  1
  Na  Na12  1  0.35093623  0.15666141  0.27632478  1
  Na  Na13  1  0.35371478  0.12673853  0.56235176  1
  Na  Na14  1  0.36134261  0.12942496  0.91066009  1
  Na  Na15  1  0.36243752  0.63284361  0.24135554  1
  Na  Na16  1  0.36164288  0.63389735  0.58024379  1
  Na  Na17  1  0.36942876  0.63179323  0.91957168  1
  Na  Na18  1  0.87016506  0.13194301  0.25142711  1
  Na  Na19  1  0.86925377  0.13484768  0.58905058  1
  Na  Na20  1  0.86130319  0.13918919  0.90981478  1
  Na  Na21  1  0.86663164  0.63619885  0.25430104  1
  Na  Na22  1  0.86831622  0.63358156  0.57865663  1
  Na  Na23  1  0.87365411  0.63585390  0.91786194  1
  Na  Na24  1  0.48953568  0.50345956  0.41406254  1
  Na  Na25  1  1.02334985  0.49524768  0.07784218  1
  Na  Na26  1  0.98867320  0.02083728  0.74841009  1
  Na  Na27  1  1.00563401  -0.01556841  0.11320315  1
  Na  Na28  1  0.99817472  0.54734283  0.43358654  1
  Na  Na29  1  0.48380551  0.49860366  0.76767423  1
  Na  Na30  1  0.45626044  -0.00200766  0.41616554  1
  Na  Na31  1  1.05211935  -0.02176622  0.35608502  1
  Na  Na32  1  0.48891053  0.00791011  0.08753902  1
  Na  Na33  1  0.50489306  0.44083973  0.56854433  1
  Na  Na34  1  0.49281530  0.99642334  0.60848018  1
  Na  Na35  1  0.01223105  0.98077895  0.92107727  1
  Na  Na36  1  0.03201505  0.48649710  0.90046985  1
  Na  Na37  1  0.50869527  0.99352670  0.90247953  1
  Na  Na38  1  0.51240171  0.49771371  0.23974388  1
  Na  Na39  1  0.46014729  1.02140918  0.27027432  1
  Na  Na40  1  -0.04236723  0.51603477  0.67510495  1
  Na  Na41  1  0.01541802  0.98889254  0.56450945  1
  Na  Na42  1  0.75259750  0.75106219  0.66307537  1
  Na  Na43  1  0.25064096  0.25248730  -0.00079890  1
  Na  Na44  1  0.25595187  0.24984366  0.65554987  1
  Na  Na45  1  0.22136617  0.72208966  0.00300416  1
  Na  Na46  1  0.23935390  0.74372651  0.65769040  1
  Na  Na47  1  0.75897595  0.26340702  -0.01597127  1
  Na  Na48  1  0.74649847  0.74837723  0.00369807  1
  Na  Na49  1  0.24124203  0.74281796  0.34304883  1
  Na  Na50  1  0.75301410  0.25578247  0.33033728  1
  Na  Na51  1  0.77802705  0.27318102  0.67126464  1
  Na  Na52  1  0.73943488  0.74048686  0.18181043  1
  Na  Na53  1  0.76412935  0.26645670  0.50004472  1
  Na  Na54  1  0.24575251  0.25290813  0.82986677  1
  Na  Na55  1  0.23062903  0.73517117  0.83786325  1
  Na  Na56  1  0.24583171  0.24655783  0.17659127  1
  Na  Na57  1  0.23951254  0.73784547  0.17430749  1
  Na  Na58  1  0.75756434  0.75518765  0.83376227  1
  Na  Na59  1  0.75830674  0.75776136  0.48572031  1
  Na  Na60  1  0.26374624  0.24706236  0.46082845  1
  Na  Na61  1  0.75462486  0.25941957  0.15839392  1
  Fe  Fe62  1  0.46376472  0.81177002  0.12045082  1
  Fe  Fe63  1  0.96562158  0.31238057  0.45597592  1
  Fe  Fe64  1  0.46349082  0.80260919  0.78231721  1
  Fe  Fe65  1  0.96698037  0.31136247  0.12132754  1
  Fe  Fe66  1  0.46353459  0.30658014  0.11821407  1
  Fe  Fe67  1  0.97039236  0.79648569  0.78888113  1
  Fe  Fe68  1  0.96631630  0.80495229  0.12191621  1
  Fe  Fe69  1  0.46549357  0.30544950  0.78880102  1
  Fe  Fe70  1  0.96687148  0.79932916  0.45535877  1
  Fe  Fe71  1  0.46509570  0.80356906  0.45107188  1
  Fe  Fe72  1  0.69146862  0.03432385  0.38144996  1
  Fe  Fe73  1  0.69005794  0.53495462  0.04509348  1
  Fe  Fe74  1  0.69960637  0.53266889  0.71022291  1
  Fe  Fe75  1  0.69277107  0.03787098  0.05062297  1
  Fe  Fe76  1  0.69371966  0.53329344  0.38278744  1
  Fe  Fe77  1  0.19346097  0.03375818  0.71359349  1
  Fe  Fe78  1  0.69189228  0.03950143  0.71645307  1
  Fe  Fe79  1  0.18949476  0.53738241  0.38126697  1
  Fe  Fe80  1  0.19366741  0.03465580  0.05163697  1
  Fe  Fe81  1  0.18402600  0.53311726  0.70631794  1
  Fe  Fe82  1  0.53322975  0.69390589  0.54914453  1
  Fe  Fe83  1  0.03433219  0.68900789  0.21284458  1
  Fe  Fe84  1  0.03090610  0.20328176  0.87721584  1
  Fe  Fe85  1  0.53122411  0.19735186  0.21959680  1
  Fe  Fe86  1  0.03690715  0.19556612  0.21619901  1
  Fe  Fe87  1  0.53557343  0.69375387  0.88059965  1
  Fe  Fe88  1  0.53702291  0.69172205  0.21216672  1
  Fe  Fe89  1  0.03510673  0.18731322  0.54159689  1
  Fe  Fe90  1  0.53554643  0.19918786  0.54774888  1
  Fe  Fe91  1  0.53608822  0.19186447  0.87959859  1
  Fe  Fe92  1  0.30577443  0.96370073  0.94933145  1
  Fe  Fe93  1  0.81266540  0.96188687  0.29068754  1
  Fe  Fe94  1  0.80322796  0.96701374  0.61954563  1
  Fe  Fe95  1  0.80857640  0.46551846  0.95074101  1
  Fe  Fe96  1  0.30468166  0.96278538  0.61634510  1
  Fe  Fe97  1  0.30512041  0.46807397  0.95825286  1
  Fe  Fe98  1  0.80668771  0.46606341  0.28625488  1
  Fe  Fe99  1  0.30702294  0.46065500  0.61525154  1
  Fe  Fe100  1  0.80822516  0.97034963  0.95667445  1
  Fe  Fe101  1  0.30657852  0.46545176  0.28473755  1
  S  S102  1  0.36095448  0.13807574  0.08184144  1
  S  S103  1  0.37068347  0.13620195  0.41829081  1
  S  S104  1  0.36165699  0.13695677  0.74959689  1
  S  S105  1  0.36304630  0.64322395  0.08122903  1
  S  S106  1  0.36034806  0.63893660  0.41506853  1
  S  S107  1  0.35964065  0.63582105  0.74975191  1
  S  S108  1  0.85800627  0.14473124  0.08442480  1
  S  S109  1  0.85639771  0.13814871  0.41620747  1
  S  S110  1  0.85977754  0.13922105  0.75113011  1
  S  S111  1  0.85557192  0.64241069  0.08594826  1
  S  S112  1  0.85544109  0.64011548  0.41480114  1
  S  S113  1  0.85322518  0.64708824  0.74810791  1
  S  S114  1  0.14057989  0.36178248  0.24909564  1
  S  S115  1  0.14397758  0.35420010  0.57948814  1
  S  S116  1  0.14428554  0.35935394  0.91985264  1
  S  S117  1  0.14121127  0.85426363  0.24912443  1
  S  S118  1  0.13769791  0.86074893  0.58422661  1
  S  S119  1  0.14157064  0.86039242  0.91541928  1
  S  S120  1  0.63909906  0.36001913  0.24776353  1
  S  S121  1  0.64750092  0.35692165  0.59192516  1
  S  S122  1  0.63914270  0.36166780  0.91669317  1
  S  S123  1  0.64020451  0.86137006  0.24906764  1
  S  S124  1  0.63771840  0.86132494  0.58452638  1
  S  S125  1  0.63934509  0.86310783  0.91750841  1
  S  S126  1  0.06748800  0.17354447  0.04087930  1
  S  S127  1  0.06562469  0.17672833  0.37751379  1
  S  S128  1  0.06703524  0.16057264  0.70452586  1
  S  S129  1  0.05628948  0.66809075  0.04147732  1
  S  S130  1  0.06639907  0.67066485  0.37463708  1
  S  S131  1  0.06324024  0.66822413  0.70379307  1
  S  S132  1  0.56419442  0.16746273  0.04132953  1
  S  S133  1  0.57429903  0.17071323  0.37762226  1
  S  S134  1  0.57012528  0.17304099  0.71202413  1
  S  S135  1  0.57245950  0.67559907  0.04389619  1
  S  S136  1  0.56556139  0.66738272  0.37437858  1
  S  S137  1  0.57094304  0.67107334  0.71134560  1
  S  S138  1  0.33525683  0.43366918  0.12507233  1
  S  S139  1  0.33266787  0.43874818  0.45545240  1
  S  S140  1  0.32721268  0.42754703  0.79104587  1
  S  S141  1  0.33028761  0.93460306  0.11983886  1
  S  S142  1  0.34065267  0.92594298  0.46232842  1
  S  S143  1  0.32816925  0.92825070  0.78749046  1
  S  S144  1  0.82392333  0.43154940  0.12050591  1
  S  S145  1  0.82792522  0.43470253  0.45536586  1
  S  S146  1  0.83700180  0.44684969  0.79635071  1
  S  S147  1  0.82606626  0.93262638  0.12433142  1
  S  S148  1  0.82807534  0.93027487  0.45868006  1
  S  S149  1  0.82837332  0.93326569  0.79304996  1
  S  S150  1  0.43752938  0.33629536  0.29060159  1
  S  S151  1  0.43318544  0.32809525  0.62757037  1
  S  S152  1  0.42585716  0.32418511  0.95397511  1
  S  S153  1  0.43609269  0.82842265  0.28762461  1
  S  S154  1  0.43033425  0.82615625  0.62581785  1
  S  S155  1  0.43313033  0.83194703  0.95451121  1
  S  S156  1  0.93117035  0.32997804  0.28954882  1
  S  S157  1  0.93600551  0.32239943  0.61619203  1
  S  S158  1  0.93588705  0.33334486  0.96252235  1
  S  S159  1  0.93218777  0.82670461  0.29235382  1
  S  S160  1  0.92645511  0.83318622  0.62650066  1
  S  S161  1  0.93449454  0.84371119  0.96518118  1
  S  S162  1  0.16734478  0.07200233  0.20488805  1
  S  S163  1  0.16913624  0.06310766  0.54091620  1
  S  S164  1  0.16813614  0.06788740  0.87575742  1
  S  S165  1  0.17207745  0.56500227  0.21064627  1
  S  S166  1  0.17254431  0.56174687  0.54408223  1
  S  S167  1  0.17481198  0.56251384  0.87325622  1
  S  S168  1  0.66708523  0.07018977  0.21007416  1
  S  S169  1  0.67101008  0.07169638  0.54556514  1
  S  S170  1  0.66955706  0.06792348  0.87912276  1
  S  S171  1  0.66946016  0.56594252  0.20832065  1
  S  S172  1  0.66274313  0.56723064  0.54062704  1
  S  S173  1  0.67218406  0.57100703  0.87409931  1
  O  O174  1  0.36974761  0.21611532  0.07197914  1
  O  O175  1  0.37636235  0.21454615  0.41111794  1
  O  O176  1  0.36811849  0.21668365  0.74236012  1
  O  O177  1  0.37828184  0.71878148  0.06718818  1
  O  O178  1  0.37139494  0.71560146  0.40283730  1
  O  O179  1  0.36906943  0.71434578  0.74070830  1
  O  O180  1  0.86558101  0.22612378  0.08143835  1
  O  O181  1  0.86320725  0.21751117  0.40846783  1
  O  O182  1  0.86719557  0.21369377  0.73937776  1
  O  O183  1  0.86426836  0.72264653  0.07967840  1
  O  O184  1  0.86421047  0.71991507  0.40912634  1
  O  O185  1  0.86280782  0.73164249  0.74988125  1
  O  O186  1  0.28147300  0.12975461  0.08794385  1
  O  O187  1  0.29830729  0.12049850  0.43330626  1
  O  O188  1  0.28422350  0.12728890  0.76170195  1
  O  O189  1  0.28623512  0.64176890  0.09150790  1
  O  O190  1  0.28122607  0.63208541  0.42112091  1
  O  O191  1  0.28083486  0.62666654  0.75696885  1
  O  O192  1  0.77924123  0.13355042  0.09354925  1
  O  O193  1  0.77874504  0.12860532  0.42745719  1
  O  O194  1  0.78401331  0.12530303  0.76378102  1
  O  O195  1  0.77539034  0.63319755  0.09252621  1
  O  O196  1  0.77455906  0.63008147  0.42018051  1
  O  O197  1  0.76803079  0.63754194  0.74591100  1
  O  O198  1  0.13195052  0.28177359  0.25364666  1
  O  O199  1  0.13369000  0.27486950  0.58633621  1
  O  O200  1  0.13387004  0.27603198  0.92087860  1
  O  O201  1  0.13127496  0.76980771  0.24806647  1
  O  O202  1  0.12821395  0.78572180  0.59484105  1
  O  O203  1  0.13759257  0.78376154  0.92469158  1
  O  O204  1  0.62909331  0.28101792  0.25540338  1
  O  O205  1  0.62841097  0.28144685  0.60507322  1
  O  O206  1  0.62816524  0.28378289  0.92752583  1
  O  O207  1  0.63336012  0.78125890  0.25422873  1
  O  O208  1  0.62856380  0.78465948  0.59740940  1
  O  O209  1  0.63095791  0.78415623  0.92542741  1
  O  O210  1  0.21891597  0.37155334  0.23863134  1
  O  O211  1  0.22374270  0.36162918  0.57141020  1
  O  O212  1  0.22931011  0.36677760  0.92216815  1
  O  O213  1  0.21216368  0.86368147  0.23010000  1
  O  O214  1  0.21513297  0.87257702  0.57355640  1
  O  O215  1  0.21784287  0.87374390  0.90202123  1
  O  O216  1  0.71883980  0.36727090  0.24085497  1
  O  O217  1  0.72811513  0.35843292  0.59118049  1
  O  O218  1  0.71926653  0.36969718  0.91157203  1
  O  O219  1  0.71821917  0.87321847  0.23905695  1
  O  O220  1  0.71800514  0.86959038  0.57927853  1
  O  O221  1  0.71805557  0.87276887  0.90948314  1
  O  O222  1  0.41987212  0.13058532  0.15035890  1
  O  O223  1  0.43647696  0.12913132  0.48761796  1
  O  O224  1  0.42248875  0.12950439  0.81697483  1
  O  O225  1  0.42342740  0.63492094  0.14878455  1
  O  O226  1  0.41842136  0.63360324  0.48523315  1
  O  O227  1  0.41960524  0.62964519  0.81905441  1
  O  O228  1  0.91793679  0.13300725  0.14955745  1
  O  O229  1  0.91727812  0.12716959  0.48093368  1
  O  O230  1  0.92250364  0.13172243  0.81873922  1
  O  O231  1  0.91310791  0.63364026  0.15385547  1
  O  O232  1  0.91311043  0.62933281  0.48005321  1
  O  O233  1  0.90533241  0.63661980  0.81569242  1
  O  O234  1  0.37111206  0.07794784  0.01469195  1
  O  O235  1  0.38331671  0.07736033  0.35269082  1
  O  O236  1  0.36744521  0.07890347  0.68039873  1
  O  O237  1  0.36744228  0.57990570  0.01344676  1
  O  O238  1  0.37269586  0.57737404  0.35005677  1
  O  O239  1  0.37065543  0.57576931  0.68381802  1
  O  O240  1  0.86246787  0.08971278  0.01299519  1
  O  O241  1  0.85968119  0.08010101  0.34513521  1
  O  O242  1  0.86879757  0.07519827  0.68466432  1
  O  O243  1  0.86259590  0.58473118  0.01733804  1
  O  O244  1  0.86260335  0.58210153  0.34472896  1
  O  O245  1  0.86224870  0.59620146  0.67825750  1
  O  O246  1  0.08098081  0.37147525  0.18214517  1
  O  O247  1  0.08580948  0.36500487  0.51280116  1
  O  O248  1  0.09366446  0.36875159  0.85029747  1
  O  O249  1  0.07375294  0.86945273  0.18839542  1
  O  O250  1  0.07660747  0.87011479  0.51672283  1
  O  O251  1  0.07917994  0.86851744  0.84808398  1
  O  O252  1  0.58138209  0.36818122  0.17887385  1
  O  O253  1  0.59251486  0.36537931  0.52344611  1
  O  O254  1  0.58164395  0.36711970  0.84703774  1
  O  O255  1  0.57977343  0.87111918  0.18236408  1
  O  O256  1  0.58121001  0.86362127  0.51311919  1
  O  O257  1  0.57914281  0.87149398  0.85000151  1
  O  O258  1  0.13450839  0.41880003  0.31844546  1
  O  O259  1  0.13875219  0.41214134  0.64915782  1
  O  O260  1  0.13099053  0.41346080  0.98610147  1
  O  O261  1  0.14156333  0.90405664  0.32320701  1
  O  O262  1  0.13016715  0.92389889  0.65174401  1
  O  O263  1  0.13273773  0.92188620  0.98256490  1
  O  O264  1  0.62970275  0.41974880  0.31462902  1
  O  O265  1  0.63747066  0.42071307  0.65851247  1
  O  O266  1  0.62969692  0.42201552  0.98319853  1
  O  O267  1  0.63412981  0.91842294  0.31891471  1
  O  O268  1  0.62609944  0.92389591  0.64894997  1
  O  O269  1  0.63070483  0.92216937  0.98559021  1
  O  O270  1  0.02924120  0.20232119  0.10088237  1
  O  O271  1  0.02348499  0.20773492  0.43511736  1
  O  O272  1  0.03416251  0.18490471  0.76646546  1
  O  O273  1  0.02170513  0.70094193  0.10640111  1
  O  O274  1  0.02876600  0.70023553  0.43338182  1
  O  O275  1  0.03291966  0.70032271  0.76844847  1
  O  O276  1  0.52954386  0.19846541  0.10314540  1
  O  O277  1  0.55030824  0.19891210  0.44461616  1
  O  O278  1  0.53091745  0.20120742  0.77206851  1
  O  O279  1  0.53679220  0.70625784  0.10490870  1
  O  O280  1  0.53021459  0.69776358  0.43634044  1
  O  O281  1  0.53227109  0.69886612  0.77186258  1
  O  O282  1  0.31218472  0.46961935  0.06541732  1
  O  O283  1  0.29405409  0.47475468  0.39495701  1
  O  O284  1  0.30123776  0.46474036  0.73065546  1
  O  O285  1  0.29776407  0.96661166  0.05445143  1
  O  O286  1  0.32399455  0.95354644  0.39862557  1
  O  O287  1  0.30084782  0.96620025  0.72772492  1
  O  O288  1  0.79547060  0.47059027  0.06097695  1
  O  O289  1  0.79423957  0.46702353  0.38959827  1
  O  O290  1  0.80141816  0.48622376  0.73870554  1
  O  O291  1  0.79919803  0.97358744  0.06575372  1
  O  O292  1  0.79895368  0.96664737  0.39704107  1
  O  O293  1  0.79522406  0.96714643  0.73081218  1
  O  O294  1  0.46832288  0.30025668  0.22427495  1
  O  O295  1  0.47077994  0.30196215  0.56876530  1
  O  O296  1  0.46609084  0.29685299  0.89522507  1
  O  O297  1  0.47429544  0.79382566  0.22752663  1
  O  O298  1  0.46617482  0.79526761  0.56397746  1
  O  O299  1  0.47056289  0.80049640  0.89394449  1
  O  O300  1  0.96933926  0.30047788  0.22931821  1
  O  O301  1  0.97296587  0.28603159  0.55351204  1
  O  O302  1  0.97075620  0.30467582  0.90233757  1
  O  O303  1  0.96866717  0.79553983  0.23182807  1
  O  O304  1  0.95999914  0.81354419  0.56495468  1
  O  O305  1  0.96732620  0.82221931  0.90337895  1
  O  O306  1  0.19469460  0.04479897  0.26810244  1
  O  O307  1  0.20291631  0.03350251  0.60760357  1
  O  O308  1  0.19997304  0.03430015  0.93845247  1
  O  O309  1  0.20329584  0.53248391  0.27542920  1
  O  O310  1  0.20728291  0.52233781  0.60383356  1
  O  O311  1  0.20772638  0.52219504  0.93053259  1
  O  O312  1  0.69523408  0.03374837  0.27025002  1
  O  O313  1  0.70020481  0.03249726  0.60549189  1
  O  O314  1  0.70018654  0.03045684  0.93989276  1
  O  O315  1  0.69853766  0.52771692  0.26821294  1
  O  O316  1  0.68244511  0.53089678  0.60038731  1
  O  O317  1  0.69948848  0.53365437  0.93450463  1
  O  O318  1  0.08400037  0.09093926  0.03263683  1
  O  O319  1  0.08872406  0.10113988  0.38044499  1
  O  O320  1  0.08175177  0.07548159  0.69309041  1
  O  O321  1  0.06660385  0.58575473  0.03487040  1
  O  O322  1  0.08669021  0.59035673  0.37544518  1
  O  O323  1  0.08384104  0.58691688  0.70356575  1
  O  O324  1  0.57983715  0.08436174  0.03582274  1
  O  O325  1  0.58754959  0.08578778  0.36289926  1
  O  O326  1  0.58622110  0.09031365  0.70695393  1
  O  O327  1  0.59317591  0.59637844  0.04097618  1
  O  O328  1  0.58270068  0.58493718  0.36941578  1
  O  O329  1  0.59419269  0.59209046  0.70835358  1
  O  O330  1  0.41775339  0.41374395  0.13571636  1
  O  O331  1  0.41378340  0.43044052  0.45569087  1
  O  O332  1  0.40890954  0.40848610  0.79641633  1
  O  O333  1  0.41358743  0.91847791  0.12286200  1
  O  O334  1  0.42736237  0.91112337  0.48359646  1
  O  O335  1  0.40987227  0.90916009  0.79474679  1
  O  O336  1  0.90323597  0.41029420  0.12341585  1
  O  O337  1  0.90498424  0.40901736  0.45054409  1
  O  O338  1  0.91750600  0.43677111  0.79945103  1
  O  O339  1  0.90565528  0.91070381  0.12781868  1
  O  O340  1  0.90701013  0.90669549  0.46098499  1
  O  O341  1  0.90987033  0.91647637  0.79786943  1
  O  O342  1  0.41792209  0.41714622  0.28964168  1
  O  O343  1  0.41530027  0.41138141  0.63356859  1
  O  O344  1  0.40176428  0.40207072  0.95677305  1
  O  O345  1  0.42533388  0.90926260  0.29074225  1
  O  O346  1  0.41178741  0.90702734  0.63004302  1
  O  O347  1  0.41896889  0.91507539  0.95926780  1
  O  O348  1  0.91002414  0.40954793  0.29213339  1
  O  O349  1  0.90815162  0.39450178  0.60443244  1
  O  O350  1  0.91482401  0.41464997  0.96800278  1
  O  O351  1  0.91719826  0.90946620  0.29664115  1
  O  O352  1  0.90858349  0.91716237  0.64200801  1
  O  O353  1  0.91799468  0.92891618  0.97889671  1
  O  O354  1  0.08442859  0.09400534  0.19382059  1
  O  O355  1  0.08857400  0.08442268  0.54083299  1
  O  O356  1  0.08635694  0.08493665  0.87092746  1
  O  O357  1  0.09204523  0.58712567  0.20803896  1
  O  O358  1  0.09432432  0.57766027  0.54464060  1
  O  O359  1  0.09747209  0.58166119  0.87506088  1
  O  O360  1  0.58540471  0.09015625  0.20327598  1
  O  O361  1  0.59034998  0.09047631  0.54205255  1
  O  O362  1  0.58818418  0.08475434  0.87694143  1
  O  O363  1  0.58900138  0.58607716  0.20749461  1
  O  O364  1  0.57971488  0.58739948  0.52772622  1
  O  O365  1  0.58972737  0.58839304  0.86651658  1
  O  O366  1  0.14069221  0.22487969  0.06067362  1
  O  O367  1  0.13256387  0.23371201  0.39290799  1
  O  O368  1  0.14019208  0.20953584  0.71995358  1
  O  O369  1  0.13249964  0.71699756  0.06466746  1
  O  O370  1  0.13631777  0.72214554  0.38716043  1
  O  O371  1  0.13714198  0.71776074  0.71861322  1
  O  O372  1  0.63603705  0.21732797  0.05571158  1
  O  O373  1  0.64493769  0.21934788  0.38517333  1
  O  O374  1  0.64173265  0.22329459  0.73065371  1
  O  O375  1  0.64241879  0.72989590  0.05904125  1
  O  O376  1  0.63575484  0.71912978  0.38925137  1
  O  O377  1  0.63793850  0.72895817  0.72837921  1
  O  O378  1  0.28271738  0.36218356  0.10825814  1
  O  O379  1  0.28613048  0.36547814  0.44145707  1
  O  O380  1  0.27430588  0.35588825  0.77304660  1
  O  O381  1  0.28235880  0.86128781  0.10443681  1
  O  O382  1  0.29090605  0.85504200  0.45083027  1
  O  O383  1  0.27498900  0.85821950  0.77093481  1
  O  O384  1  0.76807062  0.36141813  0.10152179  1
  O  O385  1  0.77258240  0.36546775  0.44079956  1
  O  O386  1  0.78735369  0.37346590  0.77897999  1
  O  O387  1  0.77033180  0.86343434  0.10476503  1
  O  O388  1  0.77157974  0.86428649  0.44578968  1
  O  O389  1  0.77577040  0.86302778  0.77932290  1
  O  O390  1  0.36640659  0.28663510  0.27761866  1
  O  O391  1  0.36160322  0.27644462  0.61054832  1
  O  O392  1  0.35831389  0.26624827  0.93641399  1
  O  O393  1  0.36368952  0.77817963  0.27086625  1
  O  O394  1  0.36169712  0.77433645  0.61445131  1
  O  O395  1  0.36075818  0.78233133  0.93715188  1
  O  O396  1  0.86052926  0.27509292  0.27147841  1
  O  O397  1  0.86858495  0.26481137  0.60197075  1
  O  O398  1  0.86771928  0.28014762  0.95173184  1
  O  O399  1  0.85947874  0.77761914  0.27595195  1
  O  O400  1  0.85402356  0.78040338  0.60687941  1
  O  O401  1  0.86227869  0.79301984  0.94950667  1
  O  O402  1  0.21776926  0.13854030  0.20670657  1
  O  O403  1  0.22016728  0.13304149  0.55265465  1
  O  O404  1  0.21997292  0.13880572  0.88977677  1
  O  O405  1  0.22656850  0.63505845  0.22662488  1
  O  O406  1  0.22647867  0.63163719  0.56101221  1
  O  O407  1  0.22967477  0.63371066  0.89109035  1
  O  O408  1  0.72051251  0.13977072  0.22412241  1
  O  O409  1  0.72503537  0.14122379  0.56247457  1
  O  O410  1  0.72044055  0.13924121  0.89563202  1
  O  O411  1  0.72230712  0.63548938  0.22371572  1
  O  O412  1  0.71641253  0.63733494  0.55750464  1
  O  O413  1  0.72388385  0.64350711  0.89271651  1
  O  O414  1  0.48568543  0.32780761  0.02698840  1
  O  O415  1  0.50054239  0.34368902  0.35971677  1
  O  O416  1  0.49123755  0.33380728  0.70228089  1
  O  O417  1  0.49179704  0.83439721  0.02752538  1
  O  O418  1  0.49284925  0.82862284  0.36171079  1
  O  O419  1  0.49334557  0.83035681  0.69783926  1
  O  O420  1  0.99728531  0.34175670  0.03746997  1
  O  O421  1  0.98955935  0.33286461  0.36211305  1
  O  O422  1  0.99558816  0.33310132  0.68802974  1
  O  O423  1  0.99429224  0.84370170  0.03719956  1
  O  O424  1  0.99068572  0.82936626  0.36526319  1
  O  O425  1  0.98540277  0.82919786  0.69677829  1
  O  O426  1  0.15787990  0.00582952  0.13079931  1
  O  O427  1  0.16150366  -0.00090917  0.47202710  1
  O  O428  1  0.16609099  0.00765548  0.80362234  1
  O  O429  1  0.16584647  0.50374506  0.14036498  1
  O  O430  1  0.17031077  0.50436188  0.46981991  1
  O  O431  1  0.17161464  0.50663820  0.79781353  1
  O  O432  1  0.66283989  0.00993282  0.13652898  1
  O  O433  1  0.66789922  0.01151915  0.47276478  1
  O  O434  1  0.66677526  0.00942885  0.80620662  1
  O  O435  1  0.66348618  0.50683929  0.13456780  1
  O  O436  1  0.66287955  0.50685427  0.46880865  1
  O  O437  1  0.67208968  0.51306178  0.80186589  1
  O  O438  1  0.00664374  0.17019905  0.30232260  1
  O  O439  1  0.00806287  0.16180554  0.63319843  1
  O  O440  1  0.00999796  0.17486517  0.96892551  1
  O  O441  1  0.00696312  0.66239748  0.29980521  1
  O  O442  1  0.00342938  0.66231323  0.63320095  1
  O  O443  1  0.00136315  0.67655990  0.97385709  1
  O  O444  1  0.50848596  0.17181832  0.30881808  1
  O  O445  1  0.51079171  0.17017498  0.63919702  1
  O  O446  1  0.50488678  0.16453654  0.96843652  1
  O  O447  1  0.50571797  0.66309115  0.30134877  1
  O  O448  1  0.51012871  0.66647320  0.63893336  1
  O  O449  1  0.51263440  0.67220098  0.97088450  1
  O  O450  1  0.33479291  0.49315364  0.19687617  1
  O  O451  1  0.33536232  0.49519039  0.53057050  1
  O  O452  1  0.32964748  0.48533758  0.86422476  1
  O  O453  1  0.33325043  0.99655788  0.18848171  1
  O  O454  1  0.33744935  0.98905742  0.53264848  1
  O  O455  1  0.33117134  0.98890217  0.86030167  1
  O  O456  1  0.82616686  0.48923375  0.19357209  1
  O  O457  1  0.83600648  0.49673923  0.52487695  1
  O  O458  1  0.83507762  0.50129778  0.87150538  1
  O  O459  1  0.82876655  0.99041560  0.19756510  1
  O  O460  1  0.83545481  0.99257874  0.53161346  1
  O  O461  1  0.83128108  0.99409297  0.86564147  1
