# generated using pymatgen
data_Na31Fe20(SO4)36
_symmetry_space_group_name_H-M   'P 1'
_cell_length_a   18.08990319
_cell_length_b   18.07827826
_cell_length_c   19.71973377
_cell_angle_alpha   107.55482902
_cell_angle_beta   107.57808176
_cell_angle_gamma   90.72375315
_symmetry_Int_Tables_number   1
_chemical_formula_structural   Na31Fe20(SO4)36
_chemical_formula_sum   'Na62 Fe40 S72 O288'
_cell_volume   5823.29305175
_cell_formula_units_Z   2
loop_
 _symmetry_equiv_pos_site_id
 _symmetry_equiv_pos_as_xyz
  1  'x, y, z'
loop_
 _atom_site_type_symbol
 _atom_site_label
 _atom_site_symmetry_multiplicity
 _atom_site_fract_x
 _atom_site_fract_y
 _atom_site_fract_z
 _atom_site_occupancy
  Na  Na0  1  0.13086354  0.36686829  0.08329433  1
  Na  Na1  1  0.12777316  0.36660214  0.41713429  1
  Na  Na2  1  0.13295992  0.36638678  0.74965815  1
  Na  Na3  1  0.13472924  0.86254519  0.08238476  1
  Na  Na4  1  0.13726895  0.87062175  0.41544697  1
  Na  Na5  1  0.13449281  0.86338256  0.74807048  1
  Na  Na6  1  0.65921402  0.36232280  0.08364093  1
  Na  Na7  1  0.62985598  0.34159893  0.38486681  1
  Na  Na8  1  0.64691330  0.37970039  0.77130632  1
  Na  Na9  1  0.62587974  0.84885800  0.06729542  1
  Na  Na10  1  0.61747406  0.87517664  0.41605934  1
  Na  Na11  1  0.65747060  0.87095871  0.77838319  1
  Na  Na12  1  0.38157801  0.12404602  0.25233231  1
  Na  Na13  1  0.36487934  0.12437711  0.57274315  1
  Na  Na14  1  0.37195283  0.12921069  0.91654311  1
  Na  Na15  1  0.36107848  0.63864931  0.24813434  1
  Na  Na16  1  0.36557170  0.63082610  0.57789782  1
  Na  Na17  1  0.37934133  0.64961999  0.93361217  1
  Na  Na18  1  0.85985877  0.13463186  0.25204783  1
  Na  Na19  1  0.86456238  0.13129942  0.58093737  1
  Na  Na20  1  0.85558419  0.13955602  0.92439918  1
  Na  Na21  1  0.85457362  0.63196743  0.23150491  1
  Na  Na22  1  0.87100331  0.63042253  0.58113751  1
  Na  Na23  1  0.85467172  0.63879057  0.91377211  1
  Na  Na24  1  0.49233103  0.55268682  0.76295007  1
  Na  Na25  1  0.99186236  0.51128692  0.73769719  1
  Na  Na26  1  0.94892610  0.50196197  0.07536798  1
  Na  Na27  1  0.52129305  0.49124652  0.06910269  1
  Na  Na28  1  0.49639660  0.52740983  0.41098568  1
  Na  Na29  1  0.99338960  0.00771820  0.73575647  1
  Na  Na30  1  0.99870747  0.00616580  0.43176085  1
  Na  Na31  1  0.95203848  0.00424379  0.07563173  1
  Na  Na32  1  0.51464122  -0.03952730  0.13465034  1
  Na  Na33  1  0.50612195  0.95167165  0.57425000  1
  Na  Na34  1  0.58774122  0.51996910  0.94493897  1
  Na  Na35  1  0.51626794  0.48825706  0.23551158  1
  Na  Na36  1  0.03416198  0.99195061  0.26179872  1
  Na  Na37  1  -0.00872797  1.00322233  0.91950123  1
  Na  Na38  1  -0.00566605  0.49843672  0.27505774  1
  Na  Na39  1  -0.02270711  0.51076154  0.92343489  1
  Na  Na40  1  0.51101736  0.47969439  0.58290791  1
  Na  Na41  1  0.52496897  0.99396568  0.91102725  1
  Na  Na42  1  0.74375644  0.25059755  0.67330474  1
  Na  Na43  1  0.24826379  0.24530617  0.66646593  1
  Na  Na44  1  0.26300218  0.76238192  0.32111382  1
  Na  Na45  1  0.74261118  0.74602246  0.68323667  1
  Na  Na46  1  0.75264711  0.76387858  -0.02448122  1
  Na  Na47  1  0.24856466  0.24490346  0.00204283  1
  Na  Na48  1  0.24237954  0.23402739  0.33955218  1
  Na  Na49  1  0.25761735  0.75383015  0.65918245  1
  Na  Na50  1  0.25586586  0.75186049  0.00868049  1
  Na  Na51  1  0.74390639  0.74884103  0.33053792  1
  Na  Na52  1  0.74895292  0.74509369  0.15919107  1
  Na  Na53  1  0.24864040  0.24785062  0.83352849  1
  Na  Na54  1  0.26504698  0.76225329  0.48669254  1
  Na  Na55  1  0.75771398  0.25761269  0.48692656  1
  Na  Na56  1  0.23978324  0.23673987  0.50384663  1
  Na  Na57  1  0.74123631  0.24938801  0.85104445  1
  Na  Na58  1  0.25161640  0.24796010  0.17189595  1
  Na  Na59  1  0.25839562  0.75640492  0.83446545  1
  Na  Na60  1  0.74867824  0.74706038  0.50432636  1
  Na  Na61  1  0.73442129  0.23901704  0.17891854  1
  Fe  Fe62  1  0.96206492  0.31216040  0.78711508  1
  Fe  Fe63  1  0.46844804  0.30147836  0.44726331  1
  Fe  Fe64  1  0.46444134  0.30704867  0.78574473  1
  Fe  Fe65  1  0.95946037  0.31068688  0.45314954  1
  Fe  Fe66  1  0.46743229  0.80065687  0.79335567  1
  Fe  Fe67  1  0.97011264  0.80736692  0.11663858  1
  Fe  Fe68  1  0.96433707  0.81083839  0.78526079  1
  Fe  Fe69  1  0.96694456  0.80743790  0.45330215  1
  Fe  Fe70  1  0.47242858  0.29494162  0.12087972  1
  Fe  Fe71  1  0.96323819  0.30846790  0.12036428  1
  Fe  Fe72  1  0.19063758  0.03392562  0.71201424  1
  Fe  Fe73  1  0.18984581  0.03672577  0.04933123  1
  Fe  Fe74  1  0.69344191  0.53766822  0.37744320  1
  Fe  Fe75  1  0.70138665  0.03167062  0.04718486  1
  Fe  Fe76  1  0.19163772  0.53127697  0.04827239  1
  Fe  Fe77  1  0.69535724  0.03311037  0.71581821  1
  Fe  Fe78  1  0.69226611  0.54024645  0.71251501  1
  Fe  Fe79  1  0.19260887  0.53235643  0.38229572  1
  Fe  Fe80  1  0.18946501  0.53476154  0.71188661  1
  Fe  Fe81  1  0.68645680  0.03720497  0.37545237  1
  Fe  Fe82  1  0.52998169  0.70307019  0.54215289  1
  Fe  Fe83  1  0.03197505  0.19293291  0.21861125  1
  Fe  Fe84  1  0.52048408  0.71295348  0.20939762  1
  Fe  Fe85  1  0.03305786  0.19396611  0.88134389  1
  Fe  Fe86  1  0.53740863  0.18506482  0.54241611  1
  Fe  Fe87  1  0.53572748  0.18652939  0.87568331  1
  Fe  Fe88  1  0.03365663  0.19452385  0.54945188  1
  Fe  Fe89  1  0.04004086  0.69170375  0.21384867  1
  Fe  Fe90  1  0.03578241  0.69368446  0.88207063  1
  Fe  Fe91  1  0.03934185  0.68925022  0.54675980  1
  Fe  Fe92  1  0.30721263  0.46341474  0.62058252  1
  Fe  Fe93  1  0.30283159  0.96686933  0.29211589  1
  Fe  Fe94  1  0.30812142  0.46173242  0.95304298  1
  Fe  Fe95  1  0.30458103  0.46373269  0.28478218  1
  Fe  Fe96  1  0.80890762  0.96408589  0.61724024  1
  Fe  Fe97  1  0.80428434  0.46467528  0.61322511  1
  Fe  Fe98  1  0.80732999  0.46870451  0.28520232  1
  Fe  Fe99  1  0.30808987  0.96801659  0.95911551  1
  Fe  Fe100  1  0.30796641  0.96574902  0.61915626  1
  Fe  Fe101  1  0.80840640  0.96185786  0.28770428  1
  S  S102  1  0.35283246  0.14139909  0.08191289  1
  S  S103  1  0.35945401  0.14079700  0.41425313  1
  S  S104  1  0.35854111  0.13991560  0.74835492  1
  S  S105  1  0.36028267  0.62904310  0.08383447  1
  S  S106  1  0.35685582  0.63783547  0.41498895  1
  S  S107  1  0.35309391  0.64014999  0.74766584  1
  S  S108  1  0.86096028  0.14303188  0.08605156  1
  S  S109  1  0.86017169  0.13830531  0.42040996  1
  S  S110  1  0.86031548  0.14227513  0.74895319  1
  S  S111  1  0.86752940  0.64481628  0.08094379  1
  S  S112  1  0.86355173  0.64189993  0.41814616  1
  S  S113  1  0.86275426  0.64019949  0.74455437  1
  S  S114  1  0.13898894  0.35692164  0.25239394  1
  S  S115  1  0.13962445  0.35969533  0.58380851  1
  S  S116  1  0.13935317  0.35956754  0.91439188  1
  S  S117  1  0.13971606  0.85904408  0.25059134  1
  S  S118  1  0.14175533  0.85817228  0.58296674  1
  S  S119  1  0.13924071  0.86171411  0.91555045  1
  S  S120  1  0.63882577  0.36492842  0.24435939  1
  S  S121  1  0.63891264  0.35952846  0.58232113  1
  S  S122  1  0.63335186  0.35787627  0.91549279  1
  S  S123  1  0.64370986  0.86131484  0.25255600  1
  S  S124  1  0.64821869  0.85799423  0.58779313  1
  S  S125  1  0.63547239  0.86244897  0.91965419  1
  S  S126  1  0.06503999  0.17157926  0.04282678  1
  S  S127  1  0.05764348  0.16904344  0.37995403  1
  S  S128  1  0.06615873  0.17190905  0.71168334  1
  S  S129  1  0.07078185  0.66674629  0.03839780  1
  S  S130  1  0.07045302  0.67185454  0.37737189  1
  S  S131  1  0.06874212  0.67200922  0.71206938  1
  S  S132  1  0.56907385  0.16689229  0.04026633  1
  S  S133  1  0.56877648  0.16917709  0.37834646  1
  S  S134  1  0.56930453  0.17014519  0.70712481  1
  S  S135  1  0.56400410  0.67016418  0.05184107  1
  S  S136  1  0.56953239  0.67185612  0.37186063  1
  S  S137  1  0.56262898  0.67198345  0.70156923  1
  S  S138  1  0.32749907  0.42402039  0.12318189  1
  S  S139  1  0.32853303  0.42685228  0.45631550  1
  S  S140  1  0.32628087  0.43078214  0.78895090  1
  S  S141  1  0.31909747  0.93504628  0.12452844  1
  S  S142  1  0.32768719  0.93223560  0.45505082  1
  S  S143  1  0.32660815  0.93108157  0.79064215  1
  S  S144  1  0.84332569  0.43403271  0.13376841  1
  S  S145  1  0.82406429  0.43146543  0.45425061  1
  S  S146  1  0.83433253  0.43982777  0.78612336  1
  S  S147  1  0.83532492  0.93118375  0.12921987  1
  S  S148  1  0.83419658  0.93105045  0.45794931  1
  S  S149  1  0.84092700  0.94184532  0.79087820  1
  S  S150  1  0.43310742  0.33909177  0.29272660  1
  S  S151  1  0.43158488  0.33092724  0.62337137  1
  S  S152  1  0.42829497  0.32218574  0.95608979  1
  S  S153  1  0.42633074  0.83126086  0.29226527  1
  S  S154  1  0.42968868  0.82723142  0.62781500  1
  S  S155  1  0.42791426  0.83749677  0.95969458  1
  S  S156  1  0.93090569  0.32921006  0.29218740  1
  S  S157  1  0.93185037  0.32970294  0.62291141  1
  S  S158  1  0.93718746  0.33199532  0.95535524  1
  S  S159  1  0.93661519  0.82981972  0.29203467  1
  S  S160  1  0.93564630  0.82737298  0.62176395  1
  S  S161  1  0.93926267  0.83227090  0.95500096  1
  S  S162  1  0.16499442  0.06476282  0.20795006  1
  S  S163  1  0.16709099  0.06599289  0.54474170  1
  S  S164  1  0.16290001  0.06612058  0.87249561  1
  S  S165  1  0.16687607  0.56283064  0.21003002  1
  S  S166  1  0.17180824  0.56535756  0.54403667  1
  S  S167  1  0.16954000  0.56771197  0.87532310  1
  S  S168  1  0.67479916  0.06243462  0.21006239  1
  S  S169  1  0.67502967  0.06664403  0.54650851  1
  S  S170  1  0.67103943  0.07011863  0.87455592  1
  S  S171  1  0.66971031  0.56739733  0.20861681  1
  S  S172  1  0.66869746  0.57017088  0.53980952  1
  S  S173  1  0.67467252  0.57490388  0.87050660  1
  O  O174  1  0.36739188  0.22178637  0.07755677  1
  O  O175  1  0.37563551  0.21562626  0.39926774  1
  O  O176  1  0.36718840  0.22029633  0.74226682  1
  O  O177  1  0.36018974  0.69831972  0.06120147  1
  O  O178  1  0.35982022  0.71635500  0.40997477  1
  O  O179  1  0.36612776  0.71921119  0.73981879  1
  O  O180  1  0.87120170  0.22253300  0.08045585  1
  O  O181  1  0.86600628  0.21899334  0.41676590  1
  O  O182  1  0.87026222  0.22097669  0.73987520  1
  O  O183  1  0.87750226  0.72525447  0.07305363  1
  O  O184  1  0.87017846  0.72072922  0.40844691  1
  O  O185  1  0.87411516  0.71825226  0.73496149  1
  O  O186  1  0.26882561  0.13745782  0.08197079  1
  O  O187  1  0.28288699  0.14114711  0.42471498  1
  O  O188  1  0.27944540  0.13149873  0.75742340  1
  O  O189  1  0.28464114  0.61336859  0.09599469  1
  O  O190  1  0.28193649  0.62181692  0.42953345  1
  O  O191  1  0.27006270  0.63341960  0.74699418  1
  O  O192  1  0.78324704  0.13289619  0.09614704  1
  O  O193  1  0.78321468  0.12520029  0.43102527  1
  O  O194  1  0.77968297  0.13346460  0.75241256  1
  O  O195  1  0.79309373  0.63551342  0.09320327  1
  O  O196  1  0.78561275  0.63261863  0.42872773  1
  O  O197  1  0.78126829  0.63172735  0.74460484  1
  O  O198  1  0.13037873  0.27937505  0.26411825  1
  O  O199  1  0.13186079  0.28022044  0.59248214  1
  O  O200  1  0.13349940  0.28046339  0.92321812  1
  O  O201  1  0.13262677  0.77764814  0.25497783  1
  O  O202  1  0.13300594  0.77942564  0.59247652  1
  O  O203  1  0.13275572  0.78260668  0.92394407  1
  O  O204  1  0.63238038  0.28896900  0.25411346  1
  O  O205  1  0.62909995  0.28223578  0.59289904  1
  O  O206  1  0.62259282  0.27572622  0.91687620  1
  O  O207  1  0.62345219  0.78225249  0.25952583  1
  O  O208  1  0.63600218  0.77621835  0.58930501  1
  O  O209  1  0.62268934  0.79096396  0.93666423  1
  O  O210  1  0.21906201  0.36591372  0.24714103  1
  O  O211  1  0.21904031  0.36730100  0.57554275  1
  O  O212  1  0.21734476  0.36951496  0.90421382  1
  O  O213  1  0.22109937  0.87194221  0.24872514  1
  O  O214  1  0.22142387  0.86685745  0.57632560  1
  O  O215  1  0.21799058  0.87332461  0.90810332  1
  O  O216  1  0.71666830  0.37884480  0.23487384  1
  O  O217  1  0.71764530  0.36678890  0.57347457  1
  O  O218  1  0.70707878  0.36925501  0.90195376  1
  O  O219  1  0.72708480  0.85968355  0.25275941  1
  O  O220  1  0.72950240  0.86489686  0.58324445  1
  O  O221  1  0.71003595  0.86971614  0.90641067  1
  O  O222  1  0.40510397  0.12822314  0.14758282  1
  O  O223  1  0.41979107  0.13264005  0.48114909  1
  O  O224  1  0.41726344  0.13052226  0.81514550  1
  O  O225  1  0.42171779  0.63626492  0.15798025  1
  O  O226  1  0.42164494  0.62724959  0.47876371  1
  O  O227  1  0.40586050  0.63061740  0.81582569  1
  O  O228  1  0.92052428  0.13387207  0.15525694  1
  O  O229  1  0.92188145  0.12829924  0.48696061  1
  O  O230  1  0.91686121  0.13572884  0.81882010  1
  O  O231  1  0.93024339  0.63907474  0.15099370  1
  O  O232  1  0.92318419  0.63701651  0.48701149  1
  O  O233  1  0.91810097  0.63330310  0.81504985  1
  O  O234  1  0.35709910  0.08525456  0.01022049  1
  O  O235  1  0.36118512  0.07689028  0.34521741  1
  O  O236  1  0.36394837  0.08319877  0.67852810  1
  O  O237  1  0.37745267  0.56161096  0.02642261  1
  O  O238  1  0.36218422  0.57915063  0.34456759  1
  O  O239  1  0.36433283  0.58089243  0.68008101  1
  O  O240  1  0.87056326  0.08473272  0.02010042  1
  O  O241  1  0.86923240  0.08177840  0.35189112  1
  O  O242  1  0.87310795  0.08261061  0.68327860  1
  O  O243  1  0.87992647  0.58729681  0.01581003  1
  O  O244  1  0.87155852  0.58264588  0.35097585  1
  O  O245  1  0.87622849  0.57924140  0.67977162  1
  O  O246  1  0.08257091  0.36074892  0.18170364  1
  O  O247  1  0.08091659  0.36705029  0.51640084  1
  O  O248  1  0.07984716  0.36673896  0.84661288  1
  O  O249  1  0.08444467  0.86485908  0.17887732  1
  O  O250  1  0.08392192  0.86438580  0.51408561  1
  O  O251  1  0.08057142  0.86788921  0.84622263  1
  O  O252  1  0.57812503  0.37248950  0.17566341  1
  O  O253  1  0.57926254  0.36785624  0.51433863  1
  O  O254  1  0.56938991  0.36984398  0.84968198  1
  O  O255  1  0.59369221  0.87356224  0.18488850  1
  O  O256  1  0.59206046  0.87211800  0.52347334  1
  O  O257  1  0.57136118  0.86790569  0.85015892  1
  O  O258  1  0.12757876  0.41819878  0.31759030  1
  O  O259  1  0.13293189  0.41785233  0.65270360  1
  O  O260  1  0.13145107  0.41802435  0.98249210  1
  O  O261  1  0.12391123  0.91486410  0.31408322  1
  O  O262  1  0.13321131  0.91718229  0.65065572  1
  O  O263  1  0.12827329  0.92061434  0.98188884  1
  O  O264  1  0.62797028  0.42737228  0.31040392  1
  O  O265  1  0.63102101  0.42138262  0.64890935  1
  O  O266  1  0.62542142  0.41257404  0.98473252  1
  O  O267  1  0.63859600  0.91980759  0.32226147  1
  O  O268  1  0.64215087  0.91320809  0.65915511  1
  O  O269  1  0.62669028  0.93042361  0.98302550  1
  O  O270  1  0.03084934  0.20000636  0.10503747  1
  O  O271  1  0.02436030  0.20950063  0.44194924  1
  O  O272  1  0.03132368  0.20348204  0.77359476  1
  O  O273  1  0.04042941  0.70174114  0.10232001  1
  O  O274  1  0.03335001  0.70138544  0.43796999  1
  O  O275  1  0.03191636  0.70309679  0.77259628  1
  O  O276  1  0.52666029  0.19204136  0.09540299  1
  O  O277  1  0.53671652  0.20284728  0.44455528  1
  O  O278  1  0.52809429  0.19664200  0.76474445  1
  O  O279  1  0.52729233  0.70595756  0.11284916  1
  O  O280  1  0.53279487  0.69258142  0.43136640  1
  O  O281  1  0.52425870  0.69724467  0.76053840  1
  O  O282  1  0.29218133  0.45310067  0.05811592  1
  O  O283  1  0.29864810  0.46302924  0.39526368  1
  O  O284  1  0.29569076  0.47027246  0.72969579  1
  O  O285  1  0.29005415  0.97811472  0.06653417  1
  O  O286  1  0.30203662  0.97071645  0.39534713  1
  O  O287  1  0.29939650  0.96823162  0.72933121  1
  O  O288  1  0.82149879  0.46300842  0.07051904  1
  O  O289  1  0.79633848  0.46914900  0.39392735  1
  O  O290  1  0.80069344  0.46907236  0.71961154  1
  O  O291  1  0.80672972  0.96847027  0.07046199  1
  O  O292  1  0.80435983  0.96734237  0.39760736  1
  O  O293  1  0.80520083  0.97356259  0.72638873  1
  O  O294  1  0.46687350  0.31737035  0.23149689  1
  O  O295  1  0.46529061  0.30204924  0.56086182  1
  O  O296  1  0.46099568  0.29192052  0.89303108  1
  O  O297  1  0.46038223  0.80357887  0.22806141  1
  O  O298  1  0.47305141  0.80445562  0.57298975  1
  O  O299  1  0.44967942  0.80548011  0.89002564  1
  O  O300  1  0.97106880  0.30047500  0.23343818  1
  O  O301  1  0.96986735  0.29953502  0.56310377  1
  O  O302  1  0.97550541  0.29654750  0.89516391  1
  O  O303  1  0.97363278  0.80372008  0.23158207  1
  O  O304  1  0.97375903  0.79899294  0.56197469  1
  O  O305  1  0.97234370  0.79422927  0.89152583  1
  O  O306  1  0.19822660  0.02738169  0.26626527  1
  O  O307  1  0.20090324  0.03267996  0.60873219  1
  O  O308  1  0.19227058  0.03160939  0.93383893  1
  O  O309  1  0.19742360  0.52459268  0.27034180  1
  O  O310  1  0.20064856  0.52541515  0.60280738  1
  O  O311  1  0.20069312  0.53246339  0.93679207  1
  O  O312  1  0.71043495  0.02572351  0.27260195  1
  O  O313  1  0.70452611  0.02610633  0.60539388  1
  O  O314  1  0.69756979  0.04105006  0.93868625  1
  O  O315  1  0.70772550  0.54194851  0.27796881  1
  O  O316  1  0.69643331  0.52944620  0.59784192  1
  O  O317  1  0.70741849  0.54209181  0.93054354  1
  O  O318  1  0.08311115  0.08952809  0.03548927  1
  O  O319  1  0.06481356  0.08808355  0.37909267  1
  O  O320  1  0.08440230  0.09104561  0.70894895  1
  O  O321  1  0.08566720  0.58422546  0.03509365  1
  O  O322  1  0.09045903  0.59113259  0.37453703  1
  O  O323  1  0.08553167  0.59060927  0.70991225  1
  O  O324  1  0.59313648  0.08747047  0.03673407  1
  O  O325  1  0.58713402  0.08904816  0.37794879  1
  O  O326  1  0.59005115  0.08957852  0.70067025  1
  O  O327  1  0.58359535  0.59214294  0.05628107  1
  O  O328  1  0.58187091  0.58608683  0.35640045  1
  O  O329  1  0.57973260  0.58841187  0.69404648  1
  O  O330  1  0.40830955  0.40633858  0.12630105  1
  O  O331  1  0.41033764  0.40924257  0.46234752  1
  O  O332  1  0.40497954  0.40992737  0.78893977  1
  O  O333  1  0.39809453  0.91904010  0.12946658  1
  O  O334  1  0.40735088  0.91376011  0.46642568  1
  O  O335  1  0.40740557  0.91117204  0.79895612  1
  O  O336  1  0.92979817  0.41865671  0.14930822  1
  O  O337  1  0.90360796  0.41018108  0.45882978  1
  O  O338  1  0.91626979  0.41977469  0.78752106  1
  O  O339  1  0.91906599  0.91567649  0.13431010  1
  O  O340  1  0.91602637  0.91406837  0.46166499  1
  O  O341  1  0.92220876  0.92216640  0.78856111  1
  O  O342  1  0.41518260  0.42328269  0.30606411  1
  O  O343  1  0.41618798  0.41462013  0.63044984  1
  O  O344  1  0.41114944  0.40428130  0.96278339  1
  O  O345  1  0.39126275  0.90566454  0.28581618  1
  O  O346  1  0.40965864  0.90827692  0.63201892  1
  O  O347  1  0.40820452  0.91969788  0.96514933  1
  O  O348  1  0.91245571  0.41016860  0.29650069  1
  O  O349  1  0.91271044  0.41036666  0.62628864  1
  O  O350  1  0.92695129  0.41268510  0.95651064  1
  O  O351  1  0.91989278  0.91283048  0.30190301  1
  O  O352  1  0.91534768  0.90801856  0.62627525  1
  O  O353  1  0.93292248  0.91432547  0.95879171  1
  O  O354  1  0.08419338  0.08369613  0.20988942  1
  O  O355  1  0.09054499  0.09423088  0.55004066  1
  O  O356  1  0.07979889  0.08279287  0.86635880  1
  O  O357  1  0.08516320  0.57925539  0.20560731  1
  O  O358  1  0.09347675  0.58793295  0.54319837  1
  O  O359  1  0.08668429  0.58375628  0.86921581  1
  O  O360  1  0.59491836  0.07418871  0.20788425  1
  O  O361  1  0.59424933  0.08325730  0.54315711  1
  O  O362  1  0.58611241  0.08181562  0.85972170  1
  O  O363  1  0.58867282  0.58518636  0.20754741  1
  O  O364  1  0.58774428  0.58951160  0.53578499  1
  O  O365  1  0.59288558  0.58958685  0.86426224  1
  O  O366  1  0.13521743  0.22435362  0.05742896  1
  O  O367  1  0.13268894  0.21477324  0.39422976  1
  O  O368  1  0.13797492  0.22324414  0.72661919  1
  O  O369  1  0.14031334  0.71419086  0.04499463  1
  O  O370  1  0.14039350  0.72473298  0.39254228  1
  O  O371  1  0.14038319  0.72336009  0.72832192  1
  O  O372  1  0.63701779  0.22374852  0.05840289  1
  O  O373  1  0.64099825  0.21964569  0.39485720  1
  O  O374  1  0.63955911  0.22600722  0.72787670  1
  O  O375  1  0.63523873  0.72222063  0.06786195  1
  O  O376  1  0.64434009  0.72075076  0.39344100  1
  O  O377  1  0.63398628  0.72332356  0.71916159  1
  O  O378  1  0.27610761  0.35444699  0.11400647  1
  O  O379  1  0.27594956  0.35622707  0.44087310  1
  O  O380  1  0.27170691  0.36007837  0.77106296  1
  O  O381  1  0.26435856  0.86451511  0.10181558  1
  O  O382  1  0.27105948  0.86167400  0.43381535  1
  O  O383  1  0.27208381  0.85987335  0.77116519  1
  O  O384  1  0.79556364  0.36408476  0.12609901  1
  O  O385  1  0.76906050  0.36389900  0.44021942  1
  O  O386  1  0.78473032  0.36886997  0.77509836  1
  O  O387  1  0.78610082  0.85827306  0.11330320  1
  O  O388  1  0.78327651  0.85979003  0.44375344  1
  O  O389  1  0.79277607  0.87033409  0.77955803  1
  O  O390  1  0.36225600  0.28706867  0.27718987  1
  O  O391  1  0.35863098  0.28119808  0.60788836  1
  O  O392  1  0.35594380  0.27107792  0.94085823  1
  O  O393  1  0.36344021  0.77130668  0.27983008  1
  O  O394  1  0.35740503  0.77217296  0.60287225  1
  O  O395  1  0.35722601  0.78720475  0.95059172  1
  O  O396  1  0.86094701  0.27618496  0.27510267  1
  O  O397  1  0.86122578  0.27678449  0.60625883  1
  O  O398  1  0.86482583  0.28237825  0.93806095  1
  O  O399  1  0.86541338  0.77720043  0.27413914  1
  O  O400  1  0.86634287  0.77311016  0.60539685  1
  O  O401  1  0.86579674  0.78695688  0.94172732  1
  O  O402  1  0.21477981  0.13690008  0.22090446  1
  O  O403  1  0.22265080  0.13377541  0.55663552  1
  O  O404  1  0.21308082  0.13797438  0.88662573  1
  O  O405  1  0.21839422  0.63371779  0.22710916  1
  O  O406  1  0.22734555  0.63388667  0.56020871  1
  O  O407  1  0.21977460  0.63924387  0.88952702  1
  O  O408  1  0.72544896  0.13439562  0.22658351  1
  O  O409  1  0.72737752  0.13934807  0.56787189  1
  O  O410  1  0.71883462  0.14236371  0.88613558  1
  O  O411  1  0.71922660  0.63882297  0.21915829  1
  O  O412  1  0.72385199  0.64034128  0.55987480  1
  O  O413  1  0.72268164  0.64569326  0.87742425  1
  O  O414  1  0.48819464  0.32361798  0.02735898  1
  O  O415  1  0.49381293  0.33850656  0.36386595  1
  O  O416  1  0.49049020  0.33078129  0.69465839  1
  O  O417  1  0.49259637  0.84217033  0.02677780  1
  O  O418  1  0.48854224  0.84764094  0.36308071  1
  O  O419  1  0.48109719  0.82742133  0.70280328  1
  O  O420  1  0.99321388  0.33274868  0.02962603  1
  O  O421  1  0.98988027  0.33231993  0.36537320  1
  O  O422  1  0.99134393  0.33307274  0.69571513  1
  O  O423  1  0.99853432  0.83004268  0.02667286  1
  O  O424  1  0.99544799  0.82973356  0.36428156  1
  O  O425  1  0.99527644  0.83141541  0.69475943  1
  O  O426  1  0.15497969  0.00799963  0.13189383  1
  O  O427  1  0.15239050  0.00407397  0.47357343  1
  O  O428  1  0.15984826  0.00683263  0.79945636  1
  O  O429  1  0.16496644  0.50375548  0.13737748  1
  O  O430  1  0.16662571  0.50596648  0.47046719  1
  O  O431  1  0.16622636  0.50761407  0.80254554  1
  O  O432  1  0.67679861  0.00335934  0.13826102  1
  O  O433  1  0.67601328  0.01128693  0.47390119  1
  O  O434  1  0.67671375  0.00834622  0.80550814  1
  O  O435  1  0.66644680  0.50169330  0.14241100  1
  O  O436  1  0.66403890  0.51340758  0.46518202  1
  O  O437  1  0.67098066  0.51268009  0.79556161  1
  O  O438  1  0.00127103  0.16993539  0.30687409  1
  O  O439  1  0.00660954  0.17071050  0.64032441  1
  O  O440  1  0.00462650  0.16812857  0.97024569  1
  O  O441  1  0.01064433  0.66620051  0.30422062  1
  O  O442  1  0.01115351  0.66917176  0.63897157  1
  O  O443  1  0.00639435  0.66007810  0.96620286  1
  O  O444  1  0.50843814  0.16962704  0.31075199  1
  O  O445  1  0.51169486  0.16917649  0.63384147  1
  O  O446  1  0.51157701  0.15844435  0.96326909  1
  O  O447  1  0.51385682  0.68022160  0.30128798  1
  O  O448  1  0.50465136  0.66885525  0.62760201  1
  O  O449  1  0.50723921  0.66303439  0.97902525  1
  O  O450  1  0.33113503  0.48735835  0.19404906  1
  O  O451  1  0.33112206  0.48701251  0.52873883  1
  O  O452  1  0.33010488  0.48818096  0.86247142  1
  O  O453  1  0.31486947  0.99066219  0.19779053  1
  O  O454  1  0.32120353  0.98979723  0.52637926  1
  O  O455  1  0.32369480  0.99041593  0.86100103  1
  O  O456  1  0.84551813  0.49838883  0.20565215  1
  O  O457  1  0.82813713  0.49293497  0.52709762  1
  O  O458  1  0.84230259  0.50299897  0.85521825  1
  O  O459  1  0.84022082  0.98861157  0.20396851  1
  O  O460  1  0.83721115  0.99033883  0.53095049  1
  O  O461  1  0.85123252  1.00398298  0.86158262  1
