# generated using pymatgen
data_Na31Fe20(SO4)36
_symmetry_space_group_name_H-M   'P 1'
_cell_length_a   18.07074162
_cell_length_b   18.07300556
_cell_length_c   19.71357243
_cell_angle_alpha   107.61443838
_cell_angle_beta   107.59298696
_cell_angle_gamma   90.73690773
_symmetry_Int_Tables_number   1
_chemical_formula_structural   Na31Fe20(SO4)36
_chemical_formula_sum   'Na62 Fe40 S72 O288'
_cell_volume   5810.73553880
_cell_formula_units_Z   2
loop_
 _symmetry_equiv_pos_site_id
 _symmetry_equiv_pos_as_xyz
  1  'x, y, z'
loop_
 _atom_site_type_symbol
 _atom_site_label
 _atom_site_symmetry_multiplicity
 _atom_site_fract_x
 _atom_site_fract_y
 _atom_site_fract_z
 _atom_site_occupancy
  Na  Na0  1  0.13531085  0.35405787  0.07553472  1
  Na  Na1  1  0.13526442  0.36715814  0.41934165  1
  Na  Na2  1  0.12369849  0.36898723  0.74783273  1
  Na  Na3  1  0.13089374  0.86525061  0.07907033  1
  Na  Na4  1  0.13968395  0.86749882  0.41241470  1
  Na  Na5  1  0.13206425  0.86530539  0.75207017  1
  Na  Na6  1  0.63298073  0.36323238  0.07753465  1
  Na  Na7  1  0.64379083  0.37171643  0.42140777  1
  Na  Na8  1  0.62923808  0.35815626  0.74236402  1
  Na  Na9  1  0.64126138  0.86102079  0.08600212  1
  Na  Na10  1  0.63310380  0.86816575  0.41697307  1
  Na  Na11  1  0.62855905  0.88103595  0.75724426  1
  Na  Na12  1  0.36738515  0.13797600  0.25342612  1
  Na  Na13  1  0.36300937  0.13316603  0.58072675  1
  Na  Na14  1  0.35601837  0.13676892  0.91680195  1
  Na  Na15  1  0.36261208  0.64080397  0.25550579  1
  Na  Na16  1  0.36547006  0.63147285  0.57868143  1
  Na  Na17  1  0.36381846  0.63387858  0.91526236  1
  Na  Na18  1  0.86634322  0.13263851  0.24580148  1
  Na  Na19  1  0.87098953  0.14545196  0.58942462  1
  Na  Na20  1  0.86098661  0.13092981  0.91243994  1
  Na  Na21  1  0.86198639  0.63422123  0.24532830  1
  Na  Na22  1  0.86491505  0.63444425  0.58157839  1
  Na  Na23  1  0.86841804  0.62679530  0.91260603  1
  Na  Na24  1  1.00710351  0.05472599  0.43267284  1
  Na  Na25  1  0.97940646  0.50892046  0.42066205  1
  Na  Na26  1  0.49084378  0.51109327  0.75255399  1
  Na  Na27  1  0.48619979  0.51092019  0.08789676  1
  Na  Na28  1  0.47720902  0.03927691  0.47656427  1
  Na  Na29  1  1.00322807  -0.04229631  0.84437112  1
  Na  Na30  1  0.94892921  0.01530594  0.04582313  1
  Na  Na31  1  0.50016256  0.50854618  0.41904594  1
  Na  Na32  1  0.99840605  0.49535977  0.07036183  1
  Na  Na33  1  0.51325881  0.48187171  0.58281812  1
  Na  Na34  1  0.50784529  0.48335091  0.91822585  1
  Na  Na35  1  0.00535323  0.47806399  0.60425236  1
  Na  Na36  1  0.47069903  1.01102455  0.94995404  1
  Na  Na37  1  0.00343031  0.44595579  0.23387554  1
  Na  Na38  1  -0.00195550  1.00927401  0.59558042  1
  Na  Na39  1  0.04980814  0.99730550  0.25210900  1
  Na  Na40  1  0.54366969  0.48804882  0.26323718  1
  Na  Na41  1  0.50559380  0.99484877  0.24609918  1
  Na  Na42  1  0.25706259  0.76322292  -0.00338113  1
  Na  Na43  1  0.73163221  0.23472510  0.67817759  1
  Na  Na44  1  0.77561882  0.77412549  0.66869399  1
  Na  Na45  1  0.23016591  0.23686826  0.67220808  1
  Na  Na46  1  0.26086116  0.76055316  0.66167203  1
  Na  Na47  1  0.75996351  0.75767514  -0.00232899  1
  Na  Na48  1  0.23910737  0.23854030  0.33731614  1
  Na  Na49  1  0.76512266  0.26218425  -0.01259237  1
  Na  Na50  1  0.75972971  0.75514900  0.32182271  1
  Na  Na51  1  0.75130148  0.25047851  0.33255279  1
  Na  Na52  1  0.76165413  0.26029808  0.15769733  1
  Na  Na53  1  0.77202602  0.77598429  0.82979285  1
  Na  Na54  1  0.22659322  0.22487869  0.50307475  1
  Na  Na55  1  0.25930958  0.25125134  0.15582899  1
  Na  Na56  1  0.74684659  0.74436920  0.49630041  1
  Na  Na57  1  0.23287763  0.23968274  0.84686657  1
  Na  Na58  1  0.73726555  0.24179949  0.50785442  1
  Na  Na59  1  0.24206581  0.74486354  0.17834417  1
  Na  Na60  1  0.26104662  0.76307486  0.82940386  1
  Na  Na61  1  0.26005582  0.75819116  0.48330312  1
  Fe  Fe62  1  0.46806086  0.81049733  0.79242341  1
  Fe  Fe63  1  0.96938519  0.80670567  0.45131635  1
  Fe  Fe64  1  0.46556739  0.81046682  0.45490472  1
  Fe  Fe65  1  0.96694993  0.30424824  0.45842646  1
  Fe  Fe66  1  0.46436640  0.30321959  0.77949282  1
  Fe  Fe67  1  0.47088698  0.29913350  0.45090662  1
  Fe  Fe68  1  0.96545832  0.80818324  0.12025255  1
  Fe  Fe69  1  0.46374326  0.30603063  0.11593007  1
  Fe  Fe70  1  0.96125635  0.31138618  0.78915776  1
  Fe  Fe71  1  0.46365521  0.80853115  0.11982080  1
  Fe  Fe72  1  0.19522894  0.53637848  0.71560138  1
  Fe  Fe73  1  0.19971435  0.02712899  0.03551861  1
  Fe  Fe74  1  0.69999389  0.02794438  0.04221839  1
  Fe  Fe75  1  0.68955631  0.53993699  0.05045876  1
  Fe  Fe76  1  0.69312486  0.53627154  0.71851266  1
  Fe  Fe77  1  0.19240319  0.53320230  0.37750602  1
  Fe  Fe78  1  0.18890501  0.53564909  0.04466014  1
  Fe  Fe79  1  0.69450498  0.03394970  0.38051424  1
  Fe  Fe80  1  0.68745415  0.03965243  0.71257388  1
  Fe  Fe81  1  0.19446431  0.03240001  0.71438536  1
  Fe  Fe82  1  0.53762731  0.69416062  0.55183335  1
  Fe  Fe83  1  0.03572066  0.69127101  0.21383529  1
  Fe  Fe84  1  0.53615184  0.18265909  0.20422718  1
  Fe  Fe85  1  0.03146317  0.69505815  0.87616567  1
  Fe  Fe86  1  0.03471172  0.69458378  0.54916756  1
  Fe  Fe87  1  0.02884356  0.19764222  0.20258906  1
  Fe  Fe88  1  0.53384913  0.69564723  0.21940205  1
  Fe  Fe89  1  0.53533241  0.69170911  0.88629069  1
  Fe  Fe90  1  0.53527093  0.18617444  0.87372040  1
  Fe  Fe91  1  0.03401377  0.18960587  0.87837207  1
  Fe  Fe92  1  0.31340765  0.96594022  0.62217663  1
  Fe  Fe93  1  0.80582020  0.46235023  0.95186034  1
  Fe  Fe94  1  0.81047602  0.96306245  0.28605152  1
  Fe  Fe95  1  0.30335777  0.46563743  0.95068712  1
  Fe  Fe96  1  0.31100374  0.46374820  0.28322833  1
  Fe  Fe97  1  0.80673611  0.47102158  0.62293044  1
  Fe  Fe98  1  0.30578277  0.46710045  0.61516178  1
  Fe  Fe99  1  0.81136931  0.96569425  0.62327492  1
  Fe  Fe100  1  0.30148028  0.97107036  0.29097630  1
  Fe  Fe101  1  0.79884658  0.46908571  0.28780502  1
  S  S102  1  0.36251289  0.14035469  0.08073375  1
  S  S103  1  0.35488454  0.14710117  0.41293816  1
  S  S104  1  0.35675329  0.14489741  0.75077886  1
  S  S105  1  0.35869854  0.63992137  0.08469012  1
  S  S106  1  0.36230365  0.63768085  0.41770617  1
  S  S107  1  0.36190427  0.63938002  0.74998350  1
  S  S108  1  0.85164890  0.14731371  0.08418410  1
  S  S109  1  0.85768353  0.14054371  0.41844550  1
  S  S110  1  0.85857198  0.14210365  0.74679664  1
  S  S111  1  0.85925896  0.64010047  0.08343870  1
  S  S112  1  0.86102938  0.64085736  0.41587058  1
  S  S113  1  0.85693902  0.64192750  0.75341296  1
  S  S114  1  0.14633774  0.35790549  0.24780166  1
  S  S115  1  0.14276157  0.36192902  0.58241201  1
  S  S116  1  0.13831472  0.36169883  0.91569969  1
  S  S117  1  0.14030816  0.85719572  0.24929226  1
  S  S118  1  0.14369906  0.85579354  0.58254384  1
  S  S119  1  0.14342533  0.85470906  0.91691056  1
  S  S120  1  0.64052946  0.35205467  0.24494326  1
  S  S121  1  0.64116503  0.36383100  0.58209587  1
  S  S122  1  0.63542823  0.36122782  0.91664788  1
  S  S123  1  0.64101551  0.85919243  0.25156806  1
  S  S124  1  0.64159750  0.85913368  0.58501352  1
  S  S125  1  0.64269766  0.85383156  0.92096073  1
  S  S126  1  0.07266720  0.16232445  0.03800636  1
  S  S127  1  0.06259516  0.17548929  0.36977185  1
  S  S128  1  0.06610815  0.17120940  0.71220842  1
  S  S129  1  0.06674033  0.66849769  0.04224548  1
  S  S130  1  0.06744428  0.66288172  0.37279371  1
  S  S131  1  0.07146339  0.66773576  0.70901784  1
  S  S132  1  0.56965178  0.17089440  0.04142841  1
  S  S133  1  0.57118286  0.17080844  0.37093979  1
  S  S134  1  0.55963301  0.16869784  0.70479599  1
  S  S135  1  0.56206841  0.66565682  0.04314409  1
  S  S136  1  0.56026484  0.66964445  0.37796820  1
  S  S137  1  0.56673229  0.66722926  0.71184167  1
  S  S138  1  0.33420856  0.43522752  0.12592599  1
  S  S139  1  0.33442178  0.43254399  0.45424958  1
  S  S140  1  0.33041977  0.43352290  0.78967218  1
  S  S141  1  0.32766003  0.93392148  0.12734416  1
  S  S142  1  0.33372574  0.93273062  0.45978376  1
  S  S143  1  0.33202245  0.93444219  0.79136822  1
  S  S144  1  0.82473427  0.43932891  0.12195806  1
  S  S145  1  0.83608085  0.43397314  0.46075151  1
  S  S146  1  0.82163643  0.42915912  0.78835715  1
  S  S147  1  0.83646783  0.93538218  0.12851891  1
  S  S148  1  0.83219173  0.93164039  0.45709455  1
  S  S149  1  0.82345629  0.93619078  0.78287385  1
  S  S150  1  0.43887887  0.33272903  0.28981925  1
  S  S151  1  0.42867913  0.33673785  0.62144562  1
  S  S152  1  0.43054161  0.33390814  0.95504522  1
  S  S153  1  0.43294635  0.83310000  0.29110737  1
  S  S154  1  0.43206590  0.82420431  0.62340361  1
  S  S155  1  0.43388822  0.82544156  0.95815506  1
  S  S156  1  0.93298237  0.33314860  0.29467255  1
  S  S157  1  0.92822448  0.33410616  0.62539549  1
  S  S158  1  0.93643091  0.33182808  0.95916761  1
  S  S159  1  0.93502989  0.82939974  0.29222433  1
  S  S160  1  0.93751369  0.83136976  0.62064559  1
  S  S161  1  0.93295335  0.82282424  0.95643800  1
  S  S162  1  0.17255671  0.06987756  0.20050850  1
  S  S163  1  0.16879704  0.05658148  0.54648547  1
  S  S164  1  0.16772637  0.06378599  0.87259322  1
  S  S165  1  0.16983413  0.56519219  0.20694807  1
  S  S166  1  0.17103668  0.56947468  0.54145403  1
  S  S167  1  0.17284708  0.57426601  0.87839892  1
  S  S168  1  0.67304689  0.06273730  0.20856321  1
  S  S169  1  0.67578905  0.06667555  0.54447413  1
  S  S170  1  0.66805615  0.06919790  0.87809826  1
  S  S171  1  0.66451033  0.56471541  0.20888834  1
  S  S172  1  0.66763215  0.56915185  0.54473557  1
  S  S173  1  0.66471596  0.56462135  0.87768933  1
  O  O174  1  0.36738886  0.22367174  0.08135522  1
  O  O175  1  0.37368807  0.22123840  0.39670540  1
  O  O176  1  0.36398035  0.22286411  0.73893237  1
  O  O177  1  0.36713959  0.71839703  0.07605106  1
  O  O178  1  0.36963501  0.71758991  0.41300363  1
  O  O179  1  0.37111373  0.71952925  0.74485399  1
  O  O180  1  0.85487765  0.22932633  0.08719048  1
  O  O181  1  0.86601810  0.22055521  0.41200686  1
  O  O182  1  0.86993881  0.21921603  0.73494235  1
  O  O183  1  0.86982005  0.71852990  0.07508647  1
  O  O184  1  0.87411776  0.71900498  0.40611415  1
  O  O185  1  0.85884735  0.72070841  0.74808553  1
  O  O186  1  0.28016583  0.12407523  0.08177484  1
  O  O187  1  0.27352726  0.14598723  0.41232312  1
  O  O188  1  0.27639802  0.13609433  0.75695699  1
  O  O189  1  0.28038272  0.62960472  0.09334197  1
  O  O190  1  0.28442734  0.62574134  0.42759197  1
  O  O191  1  0.28417766  0.63103769  0.76071248  1
  O  O192  1  0.77630508  0.12852633  0.09786355  1
  O  O193  1  0.77651172  0.13116883  0.42332747  1
  O  O194  1  0.77743257  0.13558719  0.74973873  1
  O  O195  1  0.78145010  0.63189115  0.09296704  1
  O  O196  1  0.78617368  0.63436198  0.42796821  1
  O  O197  1  0.78272680  0.62577453  0.76939985  1
  O  O198  1  0.13330374  0.27787558  0.25202379  1
  O  O199  1  0.13799325  0.28346043  0.58789734  1
  O  O200  1  0.13127081  0.28300827  0.92367508  1
  O  O201  1  0.13110581  0.77499983  0.25047421  1
  O  O202  1  0.13230866  0.77749758  0.59226650  1
  O  O203  1  0.12585320  0.77920638  0.93092618  1
  O  O204  1  0.63292960  0.26931336  0.24444246  1
  O  O205  1  0.63857510  0.28703751  0.59127391  1
  O  O206  1  0.62387700  0.28460931  0.92788811  1
  O  O207  1  0.63030964  0.78134085  0.26212315  1
  O  O208  1  0.63255701  0.78053909  0.59495069  1
  O  O209  1  0.62780001  0.77693869  0.93349977  1
  O  O210  1  0.22820026  0.36634054  0.24504625  1
  O  O211  1  0.21872609  0.37636470  0.56895144  1
  O  O212  1  0.21680410  0.37225811  0.90522611  1
  O  O213  1  0.22091676  0.86938474  0.24543677  1
  O  O214  1  0.22482816  0.86203536  0.57857294  1
  O  O215  1  0.22300552  0.85577114  0.91335710  1
  O  O216  1  0.72050676  0.36556896  0.23941201  1
  O  O217  1  0.71713823  0.38011290  0.56991732  1
  O  O218  1  0.71614110  0.36959493  0.91411931  1
  O  O219  1  0.72087845  0.86702814  0.24681906  1
  O  O220  1  0.72228991  0.86541551  0.57848487  1
  O  O221  1  0.72034565  0.85777283  0.91402066  1
  O  O222  1  0.41678452  0.13427132  0.15269522  1
  O  O223  1  0.40863242  0.14440258  0.48444118  1
  O  O224  1  0.41335926  0.14341244  0.82256765  1
  O  O225  1  0.41885664  0.63200087  0.15244553  1
  O  O226  1  0.42356240  0.62615300  0.48328769  1
  O  O227  1  0.42220698  0.62598560  0.81481309  1
  O  O228  1  0.91571847  0.13459790  0.14844093  1
  O  O229  1  0.91524192  0.13023364  0.48425905  1
  O  O230  1  0.91425313  0.13725237  0.81756801  1
  O  O231  1  0.92016100  0.63196015  0.15087497  1
  O  O232  1  0.92462755  0.62991559  0.48124317  1
  O  O233  1  0.92179940  0.63208059  0.81719243  1
  O  O234  1  0.37790611  0.08788357  0.01565804  1
  O  O235  1  0.36618044  0.08202466  0.34925412  1
  O  O236  1  0.36749209  0.08457877  0.68589750  1
  O  O237  1  0.36764884  0.58004944  0.01697368  1
  O  O238  1  0.36915864  0.58018271  0.34795716  1
  O  O239  1  0.36728324  0.58199838  0.67953397  1
  O  O240  1  0.85667731  0.09446427  0.01330594  1
  O  O241  1  0.86488552  0.08286165  0.34852741  1
  O  O242  1  0.87044863  0.08107807  0.68142398  1
  O  O243  1  0.86652553  0.57981766  0.01513060  1
  O  O244  1  0.86641267  0.58074589  0.34621468  1
  O  O245  1  0.86150925  0.58516592  0.68206529  1
  O  O246  1  0.09073940  0.37091823  0.18236290  1
  O  O247  1  0.07977818  0.37325647  0.51816745  1
  O  O248  1  0.07852852  0.37041115  0.84889646  1
  O  O249  1  0.08362549  0.86559574  0.17887459  1
  O  O250  1  0.08816115  0.86085972  0.51159124  1
  O  O251  1  0.08620344  0.86345202  0.85008301  1
  O  O252  1  0.58225105  0.36378980  0.17708955  1
  O  O253  1  0.57864520  0.37030208  0.51419810  1
  O  O254  1  0.57922825  0.36801477  0.84583227  1
  O  O255  1  0.58292433  0.86549837  0.18209295  1
  O  O256  1  0.58517940  0.86372320  0.51419731  1
  O  O257  1  0.58300871  0.85929783  0.85143971  1
  O  O258  1  0.13889537  0.41536019  0.31856085  1
  O  O259  1  0.13734786  0.42086327  0.65297657  1
  O  O260  1  0.13439190  0.42094540  0.98543616  1
  O  O261  1  0.12722006  0.91350554  0.31411954  1
  O  O262  1  0.13248106  0.91608385  0.64788671  1
  O  O263  1  0.13858563  0.91859694  0.98599267  1
  O  O264  1  0.63057142  0.40561491  0.31309665  1
  O  O265  1  0.62976658  0.42446794  0.64883843  1
  O  O266  1  0.62191217  0.42354230  0.98084746  1
  O  O267  1  0.62986926  0.92003068  0.31753810  1
  O  O268  1  0.63109998  0.91905032  0.65023946  1
  O  O269  1  0.63446889  0.91571730  0.98757803  1
  O  O270  1  0.03013778  0.17215696  0.09293303  1
  O  O271  1  0.02330402  0.20408646  0.42782247  1
  O  O272  1  0.03355226  0.20177762  0.77677332  1
  O  O273  1  0.02782131  0.69851358  0.10142408  1
  O  O274  1  0.03367205  0.69476657  0.43530708  1
  O  O275  1  0.03816633  0.68909327  0.77067506  1
  O  O276  1  0.52842700  0.19952588  0.09982312  1
  O  O277  1  0.53651861  0.19961329  0.43128215  1
  O  O278  1  0.52787911  0.20292423  0.77151364  1
  O  O279  1  0.52850622  0.69809287  0.10588515  1
  O  O280  1  0.52701962  0.70755372  0.44058009  1
  O  O281  1  0.53138499  0.69718535  0.77349776  1
  O  O282  1  0.30255348  0.46889956  0.06319101  1
  O  O283  1  0.30386486  0.46889074  0.39327132  1
  O  O284  1  0.30136554  0.47107284  0.72941464  1
  O  O285  1  0.29911407  0.97081151  0.06766921  1
  O  O286  1  0.31170282  0.97012188  0.40078935  1
  O  O287  1  0.30072214  0.96779809  0.72722391  1
  O  O288  1  0.78844500  0.47532676  0.06078180  1
  O  O289  1  0.81636195  0.46748353  0.39892187  1
  O  O290  1  0.79296554  0.46714311  0.72782937  1
  O  O291  1  0.81054119  0.97282438  0.06968634  1
  O  O292  1  0.80186763  0.96757501  0.39552233  1
  O  O293  1  0.78670215  0.97645336  0.72376159  1
  O  O294  1  0.47588522  0.30467085  0.22938628  1
  O  O295  1  0.46413585  0.31692613  0.56142589  1
  O  O296  1  0.46609544  0.30825247  0.89384639  1
  O  O297  1  0.47084111  0.80192043  0.22994683  1
  O  O298  1  0.47073784  0.79520638  0.56348952  1
  O  O299  1  0.46930191  0.78957589  0.89595914  1
  O  O300  1  0.97356261  0.30814175  0.23790516  1
  O  O301  1  0.96824874  0.31298445  0.56810224  1
  O  O302  1  0.96681391  0.29872804  0.89323340  1
  O  O303  1  0.97028739  0.79935254  0.22997180  1
  O  O304  1  0.97143029  0.79829503  0.55612968  1
  O  O305  1  0.97149286  0.78991450  0.89858107  1
  O  O306  1  0.19690197  0.02742913  0.25581481  1
  O  O307  1  0.21007827  0.02376484  0.61014930  1
  O  O308  1  0.19583422  0.02674276  0.93269723  1
  O  O309  1  0.20090203  0.52917086  0.26854621  1
  O  O310  1  0.20228809  0.53515409  0.60388637  1
  O  O311  1  0.20164473  0.53589792  0.93887340  1
  O  O312  1  0.70193180  0.02383768  0.26842206  1
  O  O313  1  0.70745449  0.02633686  0.60272808  1
  O  O314  1  0.68902994  0.02851511  0.93474618  1
  O  O315  1  0.69191475  0.52592337  0.26661449  1
  O  O316  1  0.70038578  0.54066504  0.61144486  1
  O  O317  1  0.69716926  0.52909800  0.93867220  1
  O  O318  1  0.09884719  0.08186442  0.02160969  1
  O  O319  1  0.07913617  0.09487563  0.36604929  1
  O  O320  1  0.09358184  0.09323252  0.71243658  1
  O  O321  1  0.08292409  0.58665542  0.03963762  1
  O  O322  1  0.08066377  0.57903438  0.36612397  1
  O  O323  1  0.09135329  0.58472347  0.69502099  1
  O  O324  1  0.58979391  0.09099823  0.03873846  1
  O  O325  1  0.58986659  0.08862116  0.36408628  1
  O  O326  1  0.58830894  0.09312686  0.71008102  1
  O  O327  1  0.57591753  0.58207199  0.03870823  1
  O  O328  1  0.56756711  0.58775871  0.37435382  1
  O  O329  1  0.58004981  0.58308103  0.70570680  1
  O  O330  1  0.41735337  0.41995590  0.13081970  1
  O  O331  1  0.41684946  0.41669946  0.45937452  1
  O  O332  1  0.41306265  0.41696523  0.79485776  1
  O  O333  1  0.40877000  0.91281490  0.13110060  1
  O  O334  1  0.41682223  0.91343069  0.46955643  1
  O  O335  1  0.40989426  0.90769006  0.79052423  1
  O  O336  1  0.90599626  0.43027129  0.12466177  1
  O  O337  1  0.92044893  0.41734722  0.47660704  1
  O  O338  1  0.90159056  0.41014604  0.79330483  1
  O  O339  1  0.91979207  0.91839502  0.13771467  1
  O  O340  1  0.91385946  0.91379303  0.46215262  1
  O  O341  1  0.88709242  0.89691158  0.76032605  1
  O  O342  1  0.42336204  0.41647706  0.29716799  1
  O  O343  1  0.41410442  0.42255371  0.63653946  1
  O  O344  1  0.41507205  0.41832699  0.96452303  1
  O  O345  1  0.41496622  0.91356465  0.29392125  1
  O  O346  1  0.41010202  0.90279525  0.62553442  1
  O  O347  1  0.41687391  0.90349082  0.95868624  1
  O  O348  1  0.91128039  0.41451204  0.29709636  1
  O  O349  1  0.91067046  0.41733681  0.63690716  1
  O  O350  1  0.90574814  0.40845586  0.95510890  1
  O  O351  1  0.91787083  0.91123537  0.29927290  1
  O  O352  1  0.91340216  0.90966617  0.61700877  1
  O  O353  1  0.91179978  0.89976161  0.95414905  1
  O  O354  1  0.09087791  0.08819253  0.19517109  1
  O  O355  1  0.09011066  0.07067600  0.55210628  1
  O  O356  1  0.08494527  0.07960913  0.86347081  1
  O  O357  1  0.08748389  0.58153860  0.20137177  1
  O  O358  1  0.08870442  0.58533697  0.53496278  1
  O  O359  1  0.09483720  0.59788171  0.87655454  1
  O  O360  1  0.59065720  0.07804513  0.20356518  1
  O  O361  1  0.59865775  0.08773251  0.54478260  1
  O  O362  1  0.58516542  0.08691616  0.86695547  1
  O  O363  1  0.58209826  0.58401588  0.20594687  1
  O  O364  1  0.58479986  0.58745053  0.54312873  1
  O  O365  1  0.58158611  0.57925131  0.87497561  1
  O  O366  1  0.13975751  0.22231141  0.06399427  1
  O  O367  1  0.13487909  0.22904099  0.38994685  1
  O  O368  1  0.13385979  0.22846741  0.72689590  1
  O  O369  1  0.13996465  0.71894723  0.06127888  1
  O  O370  1  0.14020734  0.71084680  0.38703094  1
  O  O371  1  0.14199619  0.72103920  0.72486914  1
  O  O372  1  0.63860443  0.22654641  0.05983079  1
  O  O373  1  0.64248742  0.22298733  0.38530875  1
  O  O374  1  0.62482848  0.22524133  0.71556676  1
  O  O375  1  0.63372151  0.71259545  0.05446428  1
  O  O376  1  0.63452726  0.71551711  0.39130324  1
  O  O377  1  0.63930890  0.71538779  0.72680448  1
  O  O378  1  0.28512671  0.36450332  0.11417812  1
  O  O379  1  0.28302511  0.36190778  0.43944850  1
  O  O380  1  0.27866718  0.36298698  0.77395870  1
  O  O381  1  0.27488724  0.86300134  0.11192859  1
  O  O382  1  0.28068628  0.86235273  0.44271914  1
  O  O383  1  0.27620952  0.86555588  0.77660047  1
  O  O384  1  0.77558319  0.36523675  0.10353895  1
  O  O385  1  0.78363376  0.36218730  0.44236335  1
  O  O386  1  0.76695295  0.36002950  0.77142097  1
  O  O387  1  0.78496363  0.86336946  0.11131147  1
  O  O388  1  0.77938100  0.86020929  0.44008253  1
  O  O389  1  0.76184400  0.87554575  0.77528183  1
  O  O390  1  0.36605526  0.28247988  0.27125219  1
  O  O391  1  0.35632430  0.28662466  0.60443789  1
  O  O392  1  0.35899631  0.28367640  0.93920282  1
  O  O393  1  0.36316084  0.77937738  0.27432222  1
  O  O394  1  0.36183076  0.76824242  0.60421356  1
  O  O395  1  0.36327282  0.77197660  0.94300213  1
  O  O396  1  0.86230375  0.27914471  0.27701603  1
  O  O397  1  0.85602104  0.28140291  0.60397278  1
  O  O398  1  0.87356242  0.27558653  0.95284686  1
  O  O399  1  0.86499735  0.77719909  0.27773278  1
  O  O400  1  0.86724823  0.77656698  0.60413138  1
  O  O401  1  0.86345420  0.76767128  0.94224329  1
  O  O402  1  0.22644964  0.14143060  0.22092566  1
  O  O403  1  0.21727131  0.13132659  0.56219350  1
  O  O404  1  0.21890204  0.13553347  0.88974710  1
  O  O405  1  0.22118994  0.63571542  0.22186395  1
  O  O406  1  0.22213438  0.64077282  0.55630110  1
  O  O407  1  0.22960249  0.64205640  0.89432004  1
  O  O408  1  0.72413118  0.13571539  0.22919645  1
  O  O409  1  0.73128238  0.13657002  0.56174934  1
  O  O410  1  0.72094455  0.14120183  0.89954903  1
  O  O411  1  0.71596782  0.63531953  0.22364238  1
  O  O412  1  0.71685897  0.64069970  0.55615624  1
  O  O413  1  0.71312320  0.63672085  0.89193263  1
  O  O414  1  0.49016382  0.33466309  0.02734635  1
  O  O415  1  0.49647492  0.33347483  0.36253598  1
  O  O416  1  0.48809134  0.33436412  0.69300149  1
  O  O417  1  0.49328670  0.82583352  0.03072350  1
  O  O418  1  0.49244689  0.83514846  0.36354603  1
  O  O419  1  0.49013112  0.82633526  0.69608952  1
  O  O420  1  1.00253835  0.35062313  0.02896492  1
  O  O421  1  0.98898090  0.34044621  0.37075050  1
  O  O422  1  0.98495245  0.33058524  0.69732797  1
  O  O423  1  0.99103087  0.82951280  0.03233167  1
  O  O424  1  0.99673586  0.83022922  0.36344549  1
  O  O425  1  0.99817606  0.83880619  0.69083303  1
  O  O426  1  0.17196484  0.01476164  0.12520570  1
  O  O427  1  0.16413413  0.00024249  0.47427707  1
  O  O428  1  0.16988949  0.00413863  0.80134689  1
  O  O429  1  0.16703076  0.50474046  0.13446985  1
  O  O430  1  0.17028788  0.50880630  0.46990150  1
  O  O431  1  0.16877275  0.51348851  0.80592253  1
  O  O432  1  0.67371507  0.00655667  0.13610874  1
  O  O433  1  0.67214118  0.00867353  0.46979024  1
  O  O434  1  0.67167736  0.01379653  0.80572862  1
  O  O435  1  0.65679739  0.50691112  0.13305479  1
  O  O436  1  0.66022845  0.50629188  0.47527090  1
  O  O437  1  0.65896560  0.50543018  0.80390886  1
  O  O438  1  0.00802081  0.17459776  0.29481181  1
  O  O439  1  0.00399944  0.16119453  0.64174504  1
  O  O440  1  0.01396801  0.16675376  0.96731086  1
  O  O441  1  0.00761988  0.66310072  0.30122140  1
  O  O442  1  0.01015396  0.66852544  0.63808998  1
  O  O443  1  0.01085311  0.66678138  0.96859237  1
  O  O444  1  0.51167593  0.16644035  0.29689320  1
  O  O445  1  0.49507142  0.15678187  0.63577643  1
  O  O446  1  0.51035048  0.16731861  0.96816260  1
  O  O447  1  0.50225467  0.67156638  0.30545449  1
  O  O448  1  0.50696314  0.66538838  0.63952298  1
  O  O449  1  0.50060099  0.66068291  0.97057631  1
  O  O450  1  0.33705014  0.49693879  0.19781291  1
  O  O451  1  0.33717333  0.49266920  0.52711970  1
  O  O452  1  0.33413914  0.49302103  0.86309046  1
  O  O453  1  0.33381397  0.99260773  0.20162781  1
  O  O454  1  0.33541837  0.99216256  0.53261488  1
  O  O455  1  0.34164855  0.99666820  0.86188548  1
  O  O456  1  0.82252325  0.49448499  0.19522753  1
  O  O457  1  0.83176071  0.49405493  0.53067325  1
  O  O458  1  0.82228823  0.48957700  0.86021914  1
  O  O459  1  0.83708343  0.99284384  0.20246147  1
  O  O460  1  0.83477121  0.99117417  0.52929381  1
  O  O461  1  0.85121471  0.99584996  0.85673155  1
