# generated using pymatgen
data_Na31Fe20(SO4)36
_symmetry_space_group_name_H-M   'P 1'
_cell_length_a   18.06883502
_cell_length_b   18.07153192
_cell_length_c   19.70442500
_cell_angle_alpha   107.59405944
_cell_angle_beta   107.59737731
_cell_angle_gamma   90.70293764
_symmetry_Int_Tables_number   1
_chemical_formula_structural   Na31Fe20(SO4)36
_chemical_formula_sum   'Na62 Fe40 S72 O288'
_cell_volume   5807.97310752
_cell_formula_units_Z   2
loop_
 _symmetry_equiv_pos_site_id
 _symmetry_equiv_pos_as_xyz
  1  'x, y, z'
loop_
 _atom_site_type_symbol
 _atom_site_label
 _atom_site_symmetry_multiplicity
 _atom_site_fract_x
 _atom_site_fract_y
 _atom_site_fract_z
 _atom_site_occupancy
  Na  Na0  1  0.12778068  0.35343203  0.06554076  1
  Na  Na1  1  0.13115245  0.36757372  0.41463318  1
  Na  Na2  1  0.11912004  0.38374595  0.75747913  1
  Na  Na3  1  0.13523190  0.86512825  0.08084471  1
  Na  Na4  1  0.13661205  0.86004076  0.41107832  1
  Na  Na5  1  0.15597992  0.86899577  0.77723251  1
  Na  Na6  1  0.63990112  0.37068075  0.09046579  1
  Na  Na7  1  0.62941373  0.36748976  0.41474250  1
  Na  Na8  1  0.62803401  0.36223093  0.74343245  1
  Na  Na9  1  0.63140217  0.86465973  0.08338126  1
  Na  Na10  1  0.64226601  0.87229641  0.42234802  1
  Na  Na11  1  0.63746372  0.86044244  0.74634676  1
  Na  Na12  1  0.36859193  0.12963505  0.24957965  1
  Na  Na13  1  0.36852389  0.14149353  0.58717787  1
  Na  Na14  1  0.35440483  0.13417270  0.91425633  1
  Na  Na15  1  0.36590853  0.63820915  0.25173173  1
  Na  Na16  1  0.36265661  0.63605399  0.58310056  1
  Na  Na17  1  0.36036724  0.63809237  0.90767358  1
  Na  Na18  1  0.85824804  0.13985230  0.24769746  1
  Na  Na19  1  0.86670879  0.14065146  0.59463436  1
  Na  Na20  1  0.87221786  0.14620631  0.92432809  1
  Na  Na21  1  0.86068436  0.63547078  0.25258310  1
  Na  Na22  1  0.86290280  0.63340080  0.58079486  1
  Na  Na23  1  0.87177940  0.62417587  0.91333884  1
  Na  Na24  1  0.49403234  0.01041238  0.75033089  1
  Na  Na25  1  0.97804537  0.01196376  0.41523644  1
  Na  Na26  1  0.95932953  0.50531924  0.41424757  1
  Na  Na27  1  0.99530599  0.06546284  0.77223061  1
  Na  Na28  1  0.49295674  0.52193119  0.07000439  1
  Na  Na29  1  0.50188421  0.04432566  0.42771751  1
  Na  Na30  1  0.47675958  0.50595056  0.76917931  1
  Na  Na31  1  1.01455800  0.49246842  0.06297739  1
  Na  Na32  1  0.45588163  -0.00448687  0.07309773  1
  Na  Na33  1  -0.01450323  0.50316863  0.24958287  1
  Na  Na34  1  0.48551452  1.00857974  0.92219175  1
  Na  Na35  1  0.50994359  0.99843358  0.58064856  1
  Na  Na36  1  0.01482171  0.99663644  0.92720111  1
  Na  Na37  1  0.02782829  0.48562906  0.63564167  1
  Na  Na38  1  0.01090002  0.99724789  0.23157194  1
  Na  Na39  1  0.51830244  0.48896046  0.56765761  1
  Na  Na40  1  0.01032205  0.97916448  0.58973637  1
  Na  Na41  1  0.53096361  0.97017778  0.25173463  1
  Na  Na42  1  0.24595506  0.25242599  0.67047227  1
  Na  Na43  1  0.25565003  0.25124896  0.33162943  1
  Na  Na44  1  0.24166213  0.24293749  0.00179811  1
  Na  Na45  1  0.73715088  0.24220253  0.67341650  1
  Na  Na46  1  0.24041804  0.73422080  0.68713271  1
  Na  Na47  1  0.75908507  0.75824070  0.65196477  1
  Na  Na48  1  0.27162489  0.77191017  -0.01708691  1
  Na  Na49  1  0.73977148  0.24279588  0.33761749  1
  Na  Na50  1  0.74562556  0.74455869  0.00248000  1
  Na  Na51  1  0.74077083  0.74309860  0.34855047  1
  Na  Na52  1  0.74767485  0.24469890  0.84409077  1
  Na  Na53  1  0.24989023  0.25231790  0.49850296  1
  Na  Na54  1  0.25597893  0.75485149  0.49078490  1
  Na  Na55  1  0.76227871  0.26742190  0.15500144  1
  Na  Na56  1  0.75253715  0.74969362  0.83215786  1
  Na  Na57  1  0.73167196  0.23002890  0.50551001  1
  Na  Na58  1  0.22529318  0.24563335  0.83740795  1
  Na  Na59  1  0.26193110  0.75700963  0.16306385  1
  Na  Na60  1  0.74024573  0.74123570  0.17370608  1
  Na  Na61  1  0.24917514  0.24958636  0.16528115  1
  Fe  Fe62  1  0.46758155  0.29974460  0.45794592  1
  Fe  Fe63  1  0.46412885  0.31469638  0.12700211  1
  Fe  Fe64  1  0.96288229  0.30952410  0.45052395  1
  Fe  Fe65  1  0.96390555  0.80659147  0.11801174  1
  Fe  Fe66  1  0.46427443  0.30865391  0.79035140  1
  Fe  Fe67  1  0.96615158  0.80609057  0.45189681  1
  Fe  Fe68  1  0.46609946  0.80447465  0.44908423  1
  Fe  Fe69  1  0.96519311  0.30663157  0.11478849  1
  Fe  Fe70  1  0.96498719  0.80814487  0.78646135  1
  Fe  Fe71  1  0.46691451  0.81036901  0.78387149  1
  Fe  Fe72  1  0.69301233  0.53191277  0.04416121  1
  Fe  Fe73  1  0.69208150  0.03704015  0.04686591  1
  Fe  Fe74  1  0.20274656  0.03134616  0.04497967  1
  Fe  Fe75  1  0.19034081  0.53538961  0.04567456  1
  Fe  Fe76  1  0.19120688  0.53522934  0.37995983  1
  Fe  Fe77  1  0.69082153  0.03383514  0.71508250  1
  Fe  Fe78  1  0.69508277  0.53367939  0.71226974  1
  Fe  Fe79  1  0.69503461  0.53151884  0.37399810  1
  Fe  Fe80  1  0.19317556  0.03253316  0.37946125  1
  Fe  Fe81  1  0.19746293  0.02940450  0.71629270  1
  Fe  Fe82  1  0.53625778  0.19552694  0.88573953  1
  Fe  Fe83  1  0.03226386  0.19243619  0.54753231  1
  Fe  Fe84  1  0.53522380  0.19081515  0.21346561  1
  Fe  Fe85  1  0.03606176  0.69181332  0.21425266  1
  Fe  Fe86  1  0.03623299  0.18885176  0.21015491  1
  Fe  Fe87  1  0.53765317  0.68591854  0.53865316  1
  Fe  Fe88  1  0.03702179  0.68780402  0.87862156  1
  Fe  Fe89  1  0.03308465  0.69292311  0.55147007  1
  Fe  Fe90  1  0.53263737  0.70273138  0.21047184  1
  Fe  Fe91  1  0.53633679  0.69700766  0.88054731  1
  Fe  Fe92  1  0.30808819  0.96371812  0.61549550  1
  Fe  Fe93  1  0.81027813  0.96840355  0.95635887  1
  Fe  Fe94  1  0.30211905  0.46760467  0.95226836  1
  Fe  Fe95  1  0.80790256  0.96428253  0.61782381  1
  Fe  Fe96  1  0.80878875  0.46173657  0.94972180  1
  Fe  Fe97  1  0.81374986  0.45950212  0.62376377  1
  Fe  Fe98  1  0.29680039  0.47172716  0.62575187  1
  Fe  Fe99  1  0.31157301  0.96290304  0.28869993  1
  Fe  Fe100  1  0.30876621  0.46669599  0.28971578  1
  Fe  Fe101  1  0.79869086  0.97023137  0.28782552  1
  S  S102  1  0.36342385  0.14396244  0.08207249  1
  S  S103  1  0.35740508  0.13898007  0.42111607  1
  S  S104  1  0.36122771  0.13907548  0.75151131  1
  S  S105  1  0.35698849  0.64118702  0.08419723  1
  S  S106  1  0.35892425  0.64060644  0.41771050  1
  S  S107  1  0.36320773  0.64251015  0.74654276  1
  S  S108  1  0.85985026  0.14053245  0.08585311  1
  S  S109  1  0.85840848  0.14300833  0.41246807  1
  S  S110  1  0.85310838  0.14058880  0.74967899  1
  S  S111  1  0.85991654  0.64057847  0.08395205  1
  S  S112  1  0.86122917  0.64211933  0.41493004  1
  S  S113  1  0.86027543  0.64027359  0.74849130  1
  S  S114  1  0.14140372  0.35876391  0.24935857  1
  S  S115  1  0.13795323  0.35395100  0.58010233  1
  S  S116  1  0.13837708  0.36231198  0.91825509  1
  S  S117  1  0.13980933  0.85965143  0.24836331  1
  S  S118  1  0.14214628  0.85548823  0.58175961  1
  S  S119  1  0.13566308  0.86009351  0.92144435  1
  S  S120  1  0.64062028  0.35620665  0.25013501  1
  S  S121  1  0.64019358  0.36030247  0.58272400  1
  S  S122  1  0.63941544  0.35898382  0.91608211  1
  S  S123  1  0.64738821  0.85708999  0.25138091  1
  S  S124  1  0.63984579  0.85961983  0.58444139  1
  S  S125  1  0.64361223  0.86144021  0.91315602  1
  S  S126  1  0.06950157  0.16530257  0.04378798  1
  S  S127  1  0.06629925  0.16298076  0.37154028  1
  S  S128  1  0.07277625  0.15866011  0.70155925  1
  S  S129  1  0.06712406  0.67331331  0.04676517  1
  S  S130  1  0.06546156  0.66942920  0.37577972  1
  S  S131  1  0.06638390  0.67666770  0.71237662  1
  S  S132  1  0.56695151  0.17078057  0.04350966  1
  S  S133  1  0.56138963  0.16759066  0.37245999  1
  S  S134  1  0.56192970  0.16721771  0.71183201  1
  S  S135  1  0.56807196  0.66628455  0.03777207  1
  S  S136  1  0.57249121  0.67515668  0.37566632  1
  S  S137  1  0.57127417  0.66872974  0.70457616  1
  S  S138  1  0.32613052  0.43128808  0.12573712  1
  S  S139  1  0.32577903  0.42971259  0.45934861  1
  S  S140  1  0.33026326  0.43267822  0.79375666  1
  S  S141  1  0.33438470  0.93629849  0.13007625  1
  S  S142  1  0.33200704  0.93263268  0.45919699  1
  S  S143  1  0.33814814  0.93697684  0.78687788  1
  S  S144  1  0.83276124  0.43864196  0.12395376  1
  S  S145  1  0.82820147  0.43306696  0.45789531  1
  S  S146  1  0.82524468  0.42897147  0.78582069  1
  S  S147  1  0.82695326  0.93153446  0.12393618  1
  S  S148  1  0.84034412  0.93638868  0.46044198  1
  S  S149  1  0.82967617  0.93158193  0.79216315  1
  S  S150  1  0.42731207  0.32622823  0.29314658  1
  S  S151  1  0.42722711  0.33623984  0.62794035  1
  S  S152  1  0.42721979  0.32809087  0.95848659  1
  S  S153  1  0.44003947  0.83620805  0.29578623  1
  S  S154  1  0.43599690  0.83171082  0.62077524  1
  S  S155  1  0.44283120  0.83424624  0.95260274  1
  S  S156  1  0.93991100  0.33005376  0.28710941  1
  S  S157  1  0.93322442  0.32372105  0.61912274  1
  S  S158  1  0.93005081  0.33017017  0.95678104  1
  S  S159  1  0.93346512  0.83211003  0.29012527  1
  S  S160  1  0.93611425  0.83252151  0.62774701  1
  S  S161  1  0.92866565  0.83079491  0.95775321  1
  S  S162  1  0.17369126  0.06606400  0.20956579  1
  S  S163  1  0.17068360  0.06426047  0.54074975  1
  S  S164  1  0.17190572  0.06028901  0.87880421  1
  S  S165  1  0.16661237  0.56586776  0.20918372  1
  S  S166  1  0.16510015  0.56613863  0.53945317  1
  S  S167  1  0.17398071  0.57298870  0.88047127  1
  S  S168  1  0.66488374  0.06342917  0.20394777  1
  S  S169  1  0.66947341  0.05980418  0.54585068  1
  S  S170  1  0.66768017  0.06646285  0.87564203  1
  S  S171  1  0.66585407  0.57057337  0.20670426  1
  S  S172  1  0.67282908  0.56668909  0.54090864  1
  S  S173  1  0.67096329  0.56853949  0.87359964  1
  O  O174  1  0.37194012  0.22561044  0.07839549  1
  O  O175  1  0.36394168  0.22013053  0.41664761  1
  O  O176  1  0.36868328  0.21755125  0.74222273  1
  O  O177  1  0.35716267  0.71466093  0.06825145  1
  O  O178  1  0.36741612  0.72042951  0.41247841  1
  O  O179  1  0.37958160  0.71838779  0.73316894  1
  O  O180  1  0.87022385  0.22098521  0.08282753  1
  O  O181  1  0.87339188  0.21916741  0.39931162  1
  O  O182  1  0.85919115  0.21308082  0.73277646  1
  O  O183  1  0.86733289  0.72042087  0.07653165  1
  O  O184  1  0.87146895  0.72306715  0.40939431  1
  O  O185  1  0.86755513  0.71871483  0.73800021  1
  O  O186  1  0.28245321  0.13485159  0.08658418  1
  O  O187  1  0.27631949  0.12813242  0.42620263  1
  O  O188  1  0.28318477  0.12893904  0.76085595  1
  O  O189  1  0.28117526  0.62566364  0.09786434  1
  O  O190  1  0.28078950  0.62971116  0.42792145  1
  O  O191  1  0.28701846  0.64020003  0.75611736  1
  O  O192  1  0.78145340  0.13138031  0.09590921  1
  O  O193  1  0.78164890  0.13953733  0.42131930  1
  O  O194  1  0.77091208  0.12862681  0.75387945  1
  O  O195  1  0.78058837  0.63068205  0.09130442  1
  O  O196  1  0.77983038  0.63163941  0.41516729  1
  O  O197  1  0.78129682  0.63189411  0.75740882  1
  O  O198  1  0.13443787  0.28053728  0.26011970  1
  O  O199  1  0.13192371  0.27050427  0.57966680  1
  O  O200  1  0.13745575  0.28976578  0.93761478  1
  O  O201  1  0.12807601  0.78149343  0.25554589  1
  O  O202  1  0.13321362  0.77556415  0.58678586  1
  O  O203  1  0.11921265  0.78558062  0.93588650  1
  O  O204  1  0.62662254  0.27845831  0.26144201  1
  O  O205  1  0.63200468  0.28420094  0.59269029  1
  O  O206  1  0.63060938  0.27977735  0.92313548  1
  O  O207  1  0.63872451  0.77316430  0.25090607  1
  O  O208  1  0.62809336  0.78098965  0.59249388  1
  O  O209  1  0.63765796  0.78165497  0.92050932  1
  O  O210  1  0.22225909  0.36916239  0.24554145  1
  O  O211  1  0.21827248  0.36774106  0.57607641  1
  O  O212  1  0.22055378  0.37491737  0.91296750  1
  O  O213  1  0.21812602  0.86849859  0.23944026  1
  O  O214  1  0.21969651  0.86609022  0.57121232  1
  O  O215  1  0.21160834  0.86131090  0.91044666  1
  O  O216  1  0.71601361  0.36093798  0.23850394  1
  O  O217  1  0.71810882  0.37135215  0.57246929  1
  O  O218  1  0.71689018  0.36876097  0.90572940  1
  O  O219  1  0.73030155  0.86650974  0.24912390  1
  O  O220  1  0.72001963  0.86736336  0.57991549  1
  O  O221  1  0.72247615  0.87256310  0.90490989  1
  O  O222  1  0.41855818  0.13519297  0.15235150  1
  O  O223  1  0.41521760  0.12804187  0.48624640  1
  O  O224  1  0.42169144  0.13107559  0.81897400  1
  O  O225  1  0.41934754  0.64221724  0.15505849  1
  O  O226  1  0.41911646  0.63127847  0.48473387  1
  O  O227  1  0.42501620  0.63213112  0.81300082  1
  O  O228  1  0.91925351  0.12707879  0.15093197  1
  O  O229  1  0.91959307  0.13248663  0.47894164  1
  O  O230  1  0.90819383  0.13649666  0.81994536  1
  O  O231  1  0.91898475  0.63441103  0.15280009  1
  O  O232  1  0.91609224  0.63708897  0.48762056  1
  O  O233  1  0.91903780  0.63570164  0.81792170  1
  O  O234  1  0.37701183  0.08785380  0.01713535  1
  O  O235  1  0.36482138  0.08338392  0.35064062  1
  O  O236  1  0.36966872  0.07977069  0.68339285  1
  O  O237  1  0.36996260  0.57615295  0.02159606  1
  O  O238  1  0.36366155  0.58288253  0.34784080  1
  O  O239  1  0.36909593  0.57965808  0.67848354  1
  O  O240  1  0.86347513  0.08426527  0.01441526  1
  O  O241  1  0.86517958  0.08112740  0.34396734  1
  O  O242  1  0.86645239  0.07530105  0.68595550  1
  O  O243  1  0.86865283  0.58277484  0.01597781  1
  O  O244  1  0.87848853  0.58506620  0.35237005  1
  O  O245  1  0.86788865  0.58015646  0.68143702  1
  O  O246  1  0.08484954  0.36340511  0.17895028  1
  O  O247  1  0.08108209  0.36258039  0.51060167  1
  O  O248  1  0.08209188  0.36090852  0.84805356  1
  O  O249  1  0.07968344  0.87184481  0.18221493  1
  O  O250  1  0.08136876  0.86614615  0.51511990  1
  O  O251  1  0.07420183  0.87053615  0.85488312  1
  O  O252  1  0.57819073  0.36244300  0.18222356  1
  O  O253  1  0.57946102  0.36837232  0.51424402  1
  O  O254  1  0.57930662  0.36755221  0.84867613  1
  O  O255  1  0.59305893  0.86821923  0.18412597  1
  O  O256  1  0.58185511  0.86960912  0.51706714  1
  O  O257  1  0.58469909  0.86793247  0.84424286  1
  O  O258  1  0.12990652  0.41891008  0.31512201  1
  O  O259  1  0.12575910  0.40630202  0.64730280  1
  O  O260  1  0.12821242  0.42729699  0.98396783  1
  O  O261  1  0.13346054  0.91919233  0.31756619  1
  O  O262  1  0.13534380  0.91338298  0.65085837  1
  O  O263  1  0.12977976  0.92454109  0.98845818  1
  O  O264  1  0.63489630  0.41673830  0.31834925  1
  O  O265  1  0.62977965  0.42298561  0.64847665  1
  O  O266  1  0.63303212  0.41705692  0.98526756  1
  O  O267  1  0.63826360  0.90992644  0.32018032  1
  O  O268  1  0.62964927  0.91890554  0.65243109  1
  O  O269  1  0.63482465  0.91945150  0.98083899  1
  O  O270  1  0.03527641  0.19804908  0.10772564  1
  O  O271  1  0.03142450  0.19279151  0.43254884  1
  O  O272  1  0.04594345  0.18206145  0.76614581  1
  O  O273  1  0.02734625  0.70320877  0.10630491  1
  O  O274  1  0.02959407  0.69864314  0.43721654  1
  O  O275  1  0.02944464  0.70946294  0.77397165  1
  O  O276  1  0.53073465  0.19797712  0.10429076  1
  O  O277  1  0.52412635  0.19802145  0.43194766  1
  O  O278  1  0.53021725  0.19997135  0.77696487  1
  O  O279  1  0.53208503  0.68996955  0.09745477  1
  O  O280  1  0.53056296  0.70158951  0.43484663  1
  O  O281  1  0.53843814  0.69839522  0.76749011  1
  O  O282  1  0.29416431  0.46618092  0.06452985  1
  O  O283  1  0.29842325  0.46744941  0.39866705  1
  O  O284  1  0.30658055  0.46842705  0.73348622  1
  O  O285  1  0.30465708  0.97439826  0.07126527  1
  O  O286  1  0.30165804  0.96644598  0.39613833  1
  O  O287  1  0.30059452  0.96538105  0.71971719  1
  O  O288  1  0.79848039  0.46827837  0.05723599  1
  O  O289  1  0.80128448  0.47423281  0.40197522  1
  O  O290  1  0.79247171  0.47075670  0.72650161  1
  O  O291  1  0.79921354  0.96811499  0.06264510  1
  O  O292  1  0.82126309  0.97349469  0.40138286  1
  O  O293  1  0.79833360  0.96532971  0.72995673  1
  O  O294  1  0.46515425  0.29858749  0.23304018  1
  O  O295  1  0.46300469  0.31671209  0.56778566  1
  O  O296  1  0.46606087  0.29948598  0.89859789  1
  O  O297  1  0.47822642  0.80995270  0.23760682  1
  O  O298  1  0.47054162  0.80088048  0.55907330  1
  O  O299  1  0.47658792  0.79708530  0.88734374  1
  O  O300  1  0.97682296  0.29459948  0.22659318  1
  O  O301  1  0.96660294  0.29437728  0.55334148  1
  O  O302  1  0.96142719  0.30531076  0.89590329  1
  O  O303  1  0.97031956  0.80221675  0.22921697  1
  O  O304  1  0.97346844  0.80182059  0.56691707  1
  O  O305  1  0.95950369  0.79738737  0.89392704  1
  O  O306  1  0.20294153  0.03071981  0.27185323  1
  O  O307  1  0.20103557  0.02797421  0.60184196  1
  O  O308  1  0.21217189  0.02924245  0.93970627  1
  O  O309  1  0.19833895  0.53027061  0.27111041  1
  O  O310  1  0.19131530  0.52773341  0.59751193  1
  O  O311  1  0.20619735  0.53898653  0.94486524  1
  O  O312  1  0.69301973  0.02609882  0.26265269  1
  O  O313  1  0.70605676  0.02471834  0.60897931  1
  O  O314  1  0.70065096  0.03340340  0.93881017  1
  O  O315  1  0.68408164  0.53245391  0.26478844  1
  O  O316  1  0.70200375  0.52991997  0.60155837  1
  O  O317  1  0.69955018  0.53215949  0.93453037  1
  O  O318  1  0.09752083  0.08821530  0.04616565  1
  O  O319  1  0.08148524  0.07939772  0.36505762  1
  O  O320  1  0.09194174  0.07414090  0.68923211  1
  O  O321  1  0.08525279  0.59285677  0.04540475  1
  O  O322  1  0.08134143  0.58665176  0.36778110  1
  O  O323  1  0.08851706  0.60015560  0.71333817  1
  O  O324  1  0.58501232  0.08830204  0.03564377  1
  O  O325  1  0.57456430  0.08578651  0.36525941  1
  O  O326  1  0.58148457  0.08515377  0.71066815  1
  O  O327  1  0.58742856  0.58366922  0.02773600  1
  O  O328  1  0.59660337  0.59766631  0.37496602  1
  O  O329  1  0.58729218  0.58571350  0.69626775  1
  O  O330  1  0.40736307  0.41493895  0.12915727  1
  O  O331  1  0.40643603  0.40918433  0.46581410  1
  O  O332  1  0.41241235  0.41160515  0.80190272  1
  O  O333  1  0.41653041  0.92414361  0.13823589  1
  O  O334  1  0.41356294  0.91438288  0.46496423  1
  O  O335  1  0.41966225  0.91929893  0.78535112  1
  O  O336  1  0.91254503  0.41426639  0.12435926  1
  O  O337  1  0.91012790  0.41403980  0.46005810  1
  O  O338  1  0.90083071  0.40838125  0.78347128  1
  O  O339  1  0.90859616  0.91230408  0.13037133  1
  O  O340  1  0.92443115  0.91672876  0.47142286  1
  O  O341  1  0.91240278  0.91617360  0.79961142  1
  O  O342  1  0.40491669  0.40515825  0.29645710  1
  O  O343  1  0.40662160  0.41842394  0.64223002  1
  O  O344  1  0.40868304  0.40928438  0.96490217  1
  O  O345  1  0.42355381  0.91988531  0.30486716  1
  O  O346  1  0.42132160  0.91537448  0.62706447  1
  O  O347  1  0.42630667  0.91332813  0.94929933  1
  O  O348  1  0.93283780  0.41259859  0.29341437  1
  O  O349  1  0.91614271  0.40625035  0.62319202  1
  O  O350  1  0.91068578  0.41416304  0.97018023  1
  O  O351  1  0.91466652  0.91329951  0.29423005  1
  O  O352  1  0.91756149  0.91362020  0.62917393  1
  O  O353  1  0.91342650  0.91287099  0.96166398  1
  O  O354  1  0.09226373  0.08417963  0.20610948  1
  O  O355  1  0.08791049  0.07970595  0.53254790  1
  O  O356  1  0.08918593  0.06471553  0.87407714  1
  O  O357  1  0.08403714  0.58254416  0.20633394  1
  O  O358  1  0.08269254  0.58521954  0.53169153  1
  O  O359  1  0.09534457  0.59553843  0.88349668  1
  O  O360  1  0.58145592  0.07878288  0.19576229  1
  O  O361  1  0.58912035  0.07276843  0.54741643  1
  O  O362  1  0.58523749  0.08295421  0.87265309  1
  O  O363  1  0.58481186  0.59354149  0.19152359  1
  O  O364  1  0.59034049  0.58306389  0.53715059  1
  O  O365  1  0.59094544  0.59117592  0.86884731  1
  O  O366  1  0.13746154  0.22160645  0.05797372  1
  O  O367  1  0.13868033  0.21273947  0.38630885  1
  O  O368  1  0.14268523  0.20892776  0.70988704  1
  O  O369  1  0.13838949  0.72589727  0.06615698  1
  O  O370  1  0.13665812  0.72063286  0.39182098  1
  O  O371  1  0.13203649  0.73306957  0.72362755  1
  O  O372  1  0.63633421  0.22342831  0.05803937  1
  O  O373  1  0.63436217  0.21908520  0.39040934  1
  O  O374  1  0.63371523  0.21808898  0.72677653  1
  O  O375  1  0.64037724  0.71900929  0.05524928  1
  O  O376  1  0.63895725  0.73399441  0.39500409  1
  O  O377  1  0.64350441  0.71923794  0.71968856  1
  O  O378  1  0.27566844  0.35896642  0.11137695  1
  O  O379  1  0.27070466  0.35894223  0.43996085  1
  O  O380  1  0.27674524  0.36232826  0.77777208  1
  O  O381  1  0.28301211  0.86314767  0.11124797  1
  O  O382  1  0.27943932  0.86428121  0.44742583  1
  O  O383  1  0.29045926  0.86622936  0.77743977  1
  O  O384  1  0.77931411  0.37216926  0.11517978  1
  O  O385  1  0.77646634  0.36103874  0.44004763  1
  O  O386  1  0.76614724  0.36244894  0.76957487  1
  O  O387  1  0.77410716  0.86052985  0.10654406  1
  O  O388  1  0.78740801  0.86613088  0.44285891  1
  O  O389  1  0.77984642  0.85829082  0.77587195  1
  O  O390  1  0.35745458  0.27018655  0.27543775  1
  O  O391  1  0.35710863  0.28037231  0.60902970  1
  O  O392  1  0.35613958  0.27417517  0.93921581  1
  O  O393  1  0.36735933  0.78563651  0.27817500  1
  O  O394  1  0.36306139  0.78303202  0.60517507  1
  O  O395  1  0.37216654  0.78298267  0.93767254  1
  O  O396  1  0.86488731  0.28285518  0.26859717  1
  O  O397  1  0.85956546  0.27390891  0.59999755  1
  O  O398  1  0.86014098  0.28022750  0.94898376  1
  O  O399  1  0.86422926  0.77829057  0.27506159  1
  O  O400  1  0.86570247  0.78079449  0.61250005  1
  O  O401  1  0.85675074  0.78161951  0.94635742  1
  O  O402  1  0.22492110  0.13834887  0.22616801  1
  O  O403  1  0.22197057  0.13633651  0.55791243  1
  O  O404  1  0.21376219  0.13733882  0.89068220  1
  O  O405  1  0.21670564  0.63604730  0.22195093  1
  O  O406  1  0.21819290  0.63761605  0.55713118  1
  O  O407  1  0.22722678  0.64290660  0.89592259  1
  O  O408  1  0.71485449  0.13692834  0.22149734  1
  O  O409  1  0.71808880  0.13481551  0.56440822  1
  O  O410  1  0.71705470  0.13625915  0.88623366  1
  O  O411  1  0.72393439  0.63977600  0.22823209  1
  O  O412  1  0.72316005  0.63901452  0.55815741  1
  O  O413  1  0.72624295  0.63784130  0.88951811  1
  O  O414  1  0.48626182  0.32910238  0.03066664  1
  O  O415  1  0.48552490  0.32910689  0.36614115  1
  O  O416  1  0.48708484  0.33279588  0.69878613  1
  O  O417  1  0.50318186  0.83970317  0.02326419  1
  O  O418  1  0.49703915  0.83696848  0.36976857  1
  O  O419  1  0.49540119  0.83261996  0.69275395  1
  O  O420  1  0.99251668  0.33413424  0.03128805  1
  O  O421  1  0.99485244  0.32586334  0.36016621  1
  O  O422  1  0.99360047  0.32254630  0.68628551  1
  O  O423  1  0.98939886  0.83284377  0.02960677  1
  O  O424  1  0.99383751  0.83597944  0.36317580  1
  O  O425  1  0.99554457  0.83810614  0.70092686  1
  O  O426  1  0.17310977  0.00732907  0.13852652  1
  O  O427  1  0.17087617  0.00479096  0.46884935  1
  O  O428  1  0.17505714  0.00473810  0.80495997  1
  O  O429  1  0.15974368  0.50462140  0.13585974  1
  O  O430  1  0.16274441  0.50867037  0.46479300  1
  O  O431  1  0.16667612  0.51231369  0.81011887  1
  O  O432  1  0.66529372  0.00666198  0.13018652  1
  O  O433  1  0.66899683  0.00411661  0.47465179  1
  O  O434  1  0.66200537  0.00354396  0.80356893  1
  O  O435  1  0.66889784  0.51166289  0.13495145  1
  O  O436  1  0.67078056  0.50927031  0.46803213  1
  O  O437  1  0.66536459  0.50858385  0.80061555  1
  O  O438  1  0.00756606  0.16033835  0.29824726  1
  O  O439  1  0.00871903  0.15502414  0.62984140  1
  O  O440  1  0.00705233  0.15409027  0.97321854  1
  O  O441  1  0.00577036  0.66849082  0.30333732  1
  O  O442  1  0.00364009  0.67010043  0.63884750  1
  O  O443  1  0.00913518  0.67121841  0.97414228  1
  O  O444  1  0.50471008  0.16933611  0.29899993  1
  O  O445  1  0.50101752  0.16103279  0.64186127  1
  O  O446  1  0.50570458  0.16641914  0.97032038  1
  O  O447  1  0.51305802  0.67109972  0.30260325  1
  O  O448  1  0.51116968  0.66853898  0.63307390  1
  O  O449  1  0.50973942  0.66771792  0.96582371  1
  O  O450  1  0.32791583  0.49060589  0.19814582  1
  O  O451  1  0.32590700  0.48814172  0.53123604  1
  O  O452  1  0.33326317  0.49298028  0.86594680  1
  O  O453  1  0.33153694  0.99274253  0.20375552  1
  O  O454  1  0.33636019  0.99586975  0.53106068  1
  O  O455  1  0.34668748  1.00179300  0.85527270  1
  O  O456  1  0.84475522  0.50423712  0.19313665  1
  O  O457  1  0.83413599  0.48840691  0.53401247  1
  O  O458  1  0.82748750  0.48866810  0.85965520  1
  O  O459  1  0.82859992  0.99115500  0.19571430  1
  O  O460  1  0.84174522  0.99521981  0.53341954  1
  O  O461  1  0.82955614  0.99118778  0.86360949  1
