# generated using pymatgen
data_Na31Fe20(SO4)36
_symmetry_space_group_name_H-M   'P 1'
_cell_length_a   18.06966934
_cell_length_b   18.06834288
_cell_length_c   19.69923675
_cell_angle_alpha   107.57621569
_cell_angle_beta   107.56946290
_cell_angle_gamma   90.72234158
_symmetry_Int_Tables_number   1
_chemical_formula_structural   Na31Fe20(SO4)36
_chemical_formula_sum   'Na62 Fe40 S72 O288'
_cell_volume   5807.09597202
_cell_formula_units_Z   2
loop_
 _symmetry_equiv_pos_site_id
 _symmetry_equiv_pos_as_xyz
  1  'x, y, z'
loop_
 _atom_site_type_symbol
 _atom_site_label
 _atom_site_symmetry_multiplicity
 _atom_site_fract_x
 _atom_site_fract_y
 _atom_site_fract_z
 _atom_site_occupancy
  Na  Na0  1  0.13817042  0.37132835  0.08535620  1
  Na  Na1  1  0.14210883  0.35269232  0.41153432  1
  Na  Na2  1  0.13165013  0.34925458  0.72836236  1
  Na  Na3  1  0.13889349  0.84648284  0.08852466  1
  Na  Na4  1  0.13263925  0.86805373  0.41692517  1
  Na  Na5  1  0.12943613  0.86494291  0.74823083  1
  Na  Na6  1  0.62886644  0.36934995  0.07867395  1
  Na  Na7  1  0.63147573  0.37899566  0.41843123  1
  Na  Na8  1  0.63988634  0.37268003  0.75853022  1
  Na  Na9  1  0.63803909  0.86468561  0.08114201  1
  Na  Na10  1  0.64104330  0.87339980  0.43022506  1
  Na  Na11  1  0.63148437  0.84670969  0.73905194  1
  Na  Na12  1  0.36769923  0.13638772  0.25768594  1
  Na  Na13  1  0.36306135  0.13794536  0.58597933  1
  Na  Na14  1  0.36452568  0.13164822  0.91474316  1
  Na  Na15  1  0.34807929  0.62657862  0.22417743  1
  Na  Na16  1  0.38019686  0.63917003  0.58745014  1
  Na  Na17  1  0.36769906  0.63934048  0.92060402  1
  Na  Na18  1  0.86684053  0.13244338  0.24791151  1
  Na  Na19  1  0.86046566  0.13706950  0.58122384  1
  Na  Na20  1  0.86299910  0.13468047  0.91229501  1
  Na  Na21  1  0.86748586  0.63223556  0.24860198  1
  Na  Na22  1  0.86188786  0.62845480  0.57656710  1
  Na  Na23  1  0.86143698  0.63155192  0.92201563  1
  Na  Na24  1  0.97703936  0.51876732  0.08462686  1
  Na  Na25  1  0.51122977  -0.01891426  0.74927634  1
  Na  Na26  1  0.98552321  0.51118776  0.75705167  1
  Na  Na27  1  0.48650490  0.00265442  0.09808233  1
  Na  Na28  1  0.99147658  0.51972141  0.39720261  1
  Na  Na29  1  0.49446830  0.52160740  0.73564061  1
  Na  Na30  1  0.98600793  0.03619158  0.43963172  1
  Na  Na31  1  0.49909758  0.54940083  0.44791209  1
  Na  Na32  1  1.01236447  -0.01980350  0.08983841  1
  Na  Na33  1  0.50652539  0.95151640  0.90666231  1
  Na  Na34  1  0.01073210  0.48594769  0.58051700  1
  Na  Na35  1  0.00346868  0.99350688  0.90414846  1
  Na  Na36  1  0.53937760  0.49790175  0.25647771  1
  Na  Na37  1  0.52193769  0.99759653  0.56517400  1
  Na  Na38  1  0.00739755  0.96034907  0.24879752  1
  Na  Na39  1  0.50546410  0.49110387  0.92763052  1
  Na  Na40  1  0.03151113  0.48312306  0.93053166  1
  Na  Na41  1  -0.04276126  1.01604346  0.62819612  1
  Na  Na42  1  0.25506875  0.25292068  -0.00325461  1
  Na  Na43  1  0.76532933  0.76117486  -0.01319101  1
  Na  Na44  1  0.24072976  0.72483762  0.01937952  1
  Na  Na45  1  0.76052467  0.26733480  -0.00874121  1
  Na  Na46  1  0.25518370  0.75311425  0.31245120  1
  Na  Na47  1  0.75052553  0.25307380  0.33048938  1
  Na  Na48  1  0.74428276  0.74246503  0.34310474  1
  Na  Na49  1  0.26446492  0.75934687  0.66341178  1
  Na  Na50  1  0.73364680  0.73563068  0.67775477  1
  Na  Na51  1  0.75415621  0.25787770  0.66426153  1
  Na  Na52  1  0.74965321  0.25424015  0.16183864  1
  Na  Na53  1  0.76545411  0.75664167  0.16020267  1
  Na  Na54  1  0.25125483  0.25731925  0.81783121  1
  Na  Na55  1  0.25930532  0.75820055  0.49494691  1
  Na  Na56  1  0.24260004  0.24244868  0.17716797  1
  Na  Na57  1  0.25634190  0.75067207  0.83199549  1
  Na  Na58  1  0.74958309  0.25307424  0.49533667  1
  Na  Na59  1  0.73435952  0.73755191  0.51128886  1
  Na  Na60  1  0.23502567  0.23988009  0.51451102  1
  Na  Na61  1  0.76258691  0.26469755  0.82904489  1
  Fe  Fe62  1  0.46584958  0.80154557  0.45397779  1
  Fe  Fe63  1  0.96808343  0.30596539  0.78762127  1
  Fe  Fe64  1  0.96342865  0.81454164  0.45808821  1
  Fe  Fe65  1  0.46470813  0.30700741  0.12003024  1
  Fe  Fe66  1  0.97050191  0.29568329  0.45441343  1
  Fe  Fe67  1  0.96146910  0.80557671  0.78305381  1
  Fe  Fe68  1  0.46744450  0.80802762  0.12448735  1
  Fe  Fe69  1  0.45979966  0.31630650  0.45340280  1
  Fe  Fe70  1  0.46064715  0.30653722  0.78192947  1
  Fe  Fe71  1  0.96609767  0.31165390  0.12317138  1
  Fe  Fe72  1  0.68877978  0.53747368  0.71233346  1
  Fe  Fe73  1  0.19347830  0.53310604  0.71478305  1
  Fe  Fe74  1  0.70120180  0.03206711  0.70991020  1
  Fe  Fe75  1  0.19430617  0.03732012  0.38549881  1
  Fe  Fe76  1  0.69844692  0.53109839  0.04249598  1
  Fe  Fe77  1  0.18651333  0.53635371  0.37450934  1
  Fe  Fe78  1  0.18762297  0.03752693  0.71337558  1
  Fe  Fe79  1  0.68835791  0.03368982  0.37753025  1
  Fe  Fe80  1  0.19492040  0.03060123  0.05052520  1
  Fe  Fe81  1  0.69221505  0.03664986  0.04492564  1
  Fe  Fe82  1  0.53222725  0.19037248  0.87874993  1
  Fe  Fe83  1  0.53297315  0.19451574  0.21521724  1
  Fe  Fe84  1  0.03528619  0.69473578  0.54886574  1
  Fe  Fe85  1  0.53103263  0.19554310  0.54350583  1
  Fe  Fe86  1  0.53895689  0.68943041  0.21189388  1
  Fe  Fe87  1  0.03151428  0.70214077  0.21078860  1
  Fe  Fe88  1  0.03637423  0.19046038  0.21437669  1
  Fe  Fe89  1  0.03351317  0.69370864  0.88800569  1
  Fe  Fe90  1  0.03746502  0.18784547  0.87965007  1
  Fe  Fe91  1  0.53498734  0.69935080  0.87735945  1
  Fe  Fe92  1  0.30706550  0.96660076  0.62150902  1
  Fe  Fe93  1  0.30213835  0.46846448  0.28377336  1
  Fe  Fe94  1  0.80708147  0.96498786  0.28538371  1
  Fe  Fe95  1  0.81375738  0.96415505  0.95231298  1
  Fe  Fe96  1  0.30679726  0.96194293  0.95185156  1
  Fe  Fe97  1  0.30329295  0.46988966  0.95682972  1
  Fe  Fe98  1  0.31528704  0.96511520  0.29115962  1
  Fe  Fe99  1  0.80204202  0.46840615  0.29127012  1
  Fe  Fe100  1  0.30626610  0.46829271  0.61502654  1
  Fe  Fe101  1  0.80787130  0.46390722  0.61854273  1
  S  S102  1  0.35951523  0.13799774  0.08415927  1
  S  S103  1  0.35748546  0.14447495  0.41885955  1
  S  S104  1  0.35899204  0.14102434  0.75004082  1
  S  S105  1  0.36706592  0.63879494  0.08006929  1
  S  S106  1  0.35165859  0.64271155  0.40958115  1
  S  S107  1  0.35807011  0.63949065  0.75303069  1
  S  S108  1  0.85960778  0.14256276  0.08024699  1
  S  S109  1  0.85170318  0.14100767  0.41293008  1
  S  S110  1  0.86131710  0.14263702  0.75189944  1
  S  S111  1  0.85690186  0.64188679  0.08609655  1
  S  S112  1  0.86224909  0.64258423  0.41760143  1
  S  S113  1  0.86186735  0.63753242  0.75034060  1
  S  S114  1  0.14023069  0.35731574  0.25185931  1
  S  S115  1  0.14048873  0.36281213  0.57883699  1
  S  S116  1  0.14340750  0.35375252  0.91358355  1
  S  S117  1  0.14478128  0.86569680  0.25344914  1
  S  S118  1  0.14074186  0.85955059  0.58697925  1
  S  S119  1  0.14090797  0.85710823  0.91668440  1
  S  S120  1  0.63969852  0.35514138  0.24741921  1
  S  S121  1  0.63851462  0.35980760  0.58361416  1
  S  S122  1  0.63400533  0.35659456  0.91504955  1
  S  S123  1  0.64319714  0.85765020  0.25027241  1
  S  S124  1  0.63585940  0.86197392  0.58226570  1
  S  S125  1  0.64609521  0.86322044  0.91636953  1
  S  S126  1  0.06765654  0.16340796  0.04213660  1
  S  S127  1  0.06226069  0.16080964  0.37230103  1
  S  S128  1  0.06126852  0.16597593  0.70900343  1
  S  S129  1  0.05720685  0.66733616  0.04263583  1
  S  S130  1  0.06796006  0.67762265  0.37779995  1
  S  S131  1  0.06687001  0.66664987  0.70989048  1
  S  S132  1  0.56337027  0.16568388  0.04042352  1
  S  S133  1  0.56825274  0.17768749  0.37718867  1
  S  S134  1  0.56966803  0.16983722  0.70863793  1
  S  S135  1  0.57511387  0.67458301  0.04211285  1
  S  S136  1  0.56092800  0.66964639  0.37475563  1
  S  S137  1  0.56623378  0.66605060  0.70925281  1
  S  S138  1  0.33344998  0.42828634  0.12492240  1
  S  S139  1  0.33007508  0.43984088  0.45662076  1
  S  S140  1  0.32802438  0.43151771  0.79101140  1
  S  S141  1  0.32925747  0.92963885  0.12388960  1
  S  S142  1  0.33151078  0.93166890  0.45874314  1
  S  S143  1  0.33043555  0.93824262  0.79065518  1
  S  S144  1  0.82617622  0.42792758  0.12601000  1
  S  S145  1  0.83763390  0.42821286  0.45842578  1
  S  S146  1  0.83574661  0.43584060  0.79330727  1
  S  S147  1  0.83300580  0.94035701  0.12310197  1
  S  S148  1  0.83097722  0.93901899  0.45704921  1
  S  S149  1  0.82815172  0.93198184  0.78929025  1
  S  S150  1  0.43058021  0.33055880  0.28933960  1
  S  S151  1  0.43078660  0.33264022  0.62314187  1
  S  S152  1  0.42707703  0.32734153  0.95392667  1
  S  S153  1  0.43004506  0.82333092  0.28942664  1
  S  S154  1  0.43102938  0.83344800  0.62227415  1
  S  S155  1  0.43681974  0.83345880  0.96202320  1
  S  S156  1  0.93070210  0.32547470  0.29091831  1
  S  S157  1  0.93286934  0.33081969  0.62444014  1
  S  S158  1  0.94318613  0.33103148  0.95979331  1
  S  S159  1  0.93535002  0.83617345  0.29729356  1
  S  S160  1  0.93011046  0.82398566  0.62168464  1
  S  S161  1  0.94182194  0.83510863  0.95887726  1
  S  S162  1  0.17124382  0.06548596  0.20907026  1
  S  S163  1  0.17188476  0.06479362  0.54611034  1
  S  S164  1  0.17172836  0.06344160  0.87889494  1
  S  S165  1  0.16059608  0.56471565  0.20582808  1
  S  S166  1  0.16865617  0.57125105  0.53967189  1
  S  S167  1  0.16783128  0.56428325  0.87436979  1
  S  S168  1  0.66857491  0.06691927  0.20679135  1
  S  S169  1  0.66741388  0.07545822  0.54043108  1
  S  S170  1  0.67078672  0.07027665  0.87480603  1
  S  S171  1  0.67366222  0.56578513  0.20768998  1
  S  S172  1  0.67646347  0.56473058  0.54843903  1
  S  S173  1  0.66475463  0.56789136  0.87568250  1
  O  O174  1  0.36907351  0.21666269  0.07590563  1
  O  O175  1  0.36817828  0.22232530  0.41068109  1
  O  O176  1  0.36909886  0.22016064  0.74300995  1
  O  O177  1  0.38046131  0.71718051  0.06922663  1
  O  O178  1  0.36420187  0.72446784  0.40480504  1
  O  O179  1  0.36127861  0.71631767  0.74409731  1
  O  O180  1  0.86996240  0.22110316  0.07120030  1
  O  O181  1  0.86458723  0.22073786  0.40698878  1
  O  O182  1  0.86772151  0.22612434  0.75082965  1
  O  O183  1  0.85564196  0.72033762  0.07879792  1
  O  O184  1  0.87507705  0.72053474  0.40755617  1
  O  O185  1  0.86906137  0.71604856  0.74095641  1
  O  O186  1  0.28048845  0.12903834  0.09194888  1
  O  O187  1  0.27904876  0.13441776  0.42871094  1
  O  O188  1  0.28047614  0.13252213  0.75900920  1
  O  O189  1  0.29030318  0.63278567  0.08865615  1
  O  O190  1  0.27038913  0.63681852  0.41328957  1
  O  O191  1  0.27977319  0.62391030  0.76265569  1
  O  O192  1  0.78004141  0.13513516  0.08801205  1
  O  O193  1  0.76838555  0.13440386  0.41214821  1
  O  O194  1  0.78259034  0.13255677  0.76171815  1
  O  O195  1  0.78166173  0.62466722  0.10058358  1
  O  O196  1  0.78602197  0.63612676  0.42742079  1
  O  O197  1  0.78389416  0.62608089  0.75752885  1
  O  O198  1  0.13117005  0.27779870  0.25892570  1
  O  O199  1  0.13608797  0.28812075  0.59115516  1
  O  O200  1  0.13674420  0.27164603  0.91683631  1
  O  O201  1  0.13113025  0.78651682  0.25958427  1
  O  O202  1  0.13155146  0.78158448  0.59813086  1
  O  O203  1  0.13169486  0.77797833  0.92380307  1
  O  O204  1  0.63153246  0.27320626  0.25068060  1
  O  O205  1  0.62785203  0.28029476  0.59128197  1
  O  O206  1  0.62170456  0.28017816  0.92900659  1
  O  O207  1  0.63559531  0.77799921  0.25731488  1
  O  O208  1  0.62795636  0.78779715  0.59639801  1
  O  O209  1  0.63380214  0.78517910  0.92499105  1
  O  O210  1  0.21971375  0.36797224  0.24511693  1
  O  O211  1  0.21816687  0.37787345  0.56874029  1
  O  O212  1  0.22324338  0.36597423  0.90780580  1
  O  O213  1  0.22643892  0.87264695  0.25128382  1
  O  O214  1  0.22064413  0.86606514  0.57975439  1
  O  O215  1  0.21917621  0.86554960  0.90613740  1
  O  O216  1  0.72136805  0.36547318  0.24565840  1
  O  O217  1  0.71772073  0.36531578  0.57435048  1
  O  O218  1  0.71119844  0.36088765  0.90637632  1
  O  O219  1  0.72059177  0.86758172  0.23831270  1
  O  O220  1  0.70584064  0.87153912  0.56188158  1
  O  O221  1  0.72937427  0.87233650  0.91933814  1
  O  O222  1  0.41863342  0.12954846  0.15237663  1
  O  O223  1  0.41667190  0.13605266  0.48704482  1
  O  O224  1  0.41803902  0.13201590  0.81805274  1
  O  O225  1  0.42806778  0.63115454  0.14716303  1
  O  O226  1  0.40715246  0.63234078  0.47629942  1
  O  O227  1  0.41832431  0.63318747  0.82147819  1
  O  O228  1  0.91771002  0.13522878  0.14893810  1
  O  O229  1  0.90437850  0.13077495  0.48103879  1
  O  O230  1  0.92008850  0.13331098  0.81979016  1
  O  O231  1  0.92008264  0.63900755  0.15613243  1
  O  O232  1  0.92458447  0.63172241  0.48351565  1
  O  O233  1  0.92188813  0.63049407  0.81876920  1
  O  O234  1  0.36830893  0.07849027  0.01682378  1
  O  O235  1  0.36303097  0.08394783  0.35044936  1
  O  O236  1  0.36774541  0.08277015  0.68232658  1
  O  O237  1  0.37401129  0.57888158  0.01107861  1
  O  O238  1  0.35936763  0.58629224  0.33974041  1
  O  O239  1  0.36764415  0.57837643  0.68576578  1
  O  O240  1  0.86722968  0.08299442  0.01247457  1
  O  O241  1  0.86241879  0.08296735  0.34496718  1
  O  O242  1  0.86789842  0.08949833  0.68267277  1
  O  O243  1  0.86715155  0.58238173  0.02127313  1
  O  O244  1  0.87017334  0.58171253  0.34917174  1
  O  O245  1  0.87476920  0.57870032  0.68389924  1
  O  O246  1  0.08244431  0.36281473  0.18199813  1
  O  O247  1  0.07991433  0.36780855  0.50926392  1
  O  O248  1  0.08541814  0.36174782  0.84392658  1
  O  O249  1  0.08936236  0.87969116  0.18815996  1
  O  O250  1  0.08334636  0.86570720  0.51781484  1
  O  O251  1  0.08074895  0.86752993  0.85015750  1
  O  O252  1  0.58451232  0.36067411  0.17546092  1
  O  O253  1  0.57977146  0.36850963  0.51624102  1
  O  O254  1  0.57352591  0.36256420  0.84599148  1
  O  O255  1  0.58235389  0.86663051  0.18386321  1
  O  O256  1  0.56684806  0.86958759  0.51606017  1
  O  O257  1  0.59285269  0.87396644  0.84826046  1
  O  O258  1  0.13053755  0.41563879  0.31924434  1
  O  O259  1  0.12871807  0.42665599  0.64377969  1
  O  O260  1  0.13199947  0.40878850  0.98004414  1
  O  O261  1  0.13612233  0.92367491  0.32338981  1
  O  O262  1  0.13243139  0.91960180  0.65396352  1
  O  O263  1  0.13585556  0.91603849  0.98607760  1
  O  O264  1  0.62505345  0.41147581  0.31118750  1
  O  O265  1  0.63436490  0.41769054  0.65349505  1
  O  O266  1  0.62441816  0.41932322  0.98057517  1
  O  O267  1  0.63856473  0.91513453  0.32036680  1
  O  O268  1  0.62953392  0.92733228  0.64873739  1
  O  O269  1  0.63267687  0.92255760  0.98361202  1
  O  O270  1  0.03253223  0.19409561  0.10361017  1
  O  O271  1  0.02210914  0.18722442  0.42932239  1
  O  O272  1  0.02888059  0.20004262  0.77379117  1
  O  O273  1  0.02994145  0.70863109  0.10632572  1
  O  O274  1  0.03287957  0.70597623  0.44018070  1
  O  O275  1  0.03152410  0.69721437  0.77121146  1
  O  O276  1  0.52660528  0.19543404  0.10132897  1
  O  O277  1  0.52885675  0.20680498  0.43603242  1
  O  O278  1  0.53165386  0.19780691  0.76888055  1
  O  O279  1  0.54037937  0.70279657  0.10451093  1
  O  O280  1  0.52163898  0.70708171  0.43237626  1
  O  O281  1  0.53207776  0.69035679  0.77214253  1
  O  O282  1  0.31390542  0.46058119  0.06265865  1
  O  O283  1  0.29733414  0.47595444  0.39505680  1
  O  O284  1  0.29786213  0.46452889  0.72740314  1
  O  O285  1  0.30019810  0.96801726  0.06321990  1
  O  O286  1  0.30479221  0.97085048  0.39974942  1
  O  O287  1  0.29221210  0.97514330  0.73120834  1
  O  O288  1  0.79433690  0.46167919  0.06541140  1
  O  O289  1  0.81490696  0.46527461  0.39935614  1
  O  O290  1  0.80501533  0.46432601  0.72625832  1
  O  O291  1  0.79890612  0.97912812  0.06388755  1
  O  O292  1  0.79858152  0.97300163  0.39280799  1
  O  O293  1  0.80041637  0.96904885  0.73060288  1
  O  O294  1  0.47159776  0.30172225  0.23056462  1
  O  O295  1  0.46742788  0.30444939  0.56185437  1
  O  O296  1  0.46416871  0.29592039  0.89355508  1
  O  O297  1  0.47368229  0.79716559  0.23333724  1
  O  O298  1  0.45075066  0.80571132  0.55119778  1
  O  O299  1  0.47478535  0.80849988  0.90356180  1
  O  O300  1  0.96725043  0.29834180  0.22912631  1
  O  O301  1  0.96641903  0.30510467  0.56323202  1
  O  O302  1  0.97879031  0.29400524  0.89857593  1
  O  O303  1  0.97221569  0.81017098  0.23804230  1
  O  O304  1  0.97111305  0.79464770  0.56225348  1
  O  O305  1  0.96880979  0.79831552  0.89091127  1
  O  O306  1  0.20134105  0.03361796  0.27274834  1
  O  O307  1  0.20703043  0.02759710  0.60751696  1
  O  O308  1  0.20267529  0.02634729  0.93988041  1
  O  O309  1  0.19176884  0.52849611  0.26958171  1
  O  O310  1  0.20131454  0.53824671  0.60254863  1
  O  O311  1  0.19854695  0.52810279  0.93357094  1
  O  O312  1  0.69601722  0.02814553  0.26590839  1
  O  O313  1  0.69226402  0.04457265  0.60359590  1
  O  O314  1  0.70103648  0.03454038  0.93612340  1
  O  O315  1  0.69926844  0.52456752  0.26417002  1
  O  O316  1  0.71202116  0.52784876  0.61133816  1
  O  O317  1  0.68660710  0.52893925  0.93366652  1
  O  O318  1  0.08424578  0.08057283  0.03671960  1
  O  O319  1  0.07955812  0.07778737  0.36611373  1
  O  O320  1  0.08517275  0.08704397  0.71311709  1
  O  O321  1  0.06074289  0.58426631  0.03631083  1
  O  O322  1  0.08412143  0.59519043  0.37264873  1
  O  O323  1  0.08231931  0.58356087  0.70371602  1
  O  O324  1  0.57984129  0.08323797  0.03445934  1
  O  O325  1  0.59281753  0.10013296  0.37604287  1
  O  O326  1  0.58827054  0.08816756  0.70219912  1
  O  O327  1  0.59178887  0.59237550  0.03308940  1
  O  O328  1  0.57108357  0.58966601  0.37676967  1
  O  O329  1  0.58454008  0.58233520  0.70184661  1
  O  O330  1  0.41741718  0.41163310  0.14347926  1
  O  O331  1  0.41147770  0.42351721  0.45844278  1
  O  O332  1  0.41144967  0.41608270  0.79846120  1
  O  O333  1  0.41101657  0.91333302  0.12818103  1
  O  O334  1  0.41124467  0.90727703  0.46148775  1
  O  O335  1  0.41132139  0.92839727  0.79179673  1
  O  O336  1  0.90713336  0.40921158  0.12707532  1
  O  O337  1  0.91851696  0.40461511  0.46640478  1
  O  O338  1  0.91799823  0.41453659  0.79700069  1
  O  O339  1  0.91478381  0.93063907  0.12788505  1
  O  O340  1  0.91250270  0.92018593  0.45891847  1
  O  O341  1  0.90969385  0.91110711  0.79466489  1
  O  O342  1  0.40900867  0.41006684  0.29233955  1
  O  O343  1  0.41200329  0.41420531  0.62949422  1
  O  O344  1  0.40862172  0.40746191  0.95530408  1
  O  O345  1  0.41120967  0.90359599  0.29351316  1
  O  O346  1  0.40830404  0.91583613  0.63160551  1
  O  O347  1  0.41778081  0.91681736  0.96846423  1
  O  O348  1  0.91266550  0.40721764  0.30044081  1
  O  O349  1  0.91817770  0.41549116  0.63681965  1
  O  O350  1  0.93806511  0.41348804  0.96612266  1
  O  O351  1  0.91761315  0.91961936  0.30374055  1
  O  O352  1  0.90942086  0.90145891  0.62366041  1
  O  O353  1  0.92266454  0.91687926  0.95828856  1
  O  O354  1  0.08886841  0.08335066  0.20238576  1
  O  O355  1  0.09224259  0.07793201  0.54429750  1
  O  O356  1  0.09111311  0.08175670  0.87785483  1
  O  O357  1  0.08320321  0.59228395  0.20776318  1
  O  O358  1  0.08500541  0.58419659  0.53444547  1
  O  O359  1  0.08567287  0.58284966  0.87171806  1
  O  O360  1  0.58785042  0.08772635  0.20181827  1
  O  O361  1  0.58421657  0.09278326  0.52942833  1
  O  O362  1  0.58739297  0.08484623  0.86823234  1
  O  O363  1  0.59258475  0.58534073  0.20487538  1
  O  O364  1  0.59994053  0.58513035  0.55295224  1
  O  O365  1  0.58101892  0.58530219  0.86416280  1
  O  O366  1  0.13956821  0.21387961  0.05702995  1
  O  O367  1  0.13448557  0.21234112  0.39174913  1
  O  O368  1  0.13008689  0.21789081  0.72006011  1
  O  O369  1  0.13241344  0.70814351  0.05042162  1
  O  O370  1  0.14005811  0.72867733  0.39484063  1
  O  O371  1  0.13945360  0.71674094  0.72566406  1
  O  O372  1  0.63506501  0.21693212  0.05698683  1
  O  O373  1  0.63530899  0.23515449  0.39169554  1
  O  O374  1  0.64019533  0.22379863  0.72617716  1
  O  O375  1  0.64639102  0.72704191  0.05874287  1
  O  O376  1  0.63551718  0.71851497  0.39295404  1
  O  O377  1  0.63982893  0.71611059  0.72912630  1
  O  O378  1  0.28080035  0.35616997  0.10710325  1
  O  O379  1  0.28048375  0.36909681  0.44401199  1
  O  O380  1  0.27788284  0.36015334  0.77622948  1
  O  O381  1  0.27785793  0.85808208  0.10569725  1
  O  O382  1  0.27560531  0.86280458  0.44139091  1
  O  O383  1  0.28233014  0.86421554  0.77522565  1
  O  O384  1  0.77527244  0.35531289  0.11194440  1
  O  O385  1  0.78068873  0.36025604  0.44234900  1
  O  O386  1  0.78368750  0.36396712  0.77860601  1
  O  O387  1  0.78344751  0.86655235  0.10418710  1
  O  O388  1  0.78004025  0.86713103  0.44091768  1
  O  O389  1  0.77557153  0.86275242  0.77657215  1
  O  O390  1  0.36255364  0.27395223  0.27083194  1
  O  O391  1  0.36116070  0.27930706  0.60727731  1
  O  O392  1  0.35636047  0.27391764  0.93795910  1
  O  O393  1  0.36068319  0.76811379  0.26873266  1
  O  O394  1  0.36288527  0.78031459  0.61353097  1
  O  O395  1  0.36495154  0.78205472  0.94476273  1
  O  O396  1  0.85876893  0.27206421  0.27110667  1
  O  O397  1  0.85903196  0.28154765  0.60807402  1
  O  O398  1  0.86643682  0.28520085  0.94065430  1
  O  O399  1  0.86296218  0.78564960  0.28114838  1
  O  O400  1  0.86233344  0.76703170  0.60424834  1
  O  O401  1  0.87301998  0.78685377  0.95221389  1
  O  O402  1  0.22249761  0.13408153  0.21874274  1
  O  O403  1  0.22371583  0.13539175  0.56098415  1
  O  O404  1  0.22395778  0.13446897  0.89521005  1
  O  O405  1  0.21758026  0.63155029  0.22102062  1
  O  O406  1  0.21653463  0.64409133  0.55324189  1
  O  O407  1  0.21815003  0.63662961  0.88881633  1
  O  O408  1  0.72294008  0.13675179  0.22337140  1
  O  O409  1  0.71923825  0.14681775  0.55415230  1
  O  O410  1  0.72052576  0.14357108  0.89192666  1
  O  O411  1  0.72681479  0.63779771  0.22811818  1
  O  O412  1  0.73095437  0.63632845  0.56707652  1
  O  O413  1  0.71792305  0.63881489  0.89519346  1
  O  O414  1  0.48561716  0.33024223  0.02726155  1
  O  O415  1  0.48933792  0.33458446  0.36297455  1
  O  O416  1  0.49125544  0.33502877  0.69542659  1
  O  O417  1  0.49431572  0.83891670  0.03702284  1
  O  O418  1  0.48624985  0.82604829  0.36492003  1
  O  O419  1  0.49835408  0.83965026  0.68782460  1
  O  O420  1  0.99715050  0.32409410  0.03175223  1
  O  O421  1  0.98996516  0.32149689  0.36076137  1
  O  O422  1  0.99153037  0.32752796  0.69532591  1
  O  O423  1  1.00816220  0.84559819  0.02693173  1
  O  O424  1  0.99335098  0.83905612  0.37104795  1
  O  O425  1  0.99023741  0.82537117  0.69485152  1
  O  O426  1  0.16572729  0.00167925  0.13694943  1
  O  O427  1  0.17219169  0.00543709  0.47327241  1
  O  O428  1  0.16837445  0.00527181  0.80606262  1
  O  O429  1  0.15124968  0.50243329  0.13570336  1
  O  O430  1  0.16614137  0.51146352  0.46724485  1
  O  O431  1  0.16108036  0.50574550  0.79930918  1
  O  O432  1  0.66469984  0.00811713  0.13320428  1
  O  O433  1  0.66868249  0.01381909  0.47030740  1
  O  O434  1  0.66925441  0.01190431  0.80233024  1
  O  O435  1  0.66938725  0.51056943  0.13233040  1
  O  O436  1  0.67410530  0.50697634  0.47742101  1
  O  O437  1  0.66665889  0.50982568  0.80310284  1
  O  O438  1  0.00659002  0.15844207  0.29706905  1
  O  O439  1  -0.00223966  0.15382491  0.63877376  1
  O  O440  1  0.00828095  0.16011179  0.96919500  1
  O  O441  1  0.00928654  0.67822328  0.30665583  1
  O  O442  1  0.00851445  0.66411164  0.63676204  1
  O  O443  1  -0.00180750  0.67147425  0.97036226  1
  O  O444  1  0.50801064  0.17065530  0.30317968  1
  O  O445  1  0.51030883  0.16819525  0.63602206  1
  O  O446  1  0.50453617  0.16479058  0.96818316  1
  O  O447  1  0.50778688  0.66584844  0.29856183  1
  O  O448  1  0.50799664  0.66723649  0.64032431  1
  O  O449  1  0.51487138  0.67623325  0.97102512  1
  O  O450  1  0.32532583  0.48848353  0.19292643  1
  O  O451  1  0.33411057  0.50060352  0.52954282  1
  O  O452  1  0.32934743  0.49261456  0.86236089  1
  O  O453  1  0.33025852  0.98872182  0.19591928  1
  O  O454  1  0.33792207  0.99140795  0.53194440  1
  O  O455  1  0.33184926  0.99371477  0.86560704  1
  O  O456  1  0.83168866  0.48546267  0.20062310  1
  O  O457  1  0.84262593  0.48797325  0.53236634  1
  O  O458  1  0.83942857  0.49716299  0.86174883  1
  O  O459  1  0.83082421  0.99499121  0.19703976  1
  O  O460  1  0.83629914  0.99981761  0.52739459  1
  O  O461  1  0.83558409  0.99281535  0.86445689  1
