# generated using pymatgen
data_Na31Fe20(SO4)36
_symmetry_space_group_name_H-M   'P 1'
_cell_length_a   18.08373072
_cell_length_b   18.08602103
_cell_length_c   19.72691692
_cell_angle_alpha   107.57115076
_cell_angle_beta   107.59862077
_cell_angle_gamma   90.77802207
_symmetry_Int_Tables_number   1
_chemical_formula_structural   Na31Fe20(SO4)36
_chemical_formula_sum   'Na62 Fe40 S72 O288'
_cell_volume   5823.87387527
_cell_formula_units_Z   2
loop_
 _symmetry_equiv_pos_site_id
 _symmetry_equiv_pos_as_xyz
  1  'x, y, z'
loop_
 _atom_site_type_symbol
 _atom_site_label
 _atom_site_symmetry_multiplicity
 _atom_site_fract_x
 _atom_site_fract_y
 _atom_site_fract_z
 _atom_site_occupancy
  Na  Na0  1  0.12470869  0.34415943  0.06345715  1
  Na  Na1  1  0.12486864  0.37152441  0.40955351  1
  Na  Na2  1  0.12610719  0.36899598  0.75006953  1
  Na  Na3  1  0.12946782  0.85136578  0.06967066  1
  Na  Na4  1  0.14573900  0.86137426  0.41823824  1
  Na  Na5  1  0.17378059  0.84969656  0.77492985  1
  Na  Na6  1  0.62915246  0.36710613  0.08060236  1
  Na  Na7  1  0.63188629  0.36622087  0.41592886  1
  Na  Na8  1  0.63009093  0.37113831  0.75040332  1
  Na  Na9  1  0.62707306  0.86687358  0.07992045  1
  Na  Na10  1  0.66129252  0.87232435  0.44858050  1
  Na  Na11  1  0.64237642  0.87045657  0.75111409  1
  Na  Na12  1  0.36379330  0.13070482  0.24554387  1
  Na  Na13  1  0.37201845  0.13279623  0.58690791  1
  Na  Na14  1  0.35249697  0.13417852  0.90848305  1
  Na  Na15  1  0.36496037  0.63559578  0.25466954  1
  Na  Na16  1  0.36908039  0.63948703  0.59257720  1
  Na  Na17  1  0.31484268  0.62731336  0.87306980  1
  Na  Na18  1  0.86402321  0.13214431  0.24497140  1
  Na  Na19  1  0.86902879  0.14599682  0.60020848  1
  Na  Na20  1  0.87277449  0.13872502  0.90603805  1
  Na  Na21  1  0.87121133  0.63074297  0.25392083  1
  Na  Na22  1  0.86210570  0.63814109  0.57946146  1
  Na  Na23  1  0.87377866  0.63318970  0.91613491  1
  Na  Na24  1  0.95779087  0.02094490  0.75323722  1
  Na  Na25  1  0.49195780  0.00552350  0.41338546  1
  Na  Na26  1  0.99184706  0.02590637  0.07355842  1
  Na  Na27  1  0.49129516  0.51392241  0.41455208  1
  Na  Na28  1  0.99232353  0.54255033  0.76769105  1
  Na  Na29  1  0.48327040  0.50678548  0.09425479  1
  Na  Na30  1  1.01067434  0.45624453  0.12163158  1
  Na  Na31  1  0.51667108  -0.00244242  0.75605319  1
  Na  Na32  1  0.99471055  0.00703645  0.42176537  1
  Na  Na33  1  0.02392020  0.99063834  0.90996051  1
  Na  Na34  1  0.01516113  0.98655317  0.24351612  1
  Na  Na35  1  0.50949330  0.99231603  0.23452418  1
  Na  Na36  1  0.48549576  0.52518241  0.89186249  1
  Na  Na37  1  0.55997487  1.00485147  0.60296680  1
  Na  Na38  1  0.45876700  1.01199442  0.96942377  1
  Na  Na39  1  0.06139491  0.50238389  0.59975654  1
  Na  Na40  1  -0.02421012  1.00576038  0.59771851  1
  Na  Na41  1  0.00637924  0.44749462  0.89406398  1
  Na  Na42  1  0.74270849  0.74438114  0.35053426  1
  Na  Na43  1  0.75091133  0.75226202  -0.00293626  1
  Na  Na44  1  0.74963687  0.24342793  0.66865383  1
  Na  Na45  1  0.24815063  0.25206264  0.33064178  1
  Na  Na46  1  0.24957830  0.25136413  0.66696255  1
  Na  Na47  1  0.23778458  0.23336787  -0.00071735  1
  Na  Na48  1  0.76208102  0.77380492  0.64555908  1
  Na  Na49  1  0.76509694  0.26015929  -0.00640420  1
  Na  Na50  1  0.75749000  0.25686814  0.32739889  1
  Na  Na51  1  0.24956012  0.75518794  -0.01941565  1
  Na  Na52  1  0.22126778  0.23666188  0.83263055  1
  Na  Na53  1  0.75630316  0.75949439  0.82689909  1
  Na  Na54  1  0.24816247  0.24897195  0.49928364  1
  Na  Na55  1  0.76421690  0.26284967  0.15732099  1
  Na  Na56  1  0.24267693  0.74081140  0.17461362  1
  Na  Na57  1  0.74939007  0.24907676  0.49931969  1
  Na  Na58  1  0.24548255  0.74039809  0.50852112  1
  Na  Na59  1  0.74672092  0.74809617  0.17336857  1
  Na  Na60  1  0.24800686  0.24780081  0.16492265  1
  Na  Na61  1  0.77592948  0.26246113  0.82734014  1
  Fe  Fe62  1  0.46250720  0.31439737  0.45838278  1
  Fe  Fe63  1  0.46331965  0.30916215  0.78693925  1
  Fe  Fe64  1  0.96760266  0.80215886  0.11798537  1
  Fe  Fe65  1  0.46104891  0.80341354  0.11212410  1
  Fe  Fe66  1  0.46523438  0.80964271  0.45182527  1
  Fe  Fe67  1  0.46080323  0.81047369  0.78443691  1
  Fe  Fe68  1  0.96461429  0.31200812  0.45644221  1
  Fe  Fe69  1  0.96796867  0.80885197  0.45781738  1
  Fe  Fe70  1  0.96967068  0.79850661  0.79105520  1
  Fe  Fe71  1  0.46367715  0.31101420  0.12306349  1
  Fe  Fe72  1  0.68426950  0.53847141  0.71028773  1
  Fe  Fe73  1  0.20274886  0.02580026  0.03926939  1
  Fe  Fe74  1  0.18769608  0.53307724  0.04746921  1
  Fe  Fe75  1  0.69012730  0.53657354  0.04823402  1
  Fe  Fe76  1  0.69611902  0.03362264  0.38196814  1
  Fe  Fe77  1  0.19539633  0.03398060  0.37933118  1
  Fe  Fe78  1  0.68763515  0.03695375  0.04635027  1
  Fe  Fe79  1  0.18787893  0.53718142  0.37705329  1
  Fe  Fe80  1  0.19840841  0.02438732  0.71307445  1
  Fe  Fe81  1  0.69027171  0.53953078  0.38216335  1
  Fe  Fe82  1  0.03589359  0.19613583  0.55164010  1
  Fe  Fe83  1  0.03823096  0.69095031  0.55198050  1
  Fe  Fe84  1  0.53755890  0.19490685  0.88251677  1
  Fe  Fe85  1  0.53383733  0.69484541  0.54966744  1
  Fe  Fe86  1  0.02975696  0.20061990  0.20910305  1
  Fe  Fe87  1  0.53606755  0.19248135  0.21360823  1
  Fe  Fe88  1  0.53442234  0.19628196  0.54929117  1
  Fe  Fe89  1  0.53391641  0.69668429  0.21757615  1
  Fe  Fe90  1  0.03687573  0.68754818  0.21424792  1
  Fe  Fe91  1  0.53003835  0.69475927  0.87743036  1
  Fe  Fe92  1  0.81087479  0.46691588  0.29181806  1
  Fe  Fe93  1  0.80891113  0.46504369  0.62217195  1
  Fe  Fe94  1  0.30564980  0.46506337  0.28728652  1
  Fe  Fe95  1  0.31230854  0.96280176  0.61723835  1
  Fe  Fe96  1  0.30823520  0.96284891  0.28445733  1
  Fe  Fe97  1  0.30408132  0.47141498  0.62403984  1
  Fe  Fe98  1  0.80905574  0.96479503  0.28430359  1
  Fe  Fe99  1  0.80749689  0.47013849  0.95576665  1
  Fe  Fe100  1  0.80383359  0.96711310  0.94974993  1
  Fe  Fe101  1  0.30341116  0.46487811  0.94985846  1
  S  S102  1  0.36294952  0.14233104  0.08460396  1
  S  S103  1  0.36130274  0.14084920  0.41549487  1
  S  S104  1  0.36150464  0.13991954  0.75086174  1
  S  S105  1  0.35977163  0.63761717  0.08570116  1
  S  S106  1  0.36151168  0.64109723  0.41657326  1
  S  S107  1  0.36199211  0.63898408  0.74679832  1
  S  S108  1  0.85677888  0.13836557  0.08477038  1
  S  S109  1  0.86197474  0.14039992  0.41561577  1
  S  S110  1  0.86269839  0.14532627  0.74599314  1
  S  S111  1  0.85556770  0.64427939  0.08669713  1
  S  S112  1  0.85914217  0.64314875  0.41785272  1
  S  S113  1  0.85082806  0.64265416  0.74436605  1
  S  S114  1  0.14193105  0.36008117  0.24652394  1
  S  S115  1  0.14297269  0.35529036  0.57865969  1
  S  S116  1  0.14424085  0.35652308  0.91935417  1
  S  S117  1  0.14058552  0.85888970  0.24964837  1
  S  S118  1  0.14452969  0.85547947  0.57943652  1
  S  S119  1  0.13625156  0.85447169  0.92013235  1
  S  S120  1  0.64011656  0.36094424  0.25165307  1
  S  S121  1  0.63960788  0.36036278  0.58447377  1
  S  S122  1  0.63918852  0.36338978  0.91689228  1
  S  S123  1  0.63975925  0.86090838  0.24860722  1
  S  S124  1  0.63657284  0.86032106  0.58565527  1
  S  S125  1  0.63672088  0.86227684  0.91704993  1
  S  S126  1  0.07070166  0.15564550  0.03929956  1
  S  S127  1  0.06684726  0.16680946  0.37140840  1
  S  S128  1  0.08000800  0.15944508  0.70010424  1
  S  S129  1  0.06409315  0.66623869  0.04748373  1
  S  S130  1  0.06763280  0.67394435  0.37810499  1
  S  S131  1  0.05988886  0.66688912  0.70843535  1
  S  S132  1  0.56689307  0.17418790  0.04584824  1
  S  S133  1  0.56532828  0.16772852  0.37393791  1
  S  S134  1  0.56712558  0.17564655  0.71553761  1
  S  S135  1  0.56557957  0.66970247  0.04262084  1
  S  S136  1  0.56652949  0.67328862  0.37685860  1
  S  S137  1  0.56971978  0.67796772  0.71286231  1
  S  S138  1  0.32770572  0.43092484  0.12521586  1
  S  S139  1  0.32655067  0.43333981  0.45599372  1
  S  S140  1  0.32979596  0.42977403  0.79101563  1
  S  S141  1  0.32965196  0.93049813  0.12462300  1
  S  S142  1  0.33497537  0.93520561  0.45685618  1
  S  S143  1  0.34671027  0.94001434  0.79167410  1
  S  S144  1  0.82104125  0.43527868  0.12575861  1
  S  S145  1  0.82486286  0.43253450  0.45689040  1
  S  S146  1  0.82584060  0.44124519  0.78645176  1
  S  S147  1  0.82940852  0.92956119  0.12330307  1
  S  S148  1  0.83661244  0.93890351  0.45618601  1
  S  S149  1  0.83841522  0.92641606  0.79438417  1
  S  S150  1  0.43187194  0.32858428  0.29267734  1
  S  S151  1  0.42751235  0.32768017  0.62180496  1
  S  S152  1  0.42995641  0.32919782  0.95824289  1
  S  S153  1  0.43554071  0.83165584  0.28959462  1
  S  S154  1  0.43495119  0.83277182  0.62302552  1
  S  S155  1  0.42749518  0.82097986  0.95424725  1
  S  S156  1  0.92849942  0.32580590  0.29089770  1
  S  S157  1  0.93450318  0.33184290  0.62227064  1
  S  S158  1  0.92817862  0.34343872  0.96145855  1
  S  S159  1  0.93638237  0.83397429  0.29259739  1
  S  S160  1  0.93964058  0.82847340  0.62728855  1
  S  S161  1  0.92719931  0.83087575  0.95918143  1
  S  S162  1  0.17214942  0.06341968  0.20671902  1
  S  S163  1  0.17403387  0.06712088  0.53992661  1
  S  S164  1  0.16830987  0.05605819  0.86983205  1
  S  S165  1  0.17165111  0.56567005  0.20969312  1
  S  S166  1  0.17396333  0.56685531  0.53792254  1
  S  S167  1  0.16015743  0.55530114  0.88108781  1
  S  S168  1  0.66987876  0.06756220  0.21123982  1
  S  S169  1  0.66447941  0.07224930  0.53751246  1
  S  S170  1  0.67244020  0.06939713  0.88022571  1
  S  S171  1  0.66721837  0.56974694  0.21093271  1
  S  S172  1  0.66598007  0.56746307  0.54121743  1
  S  S173  1  0.67048726  0.57049742  0.87704835  1
  O  O174  1  0.36676603  0.22586062  0.08511614  1
  O  O175  1  0.37027112  0.21955673  0.40700196  1
  O  O176  1  0.36664518  0.21843029  0.74076268  1
  O  O177  1  0.36667894  0.71638852  0.07723536  1
  O  O178  1  0.37359691  0.71726115  0.40529867  1
  O  O179  1  0.37782469  0.71584266  0.73669830  1
  O  O180  1  0.86009456  0.21685181  0.07948845  1
  O  O181  1  0.86923875  0.21984461  0.40869650  1
  O  O182  1  0.87041684  0.21953704  0.72868961  1
  O  O183  1  0.86509208  0.72541608  0.08295063  1
  O  O184  1  0.87048881  0.72267064  0.41046843  1
  O  O185  1  0.86597957  0.72322703  0.73876338  1
  O  O186  1  0.28353017  0.12717484  0.09162443  1
  O  O187  1  0.28088220  0.13155188  0.42039286  1
  O  O188  1  0.28427479  0.12767994  0.76110826  1
  O  O189  1  0.28310178  0.62766522  0.09736689  1
  O  O190  1  0.28176892  0.63228245  0.42167915  1
  O  O191  1  0.28526752  0.63040847  0.75384559  1
  O  O192  1  0.78133016  0.12291204  0.09908357  1
  O  O193  1  0.78281930  0.12975019  0.42287594  1
  O  O194  1  0.78482057  0.13856877  0.75642861  1
  O  O195  1  0.77582457  0.63526712  0.09414764  1
  O  O196  1  0.77853430  0.63435262  0.42244062  1
  O  O197  1  0.76917310  0.63839040  0.74675789  1
  O  O198  1  0.13028161  0.28119222  0.25593908  1
  O  O199  1  0.13515902  0.27117399  0.57592141  1
  O  O200  1  0.13724234  0.28218741  0.93364143  1
  O  O201  1  0.13052269  0.78120375  0.25758976  1
  O  O202  1  0.13803739  0.77315127  0.57775762  1
  O  O203  1  0.12064160  0.78494133  0.93858449  1
  O  O204  1  0.62973876  0.28211174  0.26090832  1
  O  O205  1  0.63120595  0.28134292  0.59356240  1
  O  O206  1  0.63054899  0.28490482  0.92663847  1
  O  O207  1  0.63250606  0.78039537  0.25381688  1
  O  O208  1  0.62459283  0.77915049  0.59084951  1
  O  O209  1  0.62897007  0.78417999  0.92766052  1
  O  O210  1  0.22606288  0.36549668  0.24751785  1
  O  O211  1  0.22272089  0.36747349  0.57325277  1
  O  O212  1  0.22678813  0.36749589  0.91601774  1
  O  O213  1  0.21951662  0.86855846  0.24196688  1
  O  O214  1  0.22080163  0.87042118  0.56675862  1
  O  O215  1  0.21062107  0.85893902  0.90654131  1
  O  O216  1  0.72000869  0.36801603  0.24492544  1
  O  O217  1  0.71903555  0.36937206  0.57726107  1
  O  O218  1  0.71800285  0.37231768  0.90889850  1
  O  O219  1  0.71731149  0.87075083  0.23772974  1
  O  O220  1  0.71245834  0.86827536  0.57562580  1
  O  O221  1  0.71577280  0.87092367  0.90840662  1
  O  O222  1  0.42145308  0.13364035  0.15299706  1
  O  O223  1  0.41838333  0.13343231  0.48468493  1
  O  O224  1  0.42333996  0.13568069  0.81885674  1
  O  O225  1  0.42184451  0.63140743  0.15390210  1
  O  O226  1  0.41907376  0.63424223  0.48673280  1
  O  O227  1  0.42255539  0.62973673  0.81562565  1
  O  O228  1  0.92031977  0.12861186  0.15037766  1
  O  O229  1  0.92189967  0.13109317  0.48239284  1
  O  O230  1  0.92383051  0.14314166  0.81525925  1
  O  O231  1  0.91377021  0.63440634  0.15376226  1
  O  O232  1  0.91669196  0.63460274  0.48535369  1
  O  O233  1  0.90529412  0.63102495  0.81092758  1
  O  O234  1  0.37289416  0.09139937  0.01601216  1
  O  O235  1  0.37205457  0.08095949  0.34924147  1
  O  O236  1  0.36994209  0.08113338  0.68284835  1
  O  O237  1  0.36963199  0.57753671  0.01943245  1
  O  O238  1  0.37297580  0.57800264  0.35192809  1
  O  O239  1  0.37174533  0.57811935  0.67975563  1
  O  O240  1  0.86485098  0.07975093  0.01617010  1
  O  O241  1  0.87043375  0.08242014  0.34684344  1
  O  O242  1  0.87131662  0.08045153  0.68136869  1
  O  O243  1  0.86088631  0.58899622  0.01644920  1
  O  O244  1  0.86543011  0.58434292  0.34884606  1
  O  O245  1  0.85859054  0.58456117  0.67520477  1
  O  O246  1  0.09020588  0.36582296  0.17623702  1
  O  O247  1  0.08475274  0.36645656  0.51091784  1
  O  O248  1  0.08932577  0.36081559  0.84953067  1
  O  O249  1  0.08135578  0.86939729  0.18209474  1
  O  O250  1  0.08195676  0.86939997  0.51575906  1
  O  O251  1  0.07242761  0.86231016  0.85194288  1
  O  O252  1  0.58224894  0.36700111  0.18233402  1
  O  O253  1  0.58155605  0.36392505  0.51394433  1
  O  O254  1  0.58005898  0.37110364  0.84912445  1
  O  O255  1  0.57835975  0.87093713  0.18260329  1
  O  O256  1  0.57488297  0.87012114  0.51730566  1
  O  O257  1  0.57770885  0.86939901  0.84943822  1
  O  O258  1  0.13227247  0.41950145  0.31315299  1
  O  O259  1  0.13210377  0.40714303  0.64656959  1
  O  O260  1  0.13275141  0.41968426  0.98472712  1
  O  O261  1  0.13214270  0.91977820  0.31713250  1
  O  O262  1  0.14182606  0.90831804  0.65197107  1
  O  O263  1  0.13023961  0.92406355  0.98473568  1
  O  O264  1  0.63233763  0.42053256  0.31888293  1
  O  O265  1  0.62909809  0.41895449  0.65048319  1
  O  O266  1  0.63059062  0.42242535  0.98470203  1
  O  O267  1  0.63386428  0.91808180  0.31821110  1
  O  O268  1  0.62630610  0.91675301  0.65266406  1
  O  O269  1  0.63049525  0.92188306  0.98583369  1
  O  O270  1  0.04059366  0.17548182  0.10419494  1
  O  O271  1  0.02995440  0.19516096  0.43118176  1
  O  O272  1  0.06327625  0.18720197  0.76950450  1
  O  O273  1  0.02888565  0.69943254  0.11202836  1
  O  O274  1  0.02639927  0.70043238  0.43560692  1
  O  O275  1  0.01989081  0.70195400  0.76650717  1
  O  O276  1  0.52997298  0.20557791  0.10666901  1
  O  O277  1  0.53042489  0.19820471  0.43525418  1
  O  O278  1  0.52809081  0.21234627  0.77424134  1
  O  O279  1  0.52906513  0.70104027  0.10339502  1
  O  O280  1  0.53129257  0.70382079  0.43845699  1
  O  O281  1  0.53418304  0.70918901  0.77411682  1
  O  O282  1  0.29790585  0.46839121  0.06593513  1
  O  O283  1  0.29557765  0.47089864  0.39588450  1
  O  O284  1  0.30500472  0.46189323  0.72913970  1
  O  O285  1  0.30136153  0.96836360  0.06636553  1
  O  O286  1  0.30157016  0.97145168  0.39521210  1
  O  O287  1  0.30601041  0.96691918  0.72401767  1
  O  O288  1  0.79143207  0.47586020  0.06693959  1
  O  O289  1  0.79536237  0.47091810  0.39681403  1
  O  O290  1  0.78619222  0.47942120  0.72711622  1
  O  O291  1  0.80082553  0.96361521  0.06145336  1
  O  O292  1  0.80359056  0.96828378  0.38901516  1
  O  O293  1  0.82675488  0.95744397  0.73336095  1
  O  O294  1  0.47036157  0.30188766  0.23319643  1
  O  O295  1  0.46702120  0.29774803  0.56170810  1
  O  O296  1  0.46858724  0.30087921  0.89899844  1
  O  O297  1  0.47208743  0.80158537  0.22845196  1
  O  O298  1  0.46571245  0.79876659  0.55861975  1
  O  O299  1  0.46625233  0.79354074  0.89350361  1
  O  O300  1  0.96731379  0.29882312  0.23360951  1
  O  O301  1  0.97088565  0.30000027  0.55837913  1
  O  O302  1  0.94474808  0.33351023  0.89167216  1
  O  O303  1  0.97117959  0.80298227  0.23112153  1
  O  O304  1  0.98161697  0.79558533  0.56977814  1
  O  O305  1  0.95539147  0.80050850  0.89451492  1
  O  O306  1  0.20436312  0.02915609  0.26979948  1
  O  O307  1  0.20398983  0.03114756  0.60044506  1
  O  O308  1  0.20318849  0.03065916  0.93689913  1
  O  O309  1  0.20460304  0.53146561  0.27238047  1
  O  O310  1  0.19977122  0.52715878  0.59550071  1
  O  O311  1  0.20850535  0.53067489  0.94897343  1
  O  O312  1  0.70098985  0.03036103  0.27169876  1
  O  O313  1  0.68449157  0.04149681  0.59924997  1
  O  O314  1  0.70231106  0.03568260  0.94495854  1
  O  O315  1  0.69522832  0.53250646  0.27103871  1
  O  O316  1  0.69279120  0.52718983  0.59912008  1
  O  O317  1  0.70045885  0.53347529  0.93795792  1
  O  O318  1  0.09840032  0.07487369  0.03275250  1
  O  O319  1  0.08351774  0.08354485  0.36515555  1
  O  O320  1  0.09659989  0.07466256  0.68370855  1
  O  O321  1  0.08497179  0.58719827  0.04922918  1
  O  O322  1  0.08716646  0.59369079  0.37195555  1
  O  O323  1  0.07339177  0.58799113  0.71270431  1
  O  O324  1  0.58339190  0.09274997  0.04302644  1
  O  O325  1  0.58063668  0.08438021  0.36563500  1
  O  O326  1  0.57898898  0.09630388  0.71738586  1
  O  O327  1  0.58264898  0.58810298  0.03991286  1
  O  O328  1  0.58406215  0.59203121  0.37371904  1
  O  O329  1  0.59045741  0.59878615  0.71200832  1
  O  O330  1  0.40980803  0.41449555  0.12850053  1
  O  O331  1  0.40765869  0.41573422  0.45696062  1
  O  O332  1  0.41263277  0.40935175  0.80128398  1
  O  O333  1  0.41069349  0.90997291  0.12902914  1
  O  O334  1  0.41711856  0.92162266  0.45879125  1
  O  O335  1  0.42724365  0.92242112  0.78793082  1
  O  O336  1  0.89912751  0.41502360  0.13144610  1
  O  O337  1  0.90509468  0.41372815  0.46156973  1
  O  O338  1  0.90535441  0.43384259  0.78395102  1
  O  O339  1  0.91134833  0.91077657  0.13104885  1
  O  O340  1  0.91898381  0.91995953  0.45980799  1
  O  O341  1  0.92073422  0.90037068  0.81294942  1
  O  O342  1  0.41228341  0.40962948  0.29972446  1
  O  O343  1  0.40201928  0.40360217  0.61994693  1
  O  O344  1  0.41122919  0.41066992  0.96398474  1
  O  O345  1  0.41946115  0.91433182  0.29405666  1
  O  O346  1  0.42190478  0.91605263  0.62812121  1
  O  O347  1  0.40315919  0.89740853  0.95682287  1
  O  O348  1  0.90538546  0.40474403  0.29506150  1
  O  O349  1  0.91428268  0.41246325  0.62328667  1
  O  O350  1  0.90767785  0.42751211  0.98883789  1
  O  O351  1  0.92155308  0.91745143  0.29707712  1
  O  O352  1  0.93503156  0.91123568  0.63523903  1
  O  O353  1  0.91262113  0.91491445  0.97138082  1
  O  O354  1  0.08884456  0.07453327  0.20051227  1
  O  O355  1  0.09280658  0.08710066  0.53279075  1
  O  O356  1  0.08373589  0.05704560  0.85418782  1
  O  O357  1  0.09064753  0.58284304  0.20772936  1
  O  O358  1  0.09486975  0.59046624  0.53824584  1
  O  O359  1  0.07906905  0.55407411  0.88258948  1
  O  O360  1  0.58867490  0.08489425  0.20875788  1
  O  O361  1  0.57924890  0.09001967  0.52227139  1
  O  O362  1  0.59325635  0.09459774  0.88044334  1
  O  O363  1  0.58644432  0.59076483  0.20588653  1
  O  O364  1  0.58453393  0.58698383  0.53511484  1
  O  O365  1  0.59151909  0.59284061  0.87745273  1
  O  O366  1  0.13940815  0.21216023  0.05585111  1
  O  O367  1  0.13955470  0.21735050  0.38820988  1
  O  O368  1  0.14733361  0.20865180  0.70028415  1
  O  O369  1  0.13574044  0.71915609  0.06598635  1
  O  O370  1  0.13785004  0.72835043  0.39770686  1
  O  O371  1  0.12942831  0.71693933  0.72033903  1
  O  O372  1  0.63866991  0.22506522  0.06187121  1
  O  O373  1  0.63789792  0.21761877  0.38918957  1
  O  O374  1  0.63882792  0.22649779  0.73092983  1
  O  O375  1  0.63740640  0.72145347  0.05935685  1
  O  O376  1  0.63633333  0.72482580  0.38960196  1
  O  O377  1  0.63850796  0.73185818  0.72666517  1
  O  O378  1  0.27736348  0.35867178  0.10969712  1
  O  O379  1  0.27553173  0.36027059  0.43794548  1
  O  O380  1  0.27724586  0.36052899  0.77918477  1
  O  O381  1  0.27703283  0.86043361  0.11051522  1
  O  O382  1  0.28690318  0.86337794  0.44305599  1
  O  O383  1  0.30250211  0.86947111  0.78600921  1
  O  O384  1  0.76437746  0.36486997  0.10491565  1
  O  O385  1  0.77114495  0.36077399  0.43787827  1
  O  O386  1  0.77741635  0.36677380  0.76871507  1
  O  O387  1  0.77605241  0.86008261  0.10969832  1
  O  O388  1  0.78683896  0.86776849  0.44294940  1
  O  O389  1  0.78058037  0.85853806  0.77763601  1
  O  O390  1  0.36153735  0.27380923  0.27410182  1
  O  O391  1  0.36068178  0.26902654  0.60547691  1
  O  O392  1  0.36036697  0.27507452  0.94182680  1
  O  O393  1  0.36393608  0.78122369  0.27307280  1
  O  O394  1  0.36273076  0.78524706  0.61053794  1
  O  O395  1  0.36363051  0.76202018  0.94181323  1
  O  O396  1  0.85814378  0.27019046  0.27368686  1
  O  O397  1  0.86176010  0.27934818  0.60113395  1
  O  O398  1  0.85951604  0.28718097  0.94796883  1
  O  O399  1  0.86322274  0.78543690  0.27744464  1
  O  O400  1  0.86415238  0.78071702  0.60208445  1
  O  O401  1  0.85470473  0.78190545  0.94718475  1
  O  O402  1  0.22029634  0.13830584  0.22519465  1
  O  O403  1  0.22775261  0.13671595  0.55418558  1
  O  O404  1  0.21094972  0.13354065  0.88436511  1
  O  O405  1  0.22270895  0.63555014  0.22223917  1
  O  O406  1  0.22951090  0.63354896  0.55083868  1
  O  O407  1  0.19643543  0.63390543  0.89390291  1
  O  O408  1  0.72095326  0.13923690  0.22757203  1
  O  O409  1  0.71496939  0.14338579  0.54908830  1
  O  O410  1  0.72766842  0.13692473  0.89398781  1
  O  O411  1  0.72162646  0.63995160  0.22791912  1
  O  O412  1  0.71997917  0.63665472  0.55798036  1
  O  O413  1  0.72461612  0.63988513  0.89187286  1
  O  O414  1  0.48933357  0.33369674  0.03210528  1
  O  O415  1  0.49050528  0.33005012  0.36539721  1
  O  O416  1  0.48753870  0.33378440  0.69473643  1
  O  O417  1  0.49138312  0.82641590  0.02730235  1
  O  O418  1  0.49464343  0.83530352  0.36234339  1
  O  O419  1  0.49635959  0.83407505  0.69377406  1
  O  O420  1  0.99469949  0.33763144  0.02385167  1
  O  O421  1  0.98600065  0.32921124  0.36552553  1
  O  O422  1  0.99321534  0.33283883  0.69110614  1
  O  O423  1  0.98896661  0.82917538  0.02930598  1
  O  O424  1  0.99490600  0.83655317  0.36524658  1
  O  O425  1  0.98950823  0.82147095  0.70136690  1
  O  O426  1  0.17629536  0.00638840  0.13623699  1
  O  O427  1  0.16974893  0.00659942  0.46658299  1
  O  O428  1  0.18357794  -0.00186336  0.80406631  1
  O  O429  1  0.16646496  0.50319007  0.13821692  1
  O  O430  1  0.16377596  0.50731540  0.46241454  1
  O  O431  1  0.16661544  0.49852113  0.81300432  1
  O  O432  1  0.66733618  0.00915610  0.13849057  1
  O  O433  1  0.66448120  0.01038524  0.46551499  1
  O  O434  1  0.66200910  0.00566579  0.81059144  1
  O  O435  1  0.66157040  0.51064521  0.13736410  1
  O  O436  1  0.66109513  0.50836553  0.46674920  1
  O  O437  1  0.66394602  0.51112658  0.80392465  1
  O  O438  1  0.00968506  0.16468236  0.29784150  1
  O  O439  1  0.01062882  0.15768947  0.63182497  1
  O  O440  1  0.00841846  0.14841726  0.97005437  1
  O  O441  1  0.00996080  0.67318973  0.30432992  1
  O  O442  1  0.00208005  0.65725747  0.63138372  1
  O  O443  1  0.00408393  0.66344246  0.97857472  1
  O  O444  1  0.50618484  0.16715921  0.30165735  1
  O  O445  1  0.51080151  0.17100134  0.63980465  1
  O  O446  1  0.50789707  0.17106410  0.97323507  1
  O  O447  1  0.50541772  0.66994530  0.30468744  1
  O  O448  1  0.50923580  0.67161412  0.63983722  1
  O  O449  1  0.50762748  0.66446063  0.96908696  1
  O  O450  1  0.33155060  0.48913328  0.19888701  1
  O  O451  1  0.32913764  0.49005458  0.52860377  1
  O  O452  1  0.33606972  0.49274727  0.86377824  1
  O  O453  1  0.33730883  0.99022069  0.19987360  1
  O  O454  1  0.33755379  0.99507889  0.52939102  1
  O  O455  1  0.35706635  1.00573745  0.86023357  1
  O  O456  1  0.81937417  0.49268298  0.19851518  1
  O  O457  1  0.82409576  0.49030207  0.52851254  1
  O  O458  1  0.82721194  0.49472780  0.86168437  1
  O  O459  1  0.83215455  0.99096907  0.19555718  1
  O  O460  1  0.84103838  1.00237123  0.52415059  1
  O  O461  1  0.83775402  0.98825201  0.86552120  1
