# generated using pymatgen
data_Na31Fe20(SO4)36
_symmetry_space_group_name_H-M   'P 1'
_cell_length_a   18.07869178
_cell_length_b   18.07424651
_cell_length_c   19.72460610
_cell_angle_alpha   107.57024907
_cell_angle_beta   107.55355676
_cell_angle_gamma   90.71052755
_symmetry_Int_Tables_number   1
_chemical_formula_structural   Na31Fe20(SO4)36
_chemical_formula_sum   'Na62 Fe40 S72 O288'
_cell_volume   5820.32488393
_cell_formula_units_Z   2
loop_
 _symmetry_equiv_pos_site_id
 _symmetry_equiv_pos_as_xyz
  1  'x, y, z'
loop_
 _atom_site_type_symbol
 _atom_site_label
 _atom_site_symmetry_multiplicity
 _atom_site_fract_x
 _atom_site_fract_y
 _atom_site_fract_z
 _atom_site_occupancy
  Na  Na0  1  0.16000912  0.36990757  0.11769024  1
  Na  Na1  1  0.15767419  0.31663130  0.40971089  1
  Na  Na2  1  0.13015854  0.34273733  0.73039095  1
  Na  Na3  1  0.10495203  0.87381664  0.07775349  1
  Na  Na4  1  0.12886794  0.88001400  0.41883571  1
  Na  Na5  1  0.13605058  0.86750738  0.75395110  1
  Na  Na6  1  0.63529525  0.36340797  0.08304688  1
  Na  Na7  1  0.63767662  0.37068150  0.42122672  1
  Na  Na8  1  0.63372969  0.37899917  0.74316447  1
  Na  Na9  1  0.63640732  0.86345676  0.08146241  1
  Na  Na10  1  0.63214115  0.86834781  0.41544793  1
  Na  Na11  1  0.63835410  0.86438356  0.75539595  1
  Na  Na12  1  0.33671247  0.16953032  0.26357680  1
  Na  Na13  1  0.33470873  0.16758398  0.56026234  1
  Na  Na14  1  0.36403241  0.13493158  0.91641580  1
  Na  Na15  1  0.36038133  0.63642440  0.24947840  1
  Na  Na16  1  0.37246357  0.62233487  0.58245982  1
  Na  Na17  1  0.38352542  0.62751651  0.91646639  1
  Na  Na18  1  0.86381319  0.11730633  0.25142993  1
  Na  Na19  1  0.86828910  0.14338473  0.59535557  1
  Na  Na20  1  0.87094217  0.12961257  0.91737561  1
  Na  Na21  1  0.86368363  0.63311518  0.24400811  1
  Na  Na22  1  0.86710315  0.63722676  0.58488853  1
  Na  Na23  1  0.86585957  0.62246781  0.90809414  1
  Na  Na24  1  0.46915117  0.50449229  0.42934070  1
  Na  Na25  1  1.01554323  0.45505803  0.80791253  1
  Na  Na26  1  1.03686733  0.46854720  0.41232460  1
  Na  Na27  1  0.49575456  0.51126651  0.07293558  1
  Na  Na28  1  0.98765605  0.01831871  0.75925508  1
  Na  Na29  1  0.48943221  0.00957013  0.74584899  1
  Na  Na30  1  0.99533691  0.51946669  0.05665069  1
  Na  Na31  1  0.48025681  0.01527822  0.08566236  1
  Na  Na32  1  0.49393385  0.04908637  0.42249030  1
  Na  Na33  1  0.00824979  0.96603342  0.24584974  1
  Na  Na34  1  0.00290812  0.99981311  0.56490052  1
  Na  Na35  1  0.48580988  0.50706858  0.25847930  1
  Na  Na36  1  0.02303163  0.49973282  0.24059705  1
  Na  Na37  1  -0.00100404  0.48305018  0.59822836  1
  Na  Na38  1  0.51571336  0.98018891  0.91771171  1
  Na  Na39  1  0.51400102  0.54022834  0.76795452  1
  Na  Na40  1  0.51525757  0.99365050  0.25469598  1
  Na  Na41  1  0.48216081  1.03535478  0.57412487  1
  Na  Na42  1  0.25323153  0.74966949  0.66659531  1
  Na  Na43  1  0.76168953  0.76828432  0.32496205  1
  Na  Na44  1  0.76242121  0.75324844  -0.00392961  1
  Na  Na45  1  0.24940641  0.75723067  0.33393790  1
  Na  Na46  1  0.75687385  0.25470413  -0.00539716  1
  Na  Na47  1  0.73981201  0.73141855  0.67429290  1
  Na  Na48  1  0.24095652  0.24862409  0.01230627  1
  Na  Na49  1  0.24739807  0.74919873  0.00148606  1
  Na  Na50  1  0.74772451  0.24482166  0.33618429  1
  Na  Na51  1  0.74666191  0.25119438  0.66808588  1
  Na  Na52  1  0.75872584  0.25870324  0.82761983  1
  Na  Na53  1  0.75045999  0.75056940  0.49928506  1
  Na  Na54  1  0.72511980  0.71778193  0.83179590  1
  Na  Na55  1  0.25414384  0.74839515  0.49713558  1
  Na  Na56  1  0.77533536  0.77698802  0.16415301  1
  Na  Na57  1  0.25350703  0.74694906  0.83458511  1
  Na  Na58  1  0.74880710  0.24609713  0.16811176  1
  Na  Na59  1  0.74373484  0.24933951  0.50788206  1
  Na  Na60  1  0.25724918  0.25499115  0.82520945  1
  Na  Na61  1  0.24528091  0.75465660  0.16648514  1
  Fe  Fe62  1  0.46259252  0.31100230  0.12225067  1
  Fe  Fe63  1  0.96709415  0.80609621  0.45119406  1
  Fe  Fe64  1  0.96439909  0.30363664  0.12228590  1
  Fe  Fe65  1  0.46873668  0.30531854  0.78148859  1
  Fe  Fe66  1  0.96298171  0.81215873  0.78805360  1
  Fe  Fe67  1  0.47293927  0.30475961  0.46074970  1
  Fe  Fe68  1  0.46558246  0.80920797  0.11960081  1
  Fe  Fe69  1  0.96287260  0.30317882  0.45192479  1
  Fe  Fe70  1  0.46545022  0.81030284  0.45545224  1
  Fe  Fe71  1  0.46747563  0.80002806  0.78863358  1
  Fe  Fe72  1  0.69576793  0.03178740  0.05090631  1
  Fe  Fe73  1  0.20858792  0.52124495  0.37645135  1
  Fe  Fe74  1  0.70176523  0.03331260  0.38275158  1
  Fe  Fe75  1  0.19691578  0.52981793  0.71022163  1
  Fe  Fe76  1  0.19633643  0.52983738  0.04350733  1
  Fe  Fe77  1  0.68791302  0.03377165  0.71325452  1
  Fe  Fe78  1  0.69300653  0.53545042  0.37941143  1
  Fe  Fe79  1  0.19103488  0.03651457  0.71422077  1
  Fe  Fe80  1  0.18583940  0.03780178  0.04945211  1
  Fe  Fe81  1  0.68600663  0.53920297  0.04644729  1
  Fe  Fe82  1  0.53534625  0.19334455  0.88308847  1
  Fe  Fe83  1  0.53135240  0.19582197  0.21587484  1
  Fe  Fe84  1  0.03030824  0.20271223  0.88131633  1
  Fe  Fe85  1  0.03643800  0.18708151  0.54307953  1
  Fe  Fe86  1  0.03670707  0.68909608  0.54136639  1
  Fe  Fe87  1  0.03350468  0.18171820  0.21532903  1
  Fe  Fe88  1  0.53443579  0.69262514  0.54838878  1
  Fe  Fe89  1  0.03488745  0.69032759  0.87615295  1
  Fe  Fe90  1  0.03504277  0.69830872  0.20629241  1
  Fe  Fe91  1  0.53466265  0.69671108  0.21766434  1
  Fe  Fe92  1  0.79960768  0.47048787  0.62577658  1
  Fe  Fe93  1  0.81454524  0.96038909  0.95464994  1
  Fe  Fe94  1  0.31785716  0.45329800  0.62144713  1
  Fe  Fe95  1  0.29797192  0.97691494  0.29093982  1
  Fe  Fe96  1  0.80771104  0.96224534  0.62067532  1
  Fe  Fe97  1  0.80386474  0.46386286  0.95115748  1
  Fe  Fe98  1  0.30944873  0.46290777  0.94907845  1
  Fe  Fe99  1  0.80891459  0.46690398  0.28778004  1
  Fe  Fe100  1  0.30237032  0.96859459  0.95372210  1
  Fe  Fe101  1  0.30209330  0.96941375  0.61504264  1
  S  S102  1  0.35664968  0.14182923  0.08419921  1
  S  S103  1  0.36187205  0.14682388  0.41811538  1
  S  S104  1  0.36385916  0.13819214  0.75169249  1
  S  S105  1  0.36203405  0.64043866  0.08244656  1
  S  S106  1  0.36204822  0.64080650  0.41425228  1
  S  S107  1  0.35891075  0.63648343  0.75019168  1
  S  S108  1  0.85776019  0.13822784  0.08091935  1
  S  S109  1  0.85673043  0.14316718  0.42410694  1
  S  S110  1  0.85689517  0.13731563  0.75252437  1
  S  S111  1  0.86038616  0.63579843  0.08655149  1
  S  S112  1  0.85932998  0.64253911  0.41491986  1
  S  S113  1  0.86406073  0.64108749  0.74556556  1
  S  S114  1  0.13101806  0.35807166  0.25800879  1
  S  S115  1  0.13721903  0.36062944  0.57848234  1
  S  S116  1  0.14764467  0.35791962  0.91612046  1
  S  S117  1  0.14275245  0.85767664  0.24804696  1
  S  S118  1  0.14193292  0.85876328  0.58382940  1
  S  S119  1  0.13975797  0.85941602  0.91478582  1
  S  S120  1  0.64105296  0.35972432  0.24787411  1
  S  S121  1  0.64361517  0.36105812  0.57850055  1
  S  S122  1  0.63934173  0.35919927  0.92119722  1
  S  S123  1  0.63838241  0.86260947  0.25316945  1
  S  S124  1  0.64073259  0.85733968  0.58547009  1
  S  S125  1  0.64116705  0.86122791  0.91480557  1
  S  S126  1  0.06909858  0.17743047  0.04437045  1
  S  S127  1  0.04938233  0.15325908  0.36999113  1
  S  S128  1  0.06474212  0.16159083  0.70939228  1
  S  S129  1  0.07082220  0.66500441  0.03683461  1
  S  S130  1  0.07195042  0.66832727  0.37324877  1
  S  S131  1  0.07374775  0.66913268  0.70563058  1
  S  S132  1  0.56450144  0.16687162  0.04329053  1
  S  S133  1  0.57068033  0.17143269  0.37500463  1
  S  S134  1  0.56567103  0.16862376  0.71100503  1
  S  S135  1  0.56890467  0.67716486  0.05187865  1
  S  S136  1  0.56625659  0.67214225  0.37710279  1
  S  S137  1  0.56482046  0.67140320  0.70789708  1
  S  S138  1  0.33866433  0.44048760  0.12442471  1
  S  S139  1  0.33599401  0.42503034  0.46048646  1
  S  S140  1  0.32859322  0.42648106  0.78929598  1
  S  S141  1  0.32951555  0.93408024  0.12643649  1
  S  S142  1  0.33557518  0.93465630  0.46012770  1
  S  S143  1  0.33102923  0.93341165  0.79181517  1
  S  S144  1  0.82934479  0.42927360  0.12633139  1
  S  S145  1  0.83231198  0.43575938  0.45670859  1
  S  S146  1  0.82614025  0.42656286  0.79089712  1
  S  S147  1  0.82828298  0.93477698  0.11982011  1
  S  S148  1  0.82873801  0.93064540  0.46131366  1
  S  S149  1  0.82798584  0.93009648  0.78709202  1
  S  S150  1  0.44135375  0.33649466  0.29513628  1
  S  S151  1  0.44173583  0.34254011  0.63053125  1
  S  S152  1  0.43415458  0.32717685  0.95760507  1
  S  S153  1  0.43043206  0.83518612  0.29296558  1
  S  S154  1  0.43076043  0.83088822  0.62604065  1
  S  S155  1  0.43064887  0.83935158  0.96090276  1
  S  S156  1  0.92468185  0.32762956  0.29114838  1
  S  S157  1  0.93177101  0.33576430  0.62542882  1
  S  S158  1  0.93266715  0.33001110  0.96294377  1
  S  S159  1  0.93735453  0.82600184  0.29080332  1
  S  S160  1  0.93695682  0.83036763  0.62384724  1
  S  S161  1  0.92566373  0.81786685  0.94696584  1
  S  S162  1  0.16111264  0.06429972  0.20414457  1
  S  S163  1  0.16849161  0.06752477  0.54701020  1
  S  S164  1  0.16968334  0.07091506  0.87794575  1
  S  S165  1  0.16742860  0.56850779  0.20665006  1
  S  S166  1  0.17646636  0.56966101  0.54158124  1
  S  S167  1  0.17619592  0.56735218  0.87403140  1
  S  S168  1  0.66149942  0.06797565  0.20669665  1
  S  S169  1  0.67023389  0.06164177  0.54544873  1
  S  S170  1  0.66514986  0.06716069  0.87633353  1
  S  S171  1  0.66612022  0.56882998  0.21151391  1
  S  S172  1  0.67056412  0.57149169  0.53721695  1
  S  S173  1  0.66919684  0.56709384  0.88570634  1
  O  O174  1  0.36876906  0.22048210  0.07603950  1
  O  O175  1  0.38303545  0.22497912  0.40832608  1
  O  O176  1  0.37437775  0.21706820  0.74592113  1
  O  O177  1  0.37114904  0.71904345  0.07347040  1
  O  O178  1  0.36869882  0.72361448  0.41287524  1
  O  O179  1  0.36599744  0.71752399  0.74435048  1
  O  O180  1  0.86690538  0.21758575  0.07272521  1
  O  O181  1  0.86186833  0.22570141  0.42091546  1
  O  O182  1  0.86031355  0.21286322  0.74073377  1
  O  O183  1  0.86095828  0.71388998  0.07980593  1
  O  O184  1  0.86750333  0.72243569  0.40864987  1
  O  O185  1  0.88028774  0.71671473  0.73155070  1
  O  O186  1  0.27593930  0.13137983  0.08531822  1
  O  O187  1  0.28523849  0.14604381  0.42633087  1
  O  O188  1  0.28659048  0.12910072  0.76310973  1
  O  O189  1  0.28211401  0.63168195  0.08863730  1
  O  O190  1  0.28129112  0.62759043  0.41758744  1
  O  O191  1  0.27886997  0.62808375  0.75825573  1
  O  O192  1  0.77847641  0.13141275  0.08995069  1
  O  O193  1  0.77868911  0.13354171  0.43675494  1
  O  O194  1  0.77940891  0.12331306  0.76347125  1
  O  O195  1  0.78691991  0.61842426  0.10265352  1
  O  O196  1  0.78044624  0.63241257  0.42272682  1
  O  O197  1  0.78704639  0.64022961  0.75502101  1
  O  O198  1  0.11344063  0.28143650  0.26715212  1
  O  O199  1  0.12492893  0.28431807  0.58952968  1
  O  O200  1  0.13390824  0.27754055  0.92012544  1
  O  O201  1  0.13664361  0.77134991  0.24465666  1
  O  O202  1  0.13263574  0.77719740  0.58622768  1
  O  O203  1  0.13272489  0.77875042  0.92013610  1
  O  O204  1  0.63440859  0.27963921  0.25399515  1
  O  O205  1  0.64633305  0.28145939  0.58255831  1
  O  O206  1  0.62875351  0.28214565  0.93425797  1
  O  O207  1  0.62446173  0.78751501  0.26848470  1
  O  O208  1  0.63100633  0.77863727  0.59393232  1
  O  O209  1  0.63813137  0.78379376  0.92277797  1
  O  O210  1  0.20454419  0.36513563  0.24446320  1
  O  O211  1  0.21638746  0.37233309  0.57395636  1
  O  O212  1  0.23093675  0.36431140  0.91576697  1
  O  O213  1  0.22495894  0.87029756  0.24608671  1
  O  O214  1  0.22031466  0.86799206  0.57419914  1
  O  O215  1  0.21791653  0.86950722  0.90393429  1
  O  O216  1  0.71889442  0.37099195  0.23801132  1
  O  O217  1  0.71652313  0.37947630  0.56007621  1
  O  O218  1  0.71986598  0.36344936  0.91537666  1
  O  O219  1  0.71524108  0.86551331  0.24416844  1
  O  O220  1  0.72044545  0.86526717  0.57883979  1
  O  O221  1  0.71579344  0.87676790  0.90054598  1
  O  O222  1  0.41322739  0.13383850  0.15343957  1
  O  O223  1  0.42178549  0.13396265  0.48238891  1
  O  O224  1  0.42440808  0.12707295  0.81855883  1
  O  O225  1  0.41973499  0.63359444  0.15190639  1
  O  O226  1  0.41831362  0.63299797  0.48465685  1
  O  O227  1  0.41825019  0.62650330  0.81465820  1
  O  O228  1  0.91617412  0.13008605  0.14802935  1
  O  O229  1  0.91713141  0.13637773  0.49236275  1
  O  O230  1  0.91824677  0.13213102  0.82126034  1
  O  O231  1  0.92641719  0.62841801  0.15183869  1
  O  O232  1  0.91861675  0.63522250  0.48309366  1
  O  O233  1  0.92380355  0.63081714  0.81217547  1
  O  O234  1  0.36927092  0.08179994  0.01771804  1
  O  O235  1  0.36661084  0.08707204  0.34661850  1
  O  O236  1  0.37112903  0.07800720  0.68390201  1
  O  O237  1  0.37299168  0.58052670  0.01624507  1
  O  O238  1  0.37631940  0.58653913  0.34901445  1
  O  O239  1  0.36254462  0.57948655  0.67928847  1
  O  O240  1  0.86268074  0.08039725  0.01124221  1
  O  O241  1  0.85927113  0.08779081  0.35501289  1
  O  O242  1  0.86828715  0.07507213  0.68715206  1
  O  O243  1  0.86906400  0.57708908  0.01788455  1
  O  O244  1  0.86709969  0.58504884  0.34626043  1
  O  O245  1  0.86830559  0.57875766  0.67724802  1
  O  O246  1  0.06694573  0.37305175  0.19484103  1
  O  O247  1  0.07962965  0.36721289  0.50808888  1
  O  O248  1  0.09595308  0.36882338  0.84788787  1
  O  O249  1  0.08566259  0.86820984  0.18238926  1
  O  O250  1  0.08155222  0.87159123  0.51926712  1
  O  O251  1  0.07962667  0.86781179  0.84780200  1
  O  O252  1  0.58061315  0.36743865  0.18048212  1
  O  O253  1  0.57840467  0.36342133  0.50871793  1
  O  O254  1  0.58292615  0.36435155  0.85156904  1
  O  O255  1  0.57734559  0.87116860  0.18567948  1
  O  O256  1  0.58346455  0.86358459  0.51589091  1
  O  O257  1  0.57699478  0.87069970  0.84932925  1
  O  O258  1  0.12815111  0.41933954  0.32917688  1
  O  O259  1  0.12506283  0.42287923  0.64407345  1
  O  O260  1  0.13993165  0.41500627  0.98564373  1
  O  O261  1  0.13335651  0.90670725  0.31780031  1
  O  O262  1  0.13719137  0.91368413  0.65503732  1
  O  O263  1  0.13506879  0.91634070  0.98437142  1
  O  O264  1  0.63437185  0.41734056  0.31690322  1
  O  O265  1  0.63577726  0.41856407  0.64458653  1
  O  O266  1  0.63163716  0.42030471  0.98824231  1
  O  O267  1  0.62998702  0.92594665  0.31952126  1
  O  O268  1  0.63107979  0.91636459  0.65250889  1
  O  O269  1  0.63146531  0.92093033  0.98311090  1
  O  O270  1  0.03206128  0.20334991  0.10597304  1
  O  O271  1  0.02082524  0.19919280  0.43605003  1
  O  O272  1  0.02788294  0.18297636  0.76868861  1
  O  O273  1  0.03275285  0.68611324  0.09547346  1
  O  O274  1  0.03168913  0.69877149  0.43194004  1
  O  O275  1  0.04031265  0.69780674  0.76793331  1
  O  O276  1  0.52801438  0.19745561  0.10384110  1
  O  O277  1  0.53576806  0.20291475  0.43528568  1
  O  O278  1  0.53849404  0.20312802  0.77900888  1
  O  O279  1  0.53496754  0.70950659  0.11682616  1
  O  O280  1  0.52963417  0.70133322  0.43789174  1
  O  O281  1  0.52634086  0.70469232  0.76579569  1
  O  O282  1  0.30483201  0.47214933  0.05965592  1
  O  O283  1  0.31222011  0.46644141  0.40373431  1
  O  O284  1  0.29846575  0.46281618  0.72747931  1
  O  O285  1  0.29883115  0.96839276  0.06374857  1
  O  O286  1  0.31256259  0.96769756  0.39881752  1
  O  O287  1  0.30052832  0.96786783  0.72996736  1
  O  O288  1  0.80154326  0.46101570  0.06312901  1
  O  O289  1  0.80390311  0.47221773  0.39457459  1
  O  O290  1  0.80364029  0.46320202  0.73099204  1
  O  O291  1  0.79406383  0.96924907  0.05446074  1
  O  O292  1  0.79906090  0.96598937  0.40194024  1
  O  O293  1  0.79333810  0.96601638  0.72630714  1
  O  O294  1  0.47640366  0.29980975  0.23185578  1
  O  O295  1  0.47176167  0.31502218  0.56568855  1
  O  O296  1  0.46971559  0.29797788  0.89622363  1
  O  O297  1  0.46375691  0.80290125  0.22987337  1
  O  O298  1  0.46800400  0.80186054  0.56556324  1
  O  O299  1  0.46371635  0.81495474  0.89930514  1
  O  O300  1  0.95199554  0.29197837  0.22592673  1
  O  O301  1  0.96668311  0.30636863  0.56254879  1
  O  O302  1  0.97100034  0.30356112  0.90514934  1
  O  O303  1  0.97709136  0.79038916  0.23397393  1
  O  O304  1  0.97402067  0.80028863  0.56324499  1
  O  O305  1  0.96626116  0.79001898  0.88639261  1
  O  O306  1  0.19623385  0.03080860  0.26458810  1
  O  O307  1  0.20043125  0.03153114  0.61170983  1
  O  O308  1  0.19696914  0.03069955  0.93656977  1
  O  O309  1  0.18029380  0.53136832  0.26562678  1
  O  O310  1  0.20253672  0.53510647  0.60318449  1
  O  O311  1  0.20580314  0.52960466  0.93432233  1
  O  O312  1  0.68508769  0.03779442  0.27013120  1
  O  O313  1  0.70396370  0.02391800  0.60605176  1
  O  O314  1  0.69576621  0.03511639  0.93910774  1
  O  O315  1  0.69758475  0.53152947  0.27185097  1
  O  O316  1  0.70190037  0.54122232  0.59966587  1
  O  O317  1  0.70650638  0.52918956  0.94747257  1
  O  O318  1  0.08927252  0.09714706  0.03747173  1
  O  O319  1  0.04349321  0.07096860  0.36293833  1
  O  O320  1  0.07728868  0.07555123  0.69407889  1
  O  O321  1  0.09441458  0.58401505  0.02943913  1
  O  O322  1  0.09006099  0.58757624  0.37102923  1
  O  O323  1  0.09227598  0.58729951  0.69785760  1
  O  O324  1  0.58036369  0.08421485  0.03741012  1
  O  O325  1  0.59038032  0.09034778  0.37464992  1
  O  O326  1  0.58086552  0.08478450  0.70775147  1
  O  O327  1  0.58542955  0.59548448  0.05155587  1
  O  O328  1  0.58447944  0.59039377  0.37015576  1
  O  O329  1  0.58495641  0.59425009  0.70886738  1
  O  O330  1  0.42060352  0.42158836  0.12483580  1
  O  O331  1  0.41784278  0.40401097  0.46304626  1
  O  O332  1  0.40714851  0.40403814  0.79072601  1
  O  O333  1  0.41431913  0.92229413  0.13425874  1
  O  O334  1  0.41928716  0.91616750  0.47287808  1
  O  O335  1  0.41366695  0.91774489  0.79845200  1
  O  O336  1  0.91233974  0.41342258  0.13825418  1
  O  O337  1  0.91464168  0.41766571  0.46352627  1
  O  O338  1  0.90351069  0.40102341  0.80171090  1
  O  O339  1  0.90741326  0.91844624  0.12241535  1
  O  O340  1  0.90879386  0.90790283  0.46474443  1
  O  O341  1  0.90993224  0.91702978  0.78803916  1
  O  O342  1  0.44612423  0.42115594  0.30719177  1
  O  O343  1  0.43359082  0.42855976  0.64891343  1
  O  O344  1  0.41625344  0.40899111  0.96392394  1
  O  O345  1  0.41605879  0.91755608  0.29902727  1
  O  O346  1  0.41030630  0.91187441  0.63020406  1
  O  O347  1  0.41218409  0.92304789  0.97030669  1
  O  O348  1  0.91316911  0.41148586  0.29723353  1
  O  O349  1  0.90542850  0.41392915  0.62380765  1
  O  O350  1  0.90934242  0.41035220  0.96793709  1
  O  O351  1  0.91856002  0.90260468  0.28748970  1
  O  O352  1  0.92131815  0.91307587  0.63064875  1
  O  O353  1  0.90440584  0.89669424  0.94523792  1
  O  O354  1  0.07838181  0.07612208  0.20159991  1
  O  O355  1  0.08593917  0.08263567  0.54476128  1
  O  O356  1  0.08978599  0.09221087  0.87290436  1
  O  O357  1  0.08415772  0.58919101  0.18878302  1
  O  O358  1  0.09269022  0.58559730  0.53052293  1
  O  O359  1  0.09502873  0.58555377  0.86908922  1
  O  O360  1  0.57762850  0.08641205  0.19503221  1
  O  O361  1  0.58841790  0.07166116  0.54026843  1
  O  O362  1  0.58113082  0.08112917  0.86951235  1
  O  O363  1  0.58343079  0.58419101  0.20705591  1
  O  O364  1  0.58764396  0.58809228  0.52795631  1
  O  O365  1  0.59692603  0.59505642  0.89608994  1
  O  O366  1  0.13748557  0.23286691  0.06074569  1
  O  O367  1  0.12693115  0.18960133  0.38282820  1
  O  O368  1  0.13935931  0.20977554  0.73002526  1
  O  O369  1  0.13967840  0.72142298  0.05441422  1
  O  O370  1  0.14262520  0.72250280  0.39201420  1
  O  O371  1  0.14441820  0.72224181  0.72054059  1
  O  O372  1  0.63682782  0.21732587  0.05956140  1
  O  O373  1  0.64136523  0.22226442  0.38634619  1
  O  O374  1  0.63878995  0.21473041  0.72235884  1
  O  O375  1  0.64261740  0.72613850  0.06942549  1
  O  O376  1  0.63654018  0.72462193  0.39267561  1
  O  O377  1  0.63495166  0.72630700  0.72257281  1
  O  O378  1  0.28962936  0.36929034  0.11220539  1
  O  O379  1  0.28413013  0.35589210  0.44483400  1
  O  O380  1  0.27280326  0.36032576  0.77748178  1
  O  O381  1  0.28345930  0.85879473  0.10880860  1
  O  O382  1  0.28318521  0.86408281  0.44608578  1
  O  O383  1  0.28073618  0.86096241  0.77645210  1
  O  O384  1  0.77829819  0.35717869  0.11152175  1
  O  O385  1  0.77936921  0.36456262  0.43740908  1
  O  O386  1  0.76622622  0.35946753  0.77397171  1
  O  O387  1  0.77409276  0.86206770  0.09889468  1
  O  O388  1  0.77532274  0.86072109  0.44867148  1
  O  O389  1  0.78038334  0.85623005  0.77090428  1
  O  O390  1  0.36347020  0.29790406  0.27486704  1
  O  O391  1  0.36638175  0.29952256  0.61593970  1
  O  O392  1  0.36335690  0.27464903  0.94158121  1
  O  O393  1  0.35879728  0.78374471  0.27812660  1
  O  O394  1  0.36050730  0.77699601  0.60947935  1
  O  O395  1  0.35989433  0.78754631  0.94694874  1
  O  O396  1  0.85217810  0.28192905  0.28283848  1
  O  O397  1  0.86367758  0.28030026  0.61211690  1
  O  O398  1  0.86177046  0.27495851  0.94492442  1
  O  O399  1  0.86634810  0.77177840  0.27559011  1
  O  O400  1  0.86428979  0.77971159  0.60547262  1
  O  O401  1  0.85403635  0.76303257  0.92495983  1
  O  O402  1  0.20485932  0.13715584  0.21265513  1
  O  O403  1  0.21599533  0.14103343  0.56673734  1
  O  O404  1  0.22585468  0.13966520  0.89614821  1
  O  O405  1  0.22356918  0.63855401  0.22903965  1
  O  O406  1  0.22773145  0.64195333  0.55832618  1
  O  O407  1  0.22924409  0.63873522  0.89216066  1
  O  O408  1  0.71331602  0.13862886  0.21957348  1
  O  O409  1  0.71992860  0.13540769  0.56506449  1
  O  O410  1  0.71297494  0.13988911  0.88902883  1
  O  O411  1  0.71625067  0.64103554  0.22853344  1
  O  O412  1  0.71993696  0.64377713  0.54824582  1
  O  O413  1  0.72875822  0.63222155  0.89827672  1
  O  O414  1  0.49352359  0.32875390  0.03001764  1
  O  O415  1  0.49528289  0.32339415  0.36496752  1
  O  O416  1  0.50192220  0.33241384  0.69778191  1
  O  O417  1  0.49110065  0.84203767  0.03335311  1
  O  O418  1  0.49043740  0.83397502  0.36406785  1
  O  O419  1  0.48963291  0.83523925  0.69911473  1
  O  O420  1  0.98974021  0.33608469  0.03802312  1
  O  O421  1  0.98744944  0.33038743  0.36204940  1
  O  O422  1  0.99412806  0.34608744  0.69649290  1
  O  O423  1  0.98118279  0.82000077  0.01785532  1
  O  O424  1  0.99371373  0.83026554  0.36673372  1
  O  O425  1  0.99459618  0.83044180  0.69632855  1
  O  O426  1  0.15769957  0.00422715  0.13005963  1
  O  O427  1  0.16898791  0.00778433  0.47905794  1
  O  O428  1  0.16660358  0.01189672  0.80420652  1
  O  O429  1  0.17284455  0.50941703  0.13684634  1
  O  O430  1  0.17776214  0.51024655  0.47081475  1
  O  O431  1  0.17323770  0.50810629  0.80154845  1
  O  O432  1  0.66009362  0.00630668  0.13550284  1
  O  O433  1  0.67309134  0.00625337  0.47267549  1
  O  O434  1  0.66343567  0.00685954  0.80433319  1
  O  O435  1  0.66364986  0.50988221  0.13874961  1
  O  O436  1  0.66894420  0.51017146  0.46476742  1
  O  O437  1  0.65522921  0.50681555  0.81294129  1
  O  O438  1  -0.00705709  0.16595395  0.30085624  1
  O  O439  1  0.00909163  0.16899888  0.63875837  1
  O  O440  1  0.00856235  0.17542416  0.97233783  1
  O  O441  1  0.01583537  0.66402226  0.29842440  1
  O  O442  1  0.01329845  0.66710434  0.63340566  1
  O  O443  1  0.01180517  0.66163346  0.96391027  1
  O  O444  1  0.51052149  0.16176351  0.30056899  1
  O  O445  1  0.50171429  0.16529361  0.64379160  1
  O  O446  1  0.50609948  0.16546543  0.97068668  1
  O  O447  1  0.50572748  0.66933759  0.30447648  1
  O  O448  1  0.50705438  0.66785730  0.63270250  1
  O  O449  1  0.50898224  0.67723860  0.98406582  1
  O  O450  1  0.34646189  0.50212512  0.19493898  1
  O  O451  1  0.34248096  0.48377763  0.53531548  1
  O  O452  1  0.33581495  0.48943302  0.86196941  1
  O  O453  1  0.32709415  0.99214144  0.19681718  1
  O  O454  1  0.33738066  0.99610137  0.53210839  1
  O  O455  1  0.33087905  0.99268207  0.86367748  1
  O  O456  1  0.82674776  0.49058997  0.19652644  1
  O  O457  1  0.83310788  0.49529969  0.52766781  1
  O  O458  1  0.82441616  0.48767920  0.86255785  1
  O  O459  1  0.82285527  0.99244189  0.18758844  1
  O  O460  1  0.83734768  0.99063602  0.53643011  1
  O  O461  1  0.82922514  0.98793980  0.85947200  1
