# generated using pymatgen
data_Na31Fe20(SO4)36
_symmetry_space_group_name_H-M   'P 1'
_cell_length_a   18.07695045
_cell_length_b   18.07840460
_cell_length_c   19.70985715
_cell_angle_alpha   107.59241515
_cell_angle_beta   107.56847775
_cell_angle_gamma   90.73611935
_symmetry_Int_Tables_number   1
_chemical_formula_structural   Na31Fe20(SO4)36
_chemical_formula_sum   'Na62 Fe40 S72 O288'
_cell_volume   5815.07397097
_cell_formula_units_Z   2
loop_
 _symmetry_equiv_pos_site_id
 _symmetry_equiv_pos_as_xyz
  1  'x, y, z'
loop_
 _atom_site_type_symbol
 _atom_site_label
 _atom_site_symmetry_multiplicity
 _atom_site_fract_x
 _atom_site_fract_y
 _atom_site_fract_z
 _atom_site_occupancy
  Na  Na0  1  0.12433278  0.36802611  0.07850689  1
  Na  Na1  1  0.14357412  0.38702979  0.42756530  1
  Na  Na2  1  0.13340088  0.36753238  0.74744353  1
  Na  Na3  1  0.16494048  0.84124983  0.08054946  1
  Na  Na4  1  0.14049833  0.85545417  0.40726143  1
  Na  Na5  1  0.14753720  0.86848100  0.76431015  1
  Na  Na6  1  0.62932709  0.37184772  0.08595085  1
  Na  Na7  1  0.63383488  0.36646468  0.41902164  1
  Na  Na8  1  0.62841704  0.35855786  0.74599617  1
  Na  Na9  1  0.61950364  0.84466724  0.06278286  1
  Na  Na10  1  0.63637993  0.86697221  0.41914839  1
  Na  Na11  1  0.63575988  0.86193677  0.75407080  1
  Na  Na12  1  0.36983094  0.13386491  0.25255932  1
  Na  Na13  1  0.37161081  0.13928553  0.58455302  1
  Na  Na14  1  0.36827381  0.12980117  0.91525324  1
  Na  Na15  1  0.33341271  0.66343627  0.24897613  1
  Na  Na16  1  0.36155503  0.62666140  0.58326427  1
  Na  Na17  1  0.36688525  0.67608847  0.94791629  1
  Na  Na18  1  0.86859930  0.13334777  0.25040409  1
  Na  Na19  1  0.86792647  0.13553906  0.58706517  1
  Na  Na20  1  0.86468831  0.12293457  0.90846474  1
  Na  Na21  1  0.86640790  0.63403806  0.24486323  1
  Na  Na22  1  0.86763575  0.63522508  0.58404013  1
  Na  Na23  1  0.85869357  0.63132718  0.91543019  1
  Na  Na24  1  0.43599790  0.00011262  0.04862099  1
  Na  Na25  1  0.48682774  0.02708038  0.44890819  1
  Na  Na26  1  0.99276284  0.00339147  0.41364096  1
  Na  Na27  1  0.51581964  -0.01851022  0.75424131  1
  Na  Na28  1  0.99796779  0.51197507  0.74599699  1
  Na  Na29  1  0.97840263  -0.00093499  0.76662101  1
  Na  Na30  1  0.47934920  0.51309137  0.41246240  1
  Na  Na31  1  0.47296511  0.55007665  0.75675817  1
  Na  Na32  1  1.02753392  -0.02370348  0.04881190  1
  Na  Na33  1  0.47959645  0.52392308  0.91610462  1
  Na  Na34  1  0.47756790  0.53140662  0.21852788  1
  Na  Na35  1  0.03295380  0.49090103  0.26460691  1
  Na  Na36  1  0.00890949  0.98333950  0.58923307  1
  Na  Na37  1  0.51465602  0.94304248  0.22963251  1
  Na  Na38  1  0.02090519  0.50077459  0.56050280  1
  Na  Na39  1  0.01540276  0.98780769  0.24142908  1
  Na  Na40  1  -0.00666441  0.49084046  0.93131181  1
  Na  Na41  1  0.49759856  0.47567856  0.58699378  1
  Na  Na42  1  0.74164492  0.74304594  0.67172623  1
  Na  Na43  1  0.25792292  0.26489277  0.65758758  1
  Na  Na44  1  0.71417878  0.21283426  0.66557315  1
  Na  Na45  1  0.73463847  0.73625156  0.01333334  1
  Na  Na46  1  0.74314948  0.24442601  0.34074348  1
  Na  Na47  1  0.27305936  0.75571618  0.67669599  1
  Na  Na48  1  0.25726185  0.25828649  0.32895000  1
  Na  Na49  1  0.74252656  0.24083028  0.00277386  1
  Na  Na50  1  0.75993907  0.75581217  0.32135140  1
  Na  Na51  1  0.24751389  0.24802718  -0.00326400  1
  Na  Na52  1  0.74743112  0.24517622  0.17119403  1
  Na  Na53  1  0.30929425  0.82029330  0.86610259  1
  Na  Na54  1  0.73639598  0.23623594  0.50841329  1
  Na  Na55  1  0.25403581  0.74751089  0.49363202  1
  Na  Na56  1  0.26546730  0.27102383  0.49646847  1
  Na  Na57  1  0.75136855  0.74968275  0.50089131  1
  Na  Na58  1  0.73456906  0.22803135  0.83408102  1
  Na  Na59  1  0.24977031  0.25597943  0.16534951  1
  Na  Na60  1  0.25259637  0.25632388  0.83039754  1
  Na  Na61  1  0.72664292  0.73361096  0.84266047  1
  Fe  Fe62  1  0.47074210  0.29682467  0.45796665  1
  Fe  Fe63  1  0.96659391  0.80208846  0.78676675  1
  Fe  Fe64  1  0.96453968  0.30588077  0.78058366  1
  Fe  Fe65  1  0.46426166  0.31126008  0.12301301  1
  Fe  Fe66  1  0.96524750  0.80130399  0.11562013  1
  Fe  Fe67  1  0.46530536  0.81547628  0.45721492  1
  Fe  Fe68  1  0.96504904  0.80620127  0.44710138  1
  Fe  Fe69  1  0.46405314  0.31150480  0.78874186  1
  Fe  Fe70  1  0.96444202  0.30430034  0.11774412  1
  Fe  Fe71  1  0.96503147  0.30655458  0.44818642  1
  Fe  Fe72  1  0.19571709  0.03142063  0.04091366  1
  Fe  Fe73  1  0.68796586  0.53572273  0.37489414  1
  Fe  Fe74  1  0.19803398  0.53482470  0.71269346  1
  Fe  Fe75  1  0.68502050  0.03054828  0.03987645  1
  Fe  Fe76  1  0.69332123  0.03285238  0.37688420  1
  Fe  Fe77  1  0.19100134  0.54012539  0.05180953  1
  Fe  Fe78  1  0.69148640  0.53391540  0.04747503  1
  Fe  Fe79  1  0.19254574  0.03544125  0.71507027  1
  Fe  Fe80  1  0.69372775  0.52962485  0.71301070  1
  Fe  Fe81  1  0.19280511  0.03332620  0.37975407  1
  Fe  Fe82  1  0.53383558  0.69529476  0.54753014  1
  Fe  Fe83  1  0.03262068  0.19524510  0.88081380  1
  Fe  Fe84  1  0.03387417  0.19425375  0.54699565  1
  Fe  Fe85  1  0.03436337  0.18973654  0.21156903  1
  Fe  Fe86  1  0.52864104  0.70385866  0.21164511  1
  Fe  Fe87  1  0.04066424  0.68481611  0.21200738  1
  Fe  Fe88  1  0.03791816  0.69093678  0.88545628  1
  Fe  Fe89  1  0.03643698  0.69192704  0.54389459  1
  Fe  Fe90  1  0.53394041  0.19006346  0.20948215  1
  Fe  Fe91  1  0.53216410  0.18764265  0.87652599  1
  Fe  Fe92  1  0.81057333  0.46662886  0.28629652  1
  Fe  Fe93  1  0.80586467  0.46158688  0.95187749  1
  Fe  Fe94  1  0.30576667  0.46792892  0.95877084  1
  Fe  Fe95  1  0.80624953  0.46322977  0.61388457  1
  Fe  Fe96  1  0.80851467  0.96466107  0.95157730  1
  Fe  Fe97  1  0.31143064  0.96669042  0.61848281  1
  Fe  Fe98  1  0.31045769  0.96037305  0.28412661  1
  Fe  Fe99  1  0.80698329  0.96016027  0.27800452  1
  Fe  Fe100  1  0.80244261  0.96551072  0.62174050  1
  Fe  Fe101  1  0.29570033  0.47449678  0.29019423  1
  S  S102  1  0.35492591  0.14900114  0.08456901  1
  S  S103  1  0.35537516  0.13954871  0.41811680  1
  S  S104  1  0.35377364  0.14578232  0.74851712  1
  S  S105  1  0.36214135  0.63648871  0.09202002  1
  S  S106  1  0.36376270  0.64310879  0.41414666  1
  S  S107  1  0.35027044  0.64908720  0.76734475  1
  S  S108  1  0.85930083  0.13873893  0.08294538  1
  S  S109  1  0.86136434  0.13803548  0.41322583  1
  S  S110  1  0.86192708  0.14061818  0.74586560  1
  S  S111  1  0.86176037  0.63586173  0.08070762  1
  S  S112  1  0.85825897  0.64095721  0.41686368  1
  S  S113  1  0.86214196  0.63431186  0.74881460  1
  S  S114  1  0.13774663  0.35508680  0.24953284  1
  S  S115  1  0.13675779  0.36270573  0.58321704  1
  S  S116  1  0.13555404  0.36280302  0.91559268  1
  S  S117  1  0.13751336  0.85997807  0.24646502  1
  S  S118  1  0.13808601  0.86185753  0.58072223  1
  S  S119  1  0.13521746  0.85990736  0.91793058  1
  S  S120  1  0.64211121  0.35876359  0.24968681  1
  S  S121  1  0.64484459  0.35582481  0.58110679  1
  S  S122  1  0.64265310  0.35633391  0.91817390  1
  S  S123  1  0.64978112  0.85545584  0.25208978  1
  S  S124  1  0.64239208  0.85679225  0.58599095  1
  S  S125  1  0.64916473  0.85807292  0.91424811  1
  S  S126  1  0.06664590  0.16909139  0.04113120  1
  S  S127  1  0.06869647  0.17018015  0.37590277  1
  S  S128  1  0.06800795  0.17140599  0.70739771  1
  S  S129  1  0.06317161  0.66320546  0.03911973  1
  S  S130  1  0.06337969  0.67162870  0.37660667  1
  S  S131  1  0.06849044  0.66923277  0.70724322  1
  S  S132  1  0.56753830  0.17472424  0.04466326  1
  S  S133  1  0.56716493  0.16789988  0.37138752  1
  S  S134  1  0.55666483  0.16628724  0.71535379  1
  S  S135  1  0.56616627  0.66054895  0.04465986  1
  S  S136  1  0.57071075  0.67325799  0.37484077  1
  S  S137  1  0.56829857  0.65701180  0.70215011  1
  S  S138  1  0.31929325  0.42786522  0.12430417  1
  S  S139  1  0.34166291  0.43267109  0.45783680  1
  S  S140  1  0.32280041  0.43317514  0.79366363  1
  S  S141  1  0.33173507  0.94732893  0.13170641  1
  S  S142  1  0.32786704  0.93429776  0.45725869  1
  S  S143  1  0.33098156  0.94611788  0.78293276  1
  S  S144  1  0.83078369  0.42872411  0.12416575  1
  S  S145  1  0.83131616  0.43268406  0.45435350  1
  S  S146  1  0.83191412  0.42854368  0.78834329  1
  S  S147  1  0.83701741  0.93144408  0.12392865  1
  S  S148  1  0.83476065  0.93481215  0.45893001  1
  S  S149  1  0.83412069  0.92749625  0.78952527  1
  S  S150  1  0.43558590  0.32958411  0.29180897  1
  S  S151  1  0.43623572  0.34030740  0.63143047  1
  S  S152  1  0.42960910  0.32925375  0.95834308  1
  S  S153  1  0.43932671  0.84030256  0.29925061  1
  S  S154  1  0.43424566  0.82849687  0.62290423  1
  S  S155  1  0.45654583  0.85058839  0.97429647  1
  S  S156  1  0.93372600  0.32929131  0.28889574  1
  S  S157  1  0.93126366  0.33130344  0.61980812  1
  S  S158  1  0.92761860  0.32405986  0.95284025  1
  S  S159  1  0.93684310  0.83170874  0.29087052  1
  S  S160  1  0.93517258  0.82987084  0.62515010  1
  S  S161  1  0.92653579  0.82056750  0.95283293  1
  S  S162  1  0.16639894  0.06657333  0.20738177  1
  S  S163  1  0.16402712  0.06853169  0.54026014  1
  S  S164  1  0.16202925  0.07196427  0.87201909  1
  S  S165  1  0.15848436  0.56082371  0.20458767  1
  S  S166  1  0.17203854  0.57322590  0.54755893  1
  S  S167  1  0.17014184  0.56956795  0.87723857  1
  S  S168  1  0.67661361  0.06942453  0.20987509  1
  S  S169  1  0.67620773  0.06335751  0.53898979  1
  S  S170  1  0.67171356  0.06508834  0.87818688  1
  S  S171  1  0.67205649  0.56821070  0.21238662  1
  S  S172  1  0.67201949  0.56762531  0.53925010  1
  S  S173  1  0.66593283  0.55535906  0.87395507  1
  O  O174  1  0.36393165  0.23197450  0.08429253  1
  O  O175  1  0.36435691  0.21968621  0.41088029  1
  O  O176  1  0.36183321  0.22677137  0.74387383  1
  O  O177  1  0.37315595  0.71095763  0.08206709  1
  O  O178  1  0.37711020  0.72206953  0.40771608  1
  O  O179  1  0.35792251  0.73356625  0.78119778  1
  O  O180  1  0.86781485  0.21825992  0.07489616  1
  O  O181  1  0.87221528  0.21511488  0.40168508  1
  O  O182  1  0.87677194  0.21650344  0.73241609  1
  O  O183  1  0.86954310  0.71371749  0.06918537  1
  O  O184  1  0.86484516  0.72181237  0.41157660  1
  O  O185  1  0.86999217  0.71174549  0.73769077  1
  O  O186  1  0.27588457  0.13865032  0.09225049  1
  O  O187  1  0.27473469  0.13201496  0.42480081  1
  O  O188  1  0.27444507  0.13623203  0.75615785  1
  O  O189  1  0.28455741  0.62329496  0.10291250  1
  O  O190  1  0.29078375  0.63418446  0.42906319  1
  O  O191  1  0.26393043  0.62982557  0.76200556  1
  O  O192  1  0.78041874  0.13005083  0.09112359  1
  O  O193  1  0.78101618  0.13193630  0.41859281  1
  O  O194  1  0.78319947  0.13642203  0.75092477  1
  O  O195  1  0.78254426  0.62567786  0.08698347  1
  O  O196  1  0.77976879  0.62897219  0.42542248  1
  O  O197  1  0.78442392  0.62549037  0.75938659  1
  O  O198  1  0.13044546  0.27293109  0.25250357  1
  O  O199  1  0.12292785  0.28586754  0.59523466  1
  O  O200  1  0.12671228  0.28609632  0.92855613  1
  O  O201  1  0.12607850  0.78347348  0.25702050  1
  O  O202  1  0.12963474  0.78311246  0.58842026  1
  O  O203  1  0.12335936  0.78234491  0.92850295  1
  O  O204  1  0.63394903  0.27777049  0.25409184  1
  O  O205  1  0.64133095  0.27730938  0.58640112  1
  O  O206  1  0.63214956  0.27626056  0.92391307  1
  O  O207  1  0.63416408  0.77918389  0.26386478  1
  O  O208  1  0.63362758  0.77282115  0.58590732  1
  O  O209  1  0.65151604  0.78012351  0.92305453  1
  O  O210  1  0.21876175  0.36671521  0.24649617  1
  O  O211  1  0.21269473  0.36728170  0.57275502  1
  O  O212  1  0.21550840  0.37025840  0.90966472  1
  O  O213  1  0.21601995  0.87140701  0.24038309  1
  O  O214  1  0.21561682  0.87180184  0.57071838  1
  O  O215  1  0.21074989  0.87142017  0.90867379  1
  O  O216  1  0.72037688  0.36873801  0.24027370  1
  O  O217  1  0.72126532  0.37150504  0.56809510  1
  O  O218  1  0.72073936  0.36196030  0.90639932  1
  O  O219  1  0.73447967  0.86247734  0.25820991  1
  O  O220  1  0.72113552  0.86459418  0.57447728  1
  O  O221  1  0.72723752  0.87346330  0.90158831  1
  O  O222  1  0.41452297  0.13808829  0.15124283  1
  O  O223  1  0.41348517  0.13116132  0.48430112  1
  O  O224  1  0.41211216  0.13685107  0.81616500  1
  O  O225  1  0.42233414  0.63060113  0.16342857  1
  O  O226  1  0.42924314  0.62757693  0.47564127  1
  O  O227  1  0.39970228  0.62390822  0.82913062  1
  O  O228  1  0.91824280  0.13288285  0.15204007  1
  O  O229  1  0.91840258  0.13257732  0.48368283  1
  O  O230  1  0.91976091  0.13452768  0.81635655  1
  O  O231  1  0.92044688  0.63259821  0.15047941  1
  O  O232  1  0.91779315  0.63345698  0.48455311  1
  O  O233  1  0.92322367  0.62537149  0.81501430  1
  O  O234  1  0.36228106  0.09552030  0.01547160  1
  O  O235  1  0.36152176  0.08160059  0.34873374  1
  O  O236  1  0.36065402  0.08961552  0.67897192  1
  O  O237  1  0.36985780  0.57164409  0.02684100  1
  O  O238  1  0.36597528  0.58521745  0.34126384  1
  O  O239  1  0.36215660  0.60544762  0.69562717  1
  O  O240  1  0.86908541  0.08061830  0.01564205  1
  O  O241  1  0.87216361  0.07592313  0.34843062  1
  O  O242  1  0.87386910  0.07748601  0.68195834  1
  O  O243  1  0.87131678  0.57530187  0.01376334  1
  O  O244  1  0.86556044  0.58470231  0.34733019  1
  O  O245  1  0.86904201  0.57414389  0.68016362  1
  O  O246  1  0.08122365  0.36133415  0.17851589  1
  O  O247  1  0.07472820  0.37245302  0.51694035  1
  O  O248  1  0.07840713  0.36549252  0.84391836  1
  O  O249  1  0.07841232  0.86738664  0.17708643  1
  O  O250  1  0.07712717  0.87162276  0.51376914  1
  O  O251  1  0.07341179  0.86610035  0.84962305  1
  O  O252  1  0.58154350  0.36900643  0.18388078  1
  O  O253  1  0.58260860  0.36568282  0.51547299  1
  O  O254  1  0.58250435  0.36883148  0.85382668  1
  O  O255  1  0.59996495  0.86213325  0.18162998  1
  O  O256  1  0.58330335  0.86614201  0.51837692  1
  O  O257  1  0.58727758  0.86590066  0.85080200  1
  O  O258  1  0.12409208  0.41032336  0.31448194  1
  O  O259  1  0.13041145  0.42426943  0.65223882  1
  O  O260  1  0.12274422  0.42487136  0.97886497  1
  O  O261  1  0.12593283  0.92200161  0.31281012  1
  O  O262  1  0.12811168  0.92079289  0.64855809  1
  O  O263  1  0.12584801  0.91987333  0.98613977  1
  O  O264  1  0.63643018  0.41484013  0.32007298  1
  O  O265  1  0.63862592  0.41413048  0.65067371  1
  O  O266  1  0.64110411  0.41343029  0.98971289  1
  O  O267  1  0.63621213  0.91769469  0.31679868  1
  O  O268  1  0.63877999  0.91000597  0.65584587  1
  O  O269  1  0.64851916  0.91558209  0.98758285  1
  O  O270  1  0.02902801  0.19804380  0.10170105  1
  O  O271  1  0.03324803  0.20105331  0.43782883  1
  O  O272  1  0.03503245  0.20214973  0.77045558  1
  O  O273  1  0.03069177  0.69733197  0.10271670  1
  O  O274  1  0.02309144  0.70633750  0.43583876  1
  O  O275  1  0.03146111  0.69554698  0.76834845  1
  O  O276  1  0.52780826  0.20483588  0.10386071  1
  O  O277  1  0.52841142  0.19483588  0.42923592  1
  O  O278  1  0.52229532  0.21022557  0.77846875  1
  O  O279  1  0.54774786  0.68610371  0.11655588  1
  O  O280  1  0.53587627  0.70305412  0.43578249  1
  O  O281  1  0.53702547  0.67142632  0.76361279  1
  O  O282  1  0.28723602  0.46075041  0.06138972  1
  O  O283  1  0.32220253  0.46516058  0.39462897  1
  O  O284  1  0.29111762  0.46976853  0.73404821  1
  O  O285  1  0.29294594  0.97813309  0.06863399  1
  O  O286  1  0.29503267  0.96783032  0.39365423  1
  O  O287  1  0.28912325  0.97631138  0.71574552  1
  O  O288  1  0.80229950  0.46456200  0.06295318  1
  O  O289  1  0.80251736  0.46798648  0.39278952  1
  O  O290  1  0.80135401  0.46486728  0.72747370  1
  O  O291  1  0.80979977  0.96839533  0.06411799  1
  O  O292  1  0.80620189  0.97355648  0.40015663  1
  O  O293  1  0.81737542  0.96598828  0.73107011  1
  O  O294  1  0.47290864  0.29894883  0.23087219  1
  O  O295  1  0.47011124  0.31243538  0.56951788  1
  O  O296  1  0.46818273  0.29935615  0.89919601  1
  O  O297  1  0.47688954  0.80939957  0.23987853  1
  O  O298  1  0.46607141  0.79511049  0.55738748  1
  O  O299  1  0.50332812  0.79767102  0.93656708  1
  O  O300  1  0.96940012  0.29615780  0.22750135  1
  O  O301  1  0.96425658  0.29879827  0.55670944  1
  O  O302  1  0.96575312  0.29688045  0.89244668  1
  O  O303  1  0.96798856  0.79976515  0.22714508  1
  O  O304  1  0.96975182  0.80088423  0.56292105  1
  O  O305  1  0.96062148  0.78745356  0.89060728  1
  O  O306  1  0.19545010  0.03152597  0.26895501  1
  O  O307  1  0.19395602  0.03372561  0.60132951  1
  O  O308  1  0.18759522  0.04182676  0.93523510  1
  O  O309  1  0.19109075  0.52609589  0.26505108  1
  O  O310  1  0.18634827  0.53848657  0.61065535  1
  O  O311  1  0.19804326  0.52920471  0.93558867  1
  O  O312  1  0.70506941  0.02863521  0.26860496  1
  O  O313  1  0.70669502  0.02549770  0.59723383  1
  O  O314  1  0.70688950  0.03596516  0.94459745  1
  O  O315  1  0.70232206  0.52786698  0.27197899  1
  O  O316  1  0.70155002  0.53051766  0.59964781  1
  O  O317  1  0.70325453  0.52060070  0.93606782  1
  O  O318  1  0.08965760  0.09028743  0.03960637  1
  O  O319  1  0.08248696  0.08683833  0.36974929  1
  O  O320  1  0.08453440  0.08905947  0.70019917  1
  O  O321  1  0.07932858  0.58152362  0.03626815  1
  O  O322  1  0.07459555  0.59159553  0.37320746  1
  O  O323  1  0.08867395  0.58698711  0.70336007  1
  O  O324  1  0.58859710  0.09617249  0.04454281  1
  O  O325  1  0.58783432  0.08712950  0.36555793  1
  O  O326  1  0.57414500  0.09149135  0.72638167  1
  O  O327  1  0.58906076  0.57803812  0.03242837  1
  O  O328  1  0.58096200  0.58821880  0.36486307  1
  O  O329  1  0.58950260  0.57295557  0.68292684  1
  O  O330  1  0.40111367  0.41120735  0.12897946  1
  O  O331  1  0.42047316  0.40229798  0.46288682  1
  O  O332  1  0.40374751  0.41409955  0.79623650  1
  O  O333  1  0.41493979  0.95082328  0.13932508  1
  O  O334  1  0.41025569  0.92140082  0.46201731  1
  O  O335  1  0.40882909  0.93340915  0.77876709  1
  O  O336  1  0.91202679  0.40943841  0.13120903  1
  O  O337  1  0.91268539  0.41329306  0.46061576  1
  O  O338  1  0.91564406  0.41504252  0.79393305  1
  O  O339  1  0.91913586  0.91194206  0.12955802  1
  O  O340  1  0.91770521  0.91779064  0.46281650  1
  O  O341  1  0.91631831  0.90626932  0.80174838  1
  O  O342  1  0.41821822  0.41054116  0.29549845  1
  O  O343  1  0.42729172  0.42409176  0.64738975  1
  O  O344  1  0.40803188  0.40818607  0.95939337  1
  O  O345  1  0.42584958  0.92401424  0.30384867  1
  O  O346  1  0.40887069  0.90632805  0.61926038  1
  O  O347  1  0.42409921  0.90774672  0.93488984  1
  O  O348  1  0.91556454  0.40950350  0.29051821  1
  O  O349  1  0.91646650  0.41419705  0.62573050  1
  O  O350  1  0.90880693  0.40494576  0.95654390  1
  O  O351  1  0.91760409  0.91345714  0.29356168  1
  O  O352  1  0.91872404  0.91261060  0.63167964  1
  O  O353  1  0.91070016  0.90224266  0.95774910  1
  O  O354  1  0.08297439  0.08207266  0.20208127  1
  O  O355  1  0.07998217  0.08310559  0.53388150  1
  O  O356  1  0.07870748  0.09058048  0.86021858  1
  O  O357  1  0.07512028  0.57293635  0.20125942  1
  O  O358  1  0.08811598  0.59262222  0.53334811  1
  O  O359  1  0.08527745  0.58103656  0.86926856  1
  O  O360  1  0.59690190  0.08972040  0.20683306  1
  O  O361  1  0.59943412  0.08711721  0.53796291  1
  O  O362  1  0.59456125  0.09150099  0.88231305  1
  O  O363  1  0.59393705  0.59076941  0.21346969  1
  O  O364  1  0.59045153  0.58531513  0.53167517  1
  O  O365  1  0.58426294  0.56325741  0.86867761  1
  O  O366  1  0.13507979  0.22475985  0.05637215  1
  O  O367  1  0.14032284  0.22008790  0.39101507  1
  O  O368  1  0.13846259  0.22272516  0.72059401  1
  O  O369  1  0.13301242  0.71080101  0.04803586  1
  O  O370  1  0.13576376  0.72322798  0.39654209  1
  O  O371  1  0.13565648  0.72343216  0.72045164  1
  O  O372  1  0.63801292  0.22983072  0.06326959  1
  O  O373  1  0.63876911  0.22215150  0.38978381  1
  O  O374  1  0.62953317  0.21828128  0.73073787  1
  O  O375  1  0.63211502  0.71341008  0.05107894  1
  O  O376  1  0.64567973  0.71986598  0.39195054  1
  O  O377  1  0.63994792  0.71083342  0.71951141  1
  O  O378  1  0.26753779  0.35681544  0.10955784  1
  O  O379  1  0.28149452  0.36621281  0.44037469  1
  O  O380  1  0.27058380  0.36106526  0.77695878  1
  O  O381  1  0.29488474  0.87047405  0.12076713  1
  O  O382  1  0.27972618  0.86243060  0.44423486  1
  O  O383  1  0.28084620  0.87277671  0.76762916  1
  O  O384  1  0.77730594  0.35854111  0.10895987  1
  O  O385  1  0.77868771  0.36218921  0.43931813  1
  O  O386  1  0.78309349  0.35618648  0.77317996  1
  O  O387  1  0.78501893  0.86250699  0.11161377  1
  O  O388  1  0.78408182  0.86227454  0.44111699  1
  O  O389  1  0.77902220  0.85756546  0.76908188  1
  O  O390  1  0.36334197  0.27695323  0.27369671  1
  O  O391  1  0.36112406  0.29056964  0.61177209  1
  O  O392  1  0.35952469  0.27457476  0.94230395  1
  O  O393  1  0.36643381  0.79434929  0.28530960  1
  O  O394  1  0.36571284  0.77390626  0.61060142  1
  O  O395  1  0.38813311  0.80507621  0.97677502  1
  O  O396  1  0.86263487  0.27755988  0.27483148  1
  O  O397  1  0.86003426  0.28176133  0.60655607  1
  O  O398  1  0.85780149  0.27046675  0.93630985  1
  O  O399  1  0.86951819  0.78041934  0.28350657  1
  O  O400  1  0.86322528  0.77877497  0.60937638  1
  O  O401  1  0.85603166  0.76956823  0.93986636  1
  O  O402  1  0.21634741  0.13898165  0.22322638  1
  O  O403  1  0.21216460  0.14144287  0.55453819  1
  O  O404  1  0.21300732  0.14309305  0.88440730  1
  O  O405  1  0.20177918  0.63513667  0.21672377  1
  O  O406  1  0.22534851  0.64556050  0.57103566  1
  O  O407  1  0.21836282  0.64189876  0.89621137  1
  O  O408  1  0.73146952  0.14106905  0.23155481  1
  O  O409  1  0.73288943  0.13259358  0.55430469  1
  O  O410  1  0.72674192  0.13340633  0.88971884  1
  O  O411  1  0.72846224  0.63566812  0.22907040  1
  O  O412  1  0.72554005  0.63864292  0.55710834  1
  O  O413  1  0.71470839  0.62980327  0.89175167  1
  O  O414  1  0.48787075  0.33423622  0.03248095  1
  O  O415  1  0.49364712  0.32880686  0.36352352  1
  O  O416  1  0.49262728  0.32953101  0.70093811  1
  O  O417  1  0.50689433  0.89680164  0.05220424  1
  O  O418  1  0.49811456  0.84366094  0.37330550  1
  O  O419  1  0.49771077  0.83865328  0.69234717  1
  O  O420  1  0.98686411  0.32688284  0.02539057  1
  O  O421  1  0.99342473  0.33216244  0.36135832  1
  O  O422  1  0.99255654  0.33396216  0.69161683  1
  O  O423  1  0.98902521  0.82462057  0.02459886  1
  O  O424  1  1.00001704  0.84164413  0.36394350  1
  O  O425  1  0.99423311  0.83070303  0.69707137  1
  O  O426  1  0.16222577  0.00785805  0.13423026  1
  O  O427  1  0.16104648  0.00873456  0.46727960  1
  O  O428  1  0.16022449  0.00975339  0.80083309  1
  O  O429  1  0.15710247  0.50223887  0.13121200  1
  O  O430  1  0.17860664  0.51466562  0.48162401  1
  O  O431  1  0.16761231  0.51187814  0.80188281  1
  O  O432  1  0.67702497  0.01321016  0.13795332  1
  O  O433  1  0.67220457  0.00522381  0.46378788  1
  O  O434  1  0.66140858  0.00141442  0.80910727  1
  O  O435  1  0.66742794  0.50836828  0.13961881  1
  O  O436  1  0.67113858  0.50878636  0.46654451  1
  O  O437  1  0.67103566  0.49934762  0.80187343  1
  O  O438  1  0.00850256  0.16841824  0.30396932  1
  O  O439  1  0.00636584  0.16968685  0.63605715  1
  O  O440  1  0.00640569  0.16456099  0.96858575  1
  O  O441  1  0.00728331  0.67497510  0.30349402  1
  O  O442  1  0.00677885  0.66165707  0.63376054  1
  O  O443  1  -0.00033581  0.65662252  0.96689862  1
  O  O444  1  0.51029706  0.16572086  0.29715596  1
  O  O445  1  0.50037766  0.16071378  0.64322583  1
  O  O446  1  0.50977867  0.17201106  0.97168669  1
  O  O447  1  0.51355959  0.67664836  0.30296626  1
  O  O448  1  0.50855153  0.66097457  0.63139917  1
  O  O449  1  0.49589744  0.65487673  0.98198714  1
  O  O450  1  0.32315979  0.48854384  0.19627489  1
  O  O451  1  0.35092951  0.49371508  0.52885148  1
  O  O452  1  0.32882339  0.49022012  0.86827987  1
  O  O453  1  0.32395939  1.00393058  0.20366139  1
  O  O454  1  0.32734218  0.99599010  0.52782113  1
  O  O455  1  0.32764367  1.00521507  0.85072875  1
  O  O456  1  0.83226971  0.48969500  0.19594026  1
  O  O457  1  0.83392220  0.49315404  0.52642147  1
  O  O458  1  0.83555637  0.48794577  0.86175684  1
  O  O459  1  0.84267487  0.99295738  0.19761474  1
  O  O460  1  0.83949675  0.99098408  0.53343567  1
  O  O461  1  0.83261661  0.98693205  0.86069865  1
