# generated using pymatgen
data_Na31Fe20(SO4)36
_symmetry_space_group_name_H-M   'P 1'
_cell_length_a   18.07775193
_cell_length_b   18.07652143
_cell_length_c   19.72279895
_cell_angle_alpha   107.57200241
_cell_angle_beta   107.58492650
_cell_angle_gamma   90.77668810
_symmetry_Int_Tables_number   1
_chemical_formula_structural   Na31Fe20(SO4)36
_chemical_formula_sum   'Na62 Fe40 S72 O288'
_cell_volume   5818.16052488
_cell_formula_units_Z   2
loop_
 _symmetry_equiv_pos_site_id
 _symmetry_equiv_pos_as_xyz
  1  'x, y, z'
loop_
 _atom_site_type_symbol
 _atom_site_label
 _atom_site_symmetry_multiplicity
 _atom_site_fract_x
 _atom_site_fract_y
 _atom_site_fract_z
 _atom_site_occupancy
  Na  Na0  1  0.14343237  0.36490334  0.08317781  1
  Na  Na1  1  0.13611797  0.36764586  0.42108494  1
  Na  Na2  1  0.13963675  0.37130564  0.76328139  1
  Na  Na3  1  0.13329969  0.86194349  0.08084241  1
  Na  Na4  1  0.14966070  0.87191366  0.43589472  1
  Na  Na5  1  0.13491373  0.85721716  0.73983078  1
  Na  Na6  1  0.62212542  0.36733492  0.07556390  1
  Na  Na7  1  0.63371612  0.35718245  0.40638724  1
  Na  Na8  1  0.62790821  0.37570352  0.75230115  1
  Na  Na9  1  0.63440687  0.86616661  0.08824341  1
  Na  Na10  1  0.63371842  0.85512532  0.41557897  1
  Na  Na11  1  0.63602608  0.86516717  0.74767717  1
  Na  Na12  1  0.36384965  0.13143082  0.24486873  1
  Na  Na13  1  0.36536530  0.12804557  0.58483093  1
  Na  Na14  1  0.35960374  0.13364232  0.90372293  1
  Na  Na15  1  0.36641482  0.61832527  0.23722370  1
  Na  Na16  1  0.37232792  0.62991737  0.58518550  1
  Na  Na17  1  0.39035920  0.59096473  0.91703915  1
  Na  Na18  1  0.84915561  0.15693868  0.25347024  1
  Na  Na19  1  0.86411358  0.13156438  0.58207872  1
  Na  Na20  1  0.85990224  0.13938152  0.91976592  1
  Na  Na21  1  0.86490427  0.63911650  0.24783308  1
  Na  Na22  1  0.87576090  0.67100301  0.60978539  1
  Na  Na23  1  0.86774838  0.63805785  0.91530341  1
  Na  Na24  1  1.02109585  0.49362954  0.07288006  1
  Na  Na25  1  0.44825675  0.01211857  0.74448720  1
  Na  Na26  1  0.98488847  0.01271103  0.08103629  1
  Na  Na27  1  0.98181245  0.00237532  0.42214994  1
  Na  Na28  1  0.99729693  0.55321309  0.42549881  1
  Na  Na29  1  1.01589983  -0.01185505  0.75192742  1
  Na  Na30  1  0.49900266  0.52150694  0.40731446  1
  Na  Na31  1  0.50894093  -0.01770714  0.42226481  1
  Na  Na32  1  0.99053740  0.51940616  0.74245310  1
  Na  Na33  1  0.00676121  0.98788731  0.25347413  1
  Na  Na34  1  0.01258397  0.96264936  0.90635656  1
  Na  Na35  1  0.05829219  0.50187867  0.92620489  1
  Na  Na36  1  0.06557634  0.99287358  0.60630089  1
  Na  Na37  1  0.49439114  1.00581717  0.92896200  1
  Na  Na38  1  -0.01172954  0.52916582  0.57288059  1
  Na  Na39  1  0.00986589  0.49496289  0.24890428  1
  Na  Na40  1  0.51020680  0.99031281  0.23864505  1
  Na  Na41  1  0.49728094  0.95793412  0.57794841  1
  Na  Na42  1  0.74437523  0.25048372  0.66884124  1
  Na  Na43  1  0.72906194  0.23934882  0.01473241  1
  Na  Na44  1  0.25406294  0.25382150  0.32977048  1
  Na  Na45  1  0.74341326  0.74479748  0.00922082  1
  Na  Na46  1  0.75315989  0.74947505  0.32757877  1
  Na  Na47  1  0.26766578  0.27318817  -0.00732846  1
  Na  Na48  1  0.23912111  0.22493952  0.66901363  1
  Na  Na49  1  0.25094946  0.73541857  -0.00341179  1
  Na  Na50  1  0.24780476  0.75243798  0.65933100  1
  Na  Na51  1  0.26723115  0.75494432  0.32980957  1
  Na  Na52  1  0.25168754  0.74581205  0.83181593  1
  Na  Na53  1  0.24710379  0.24602815  0.50154960  1
  Na  Na54  1  0.25556428  0.25323563  0.16131173  1
  Na  Na55  1  0.27350022  0.76678137  0.49761412  1
  Na  Na56  1  0.72754760  0.23989299  0.84378017  1
  Na  Na57  1  0.76695664  0.76126975  0.81670851  1
  Na  Na58  1  0.25450871  0.74752079  0.16456427  1
  Na  Na59  1  0.75610549  0.25767284  0.48779849  1
  Na  Na60  1  0.25469390  0.26004296  0.83133772  1
  Na  Na61  1  0.74520375  0.74621728  0.51420289  1
  Fe  Fe62  1  0.46843178  0.30257858  0.79601680  1
  Fe  Fe63  1  0.46625642  0.31032303  0.45987621  1
  Fe  Fe64  1  0.46995305  0.30571635  0.11900682  1
  Fe  Fe65  1  0.97157325  0.80266543  0.45707225  1
  Fe  Fe66  1  0.96120387  0.31064370  0.78661245  1
  Fe  Fe67  1  0.96211516  0.30741909  0.11716687  1
  Fe  Fe68  1  0.96282744  0.31001012  0.44948262  1
  Fe  Fe69  1  0.46613137  0.80456123  0.78940029  1
  Fe  Fe70  1  0.46271523  0.80244512  0.11693282  1
  Fe  Fe71  1  0.96232338  0.80984558  0.11897166  1
  Fe  Fe72  1  0.68966478  0.53713087  0.71004045  1
  Fe  Fe73  1  0.69403145  0.03341580  0.38151162  1
  Fe  Fe74  1  0.19264550  0.53107025  0.71352845  1
  Fe  Fe75  1  0.19224178  0.03546234  0.38261268  1
  Fe  Fe76  1  0.68930323  0.03488821  0.04873059  1
  Fe  Fe77  1  0.69077762  0.53849271  0.04485500  1
  Fe  Fe78  1  0.68992686  0.03502699  0.71669299  1
  Fe  Fe79  1  0.19435998  0.53618606  0.38479147  1
  Fe  Fe80  1  0.69056715  0.53151682  0.37311263  1
  Fe  Fe81  1  0.19220298  0.03684574  0.04912729  1
  Fe  Fe82  1  0.53682175  0.68656036  0.20948510  1
  Fe  Fe83  1  0.02955445  0.19631807  0.21573193  1
  Fe  Fe84  1  0.02935942  0.19592215  0.54986185  1
  Fe  Fe85  1  0.03090976  0.70106297  0.87575434  1
  Fe  Fe86  1  0.53599230  0.69931665  0.54640381  1
  Fe  Fe87  1  0.53504277  0.69027082  0.87894976  1
  Fe  Fe88  1  0.03187612  0.18689900  0.87901790  1
  Fe  Fe89  1  0.53394266  0.19158776  0.54665231  1
  Fe  Fe90  1  0.03778888  0.69167025  0.21071426  1
  Fe  Fe91  1  0.54034218  0.18864357  0.21391865  1
  Fe  Fe92  1  0.30890026  0.96489965  0.95434027  1
  Fe  Fe93  1  0.30680993  0.46288578  0.28763059  1
  Fe  Fe94  1  0.31166870  0.45989304  0.62284898  1
  Fe  Fe95  1  0.80419229  0.46935833  0.61536036  1
  Fe  Fe96  1  0.31151132  0.96423829  0.28768726  1
  Fe  Fe97  1  0.80838889  0.46221962  0.28203405  1
  Fe  Fe98  1  0.80501861  0.96625197  0.94752298  1
  Fe  Fe99  1  0.80524435  0.96340328  0.28289482  1
  Fe  Fe100  1  0.81164563  0.96685746  0.62304754  1
  Fe  Fe101  1  0.80747083  0.46990871  0.94966507  1
  S  S102  1  0.36125999  0.13906593  0.08584423  1
  S  S103  1  0.35812404  0.14173523  0.41473046  1
  S  S104  1  0.35921305  0.14352958  0.74844069  1
  S  S105  1  0.35979746  0.64080988  0.08649657  1
  S  S106  1  0.36161805  0.63780178  0.42016549  1
  S  S107  1  0.36099146  0.63556505  0.75069751  1
  S  S108  1  0.85653037  0.14168448  0.08357145  1
  S  S109  1  0.85878145  0.14012468  0.41477342  1
  S  S110  1  0.85418152  0.14513748  0.75265299  1
  S  S111  1  0.86128157  0.64114304  0.08210383  1
  S  S112  1  0.85715064  0.63825027  0.41397681  1
  S  S113  1  0.85991458  0.64006205  0.74881708  1
  S  S114  1  0.13709861  0.35962361  0.25048498  1
  S  S115  1  0.13819671  0.35650844  0.58356011  1
  S  S116  1  0.13281264  0.35585414  0.91906225  1
  S  S117  1  0.13917264  0.86124928  0.24912256  1
  S  S118  1  0.14270228  0.85144769  0.57987287  1
  S  S119  1  0.14483868  0.86079193  0.92013674  1
  S  S120  1  0.64483801  0.35553566  0.24983067  1
  S  S121  1  0.64241636  0.35950937  0.58135760  1
  S  S122  1  0.64379824  0.36365527  0.91484033  1
  S  S123  1  0.63896665  0.85982951  0.25108003  1
  S  S124  1  0.64083424  0.86514280  0.57954036  1
  S  S125  1  0.64451654  0.85679253  0.91844778  1
  S  S126  1  0.06185849  0.16665489  0.04344472  1
  S  S127  1  0.06274833  0.17107546  0.37430230  1
  S  S128  1  0.05763181  0.16984311  0.71226659  1
  S  S129  1  0.06358228  0.67413059  0.04342501  1
  S  S130  1  0.06967409  0.67232437  0.37326215  1
  S  S131  1  0.06920084  0.66676909  0.70725334  1
  S  S132  1  0.55981186  0.16578376  0.04176753  1
  S  S133  1  0.56519936  0.16421341  0.37588923  1
  S  S134  1  0.56779978  0.17163361  0.70691547  1
  S  S135  1  0.57312873  0.67558622  0.04429760  1
  S  S136  1  0.56932156  0.66710001  0.37474411  1
  S  S137  1  0.57125051  0.67437940  0.71155259  1
  S  S138  1  0.33164253  0.42130229  0.12926443  1
  S  S139  1  0.32819193  0.42813174  0.45748924  1
  S  S140  1  0.32310785  0.41696828  0.78354092  1
  S  S141  1  0.32653222  0.93008881  0.12290043  1
  S  S142  1  0.33089618  0.94116117  0.45352963  1
  S  S143  1  0.33511321  0.92764059  0.79591245  1
  S  S144  1  0.83430672  0.43464450  0.12219654  1
  S  S145  1  0.83084238  0.43428603  0.45702480  1
  S  S146  1  0.83155885  0.43601392  0.78827596  1
  S  S147  1  0.83252574  0.93773930  0.12559204  1
  S  S148  1  0.82962310  0.93212918  0.45531528  1
  S  S149  1  0.83398893  0.94403675  0.79337161  1
  S  S150  1  0.43259393  0.32544787  0.29441825  1
  S  S151  1  0.43137768  0.32230982  0.62433882  1
  S  S152  1  0.43197385  0.33042070  0.95483806  1
  S  S153  1  0.43738148  0.83487881  0.29092844  1
  S  S154  1  0.43742650  0.82836928  0.62940671  1
  S  S155  1  0.43340135  0.82834491  0.95932262  1
  S  S156  1  0.93773498  0.33922800  0.29432869  1
  S  S157  1  0.92979395  0.33147782  0.62322272  1
  S  S158  1  0.92722243  0.33121407  0.95666178  1
  S  S159  1  0.93340256  0.83145378  0.29268307  1
  S  S160  1  0.93368558  0.84390173  0.62476305  1
  S  S161  1  0.93463781  0.83542123  0.95954189  1
  S  S162  1  0.16276604  0.06781334  0.20916696  1
  S  S163  1  0.15872357  0.07196319  0.53489233  1
  S  S164  1  0.16739812  0.06488029  0.87976649  1
  S  S165  1  0.16838685  0.56343672  0.21105585  1
  S  S166  1  0.17192463  0.55998210  0.54458372  1
  S  S167  1  0.16208432  0.57272387  0.87055038  1
  S  S168  1  0.66906507  0.06385173  0.21023046  1
  S  S169  1  0.67033838  0.06853389  0.54271167  1
  S  S170  1  0.66168077  0.05882089  0.87671068  1
  S  S171  1  0.67565644  0.56620526  0.20864125  1
  S  S172  1  0.67353950  0.57060108  0.53920995  1
  S  S173  1  0.67595754  0.57370854  0.87671377  1
  O  O174  1  0.36750405  0.21817542  0.07807411  1
  O  O175  1  0.36947404  0.22229025  0.41056318  1
  O  O176  1  0.37824603  0.22507220  0.74126893  1
  O  O177  1  0.36709611  0.72442914  0.08218758  1
  O  O178  1  0.36616556  0.71520831  0.41231296  1
  O  O179  1  0.36799097  0.71548407  0.74373661  1
  O  O180  1  0.86701517  0.21945284  0.07324950  1
  O  O181  1  0.86921524  0.21926263  0.40848014  1
  O  O182  1  0.86258061  0.22415848  0.74446475  1
  O  O183  1  0.86923014  0.72062654  0.07402212  1
  O  O184  1  0.87005504  0.71593395  0.40406587  1
  O  O185  1  0.86797133  0.71636441  0.74034722  1
  O  O186  1  0.28396421  0.12905695  0.09910939  1
  O  O187  1  0.27760075  0.13370472  0.42001221  1
  O  O188  1  0.28040186  0.14693798  0.75550215  1
  O  O189  1  0.28793153  0.63273955  0.10496873  1
  O  O190  1  0.28479085  0.62484743  0.43316280  1
  O  O191  1  0.28182248  0.62374567  0.75774748  1
  O  O192  1  0.77611003  0.13209188  0.08618107  1
  O  O193  1  0.77979076  0.13070083  0.42266070  1
  O  O194  1  0.77613466  0.13624618  0.76304744  1
  O  O195  1  0.78293849  0.63025320  0.08916439  1
  O  O196  1  0.77432124  0.63049238  0.41345007  1
  O  O197  1  0.78132343  0.62642120  0.75714621  1
  O  O198  1  0.12681631  0.28148997  0.26051737  1
  O  O199  1  0.12744903  0.27743853  0.59152579  1
  O  O200  1  0.11835995  0.27616600  0.92670185  1
  O  O201  1  0.13202598  0.78102963  0.25465719  1
  O  O202  1  0.12775546  0.77315578  0.58387566  1
  O  O203  1  0.13288596  0.78352786  0.93122000  1
  O  O204  1  0.63261676  0.27884584  0.26105049  1
  O  O205  1  0.63345068  0.27966554  0.58757407  1
  O  O206  1  0.64523951  0.28702247  0.92521959  1
  O  O207  1  0.62947594  0.78112329  0.25909643  1
  O  O208  1  0.63368410  0.78359799  0.58103225  1
  O  O209  1  0.63398996  0.77743478  0.92493518  1
  O  O210  1  0.21761076  0.36634375  0.24577384  1
  O  O211  1  0.21551704  0.36279245  0.57185930  1
  O  O212  1  0.20968452  0.35984278  0.90966352  1
  O  O213  1  0.21662635  0.87141932  0.23838291  1
  O  O214  1  0.21381567  0.85864673  0.55900024  1
  O  O215  1  0.22699231  0.86702701  0.91827437  1
  O  O216  1  0.72439455  0.36617398  0.24483288  1
  O  O217  1  0.72144168  0.36941296  0.57281052  1
  O  O218  1  0.71737601  0.38027659  0.89803743  1
  O  O219  1  0.71682275  0.86946790  0.24193544  1
  O  O220  1  0.72030299  0.87749065  0.57244797  1
  O  O221  1  0.72393344  0.86548669  0.91044906  1
  O  O222  1  0.42222765  0.13179495  0.15310305  1
  O  O223  1  0.41548429  0.13060165  0.48159512  1
  O  O224  1  0.41630514  0.13190500  0.81438373  1
  O  O225  1  0.42658365  0.63528670  0.15223967  1
  O  O226  1  0.42391594  0.62847444  0.48616713  1
  O  O227  1  0.42011062  0.62984328  0.81950740  1
  O  O228  1  0.91305750  0.13670022  0.15471733  1
  O  O229  1  0.91707437  0.13028654  0.48285309  1
  O  O230  1  0.91396412  0.13668292  0.82003857  1
  O  O231  1  0.92102543  0.63445401  0.15040458  1
  O  O232  1  0.91082822  0.62941502  0.48287568  1
  O  O233  1  0.91935880  0.63134496  0.81736341  1
  O  O234  1  0.36533002  0.08017839  0.01678105  1
  O  O235  1  0.36450628  0.08512215  0.34473203  1
  O  O236  1  0.36346667  0.08612607  0.67925022  1
  O  O237  1  0.36214484  0.58671518  0.01670562  1
  O  O238  1  0.36822352  0.57684294  0.35165319  1
  O  O239  1  0.36928177  0.57788780  0.68253017  1
  O  O240  1  0.87093379  0.08112101  0.01932688  1
  O  O241  1  0.86756627  0.08089025  0.34720529  1
  O  O242  1  0.86021239  0.08728095  0.68344750  1
  O  O243  1  0.87157329  0.58318435  0.01430351  1
  O  O244  1  0.86920381  0.57763489  0.34706658  1
  O  O245  1  0.87053956  0.57791975  0.68211582  1
  O  O246  1  0.08041592  0.36553346  0.17997216  1
  O  O247  1  0.07804059  0.36496440  0.51617105  1
  O  O248  1  0.07354977  0.36616135  0.85000344  1
  O  O249  1  0.07790248  0.87209455  0.18337688  1
  O  O250  1  0.07679793  0.86899020  0.51697986  1
  O  O251  1  0.09017470  0.86971828  0.85234067  1
  O  O252  1  0.58711076  0.36162729  0.18052217  1
  O  O253  1  0.58331724  0.36657007  0.51325101  1
  O  O254  1  0.57816893  0.36581611  0.84689978  1
  O  O255  1  0.57810197  0.87043687  0.18516589  1
  O  O256  1  0.58181757  0.88028773  0.51680368  1
  O  O257  1  0.58544428  0.86642415  0.85197328  1
  O  O258  1  0.12626967  0.42062722  0.31574064  1
  O  O259  1  0.13240928  0.41524327  0.65220658  1
  O  O260  1  0.12284771  0.41503394  0.98480455  1
  O  O261  1  0.13106257  0.91839927  0.31800929  1
  O  O262  1  0.14426741  0.91154355  0.65050666  1
  O  O263  1  0.13459121  0.92138678  0.98788052  1
  O  O264  1  0.63535594  0.41639507  0.31702089  1
  O  O265  1  0.63659133  0.41766576  0.65045434  1
  O  O266  1  0.63728237  0.42396115  0.98251005  1
  O  O267  1  0.63194856  0.91897761  0.32036795  1
  O  O268  1  0.63415283  0.91923698  0.65178324  1
  O  O269  1  0.63911086  0.91486953  0.98844135  1
  O  O270  1  0.02595042  0.19788799  0.10529236  1
  O  O271  1  0.02810648  0.20242970  0.43594399  1
  O  O272  1  0.01964065  0.20624919  0.77167772  1
  O  O273  1  0.02825804  0.71076156  0.10531682  1
  O  O274  1  0.03106245  0.69821311  0.43091125  1
  O  O275  1  0.04108982  0.69485859  0.77282802  1
  O  O276  1  0.53160409  0.20067310  0.10935097  1
  O  O277  1  0.52783466  0.19391844  0.43601769  1
  O  O278  1  0.53423615  0.20505763  0.76764189  1
  O  O279  1  0.53562318  0.70577076  0.10459086  1
  O  O280  1  0.53268015  0.68786149  0.43428088  1
  O  O281  1  0.53002074  0.70085695  0.77003458  1
  O  O282  1  0.30827177  0.44963761  0.06640070  1
  O  O283  1  0.29618478  0.46375465  0.39607126  1
  O  O284  1  0.29845761  0.45540987  0.72197560  1
  O  O285  1  0.29914440  0.96881089  0.06392676  1
  O  O286  1  0.29285583  0.97250888  0.38709691  1
  O  O287  1  0.31883941  0.95945853  0.73495690  1
  O  O288  1  0.80563419  0.47093312  0.06146949  1
  O  O289  1  0.80057299  0.46875541  0.39521575  1
  O  O290  1  0.79935345  0.46980295  0.72585869  1
  O  O291  1  0.80285867  0.97401298  0.06493241  1
  O  O292  1  0.79987269  0.97006484  0.39431385  1
  O  O293  1  0.79418211  0.97673237  0.73053381  1
  O  O294  1  0.47004057  0.29756025  0.23497799  1
  O  O295  1  0.47419961  0.29636890  0.56653164  1
  O  O296  1  0.47189454  0.30056789  0.89539871  1
  O  O297  1  0.46827147  0.80119637  0.22673173  1
  O  O298  1  0.47565204  0.79739057  0.57103646  1
  O  O299  1  0.47192881  0.79723018  0.89960290  1
  O  O300  1  0.96935332  0.30490292  0.22965136  1
  O  O301  1  0.96465736  0.29997685  0.56109623  1
  O  O302  1  0.95949379  0.29962252  0.89390298  1
  O  O303  1  0.96885803  0.80250753  0.23076978  1
  O  O304  1  0.95183517  0.81067320  0.55431517  1
  O  O305  1  0.97211591  0.80713056  0.90122422  1
  O  O306  1  0.19272001  0.03296893  0.27044233  1
  O  O307  1  0.18189077  0.04465001  0.59888395  1
  O  O308  1  0.20202647  0.03352019  0.94531680  1
  O  O309  1  0.19958050  0.53185635  0.27641605  1
  O  O310  1  0.20548562  0.52114825  0.60366586  1
  O  O311  1  0.18501108  0.54460762  0.93434480  1
  O  O312  1  0.70167652  0.02787160  0.27226153  1
  O  O313  1  0.69956862  0.03650641  0.60613789  1
  O  O314  1  0.70245533  0.02485319  0.93903274  1
  O  O315  1  0.70443031  0.52408850  0.26590722  1
  O  O316  1  0.70061624  0.53268038  0.60018308  1
  O  O317  1  0.70637424  0.53772656  0.93841298  1
  O  O318  1  0.07585960  0.08345622  0.03787914  1
  O  O319  1  0.07822208  0.08829781  0.36684991  1
  O  O320  1  0.06894263  0.08981249  0.71263018  1
  O  O321  1  0.07045033  0.59232720  0.03975984  1
  O  O322  1  0.08642986  0.58871843  0.36778705  1
  O  O323  1  0.08534016  0.58165226  0.69697940  1
  O  O324  1  0.59100983  0.08996333  0.04764458  1
  O  O325  1  0.58248446  0.08167488  0.37098140  1
  O  O326  1  0.58682518  0.09053850  0.70504645  1
  O  O327  1  0.59479537  0.59713851  0.04392488  1
  O  O328  1  0.58735936  0.58384219  0.36266504  1
  O  O329  1  0.59250273  0.59501528  0.70862672  1
  O  O330  1  0.41305099  0.39929569  0.14607166  1
  O  O331  1  0.40811932  0.40943266  0.45890476  1
  O  O332  1  0.40270966  0.39195164  0.78705024  1
  O  O333  1  0.40787067  0.91162396  0.13033166  1
  O  O334  1  0.41261661  0.93265049  0.45613000  1
  O  O335  1  0.41973940  0.90890908  0.81506478  1
  O  O336  1  0.91779756  0.41813899  0.12859526  1
  O  O337  1  0.91326652  0.41681236  0.46170998  1
  O  O338  1  0.91388246  0.42018463  0.79228181  1
  O  O339  1  0.91616507  0.92275556  0.13126934  1
  O  O340  1  0.91061864  0.91508459  0.45846840  1
  O  O341  1  0.91499026  0.93603327  0.79486899  1
  O  O342  1  0.41435997  0.40750588  0.30500884  1
  O  O343  1  0.41080524  0.40141084  0.62631183  1
  O  O344  1  0.41433627  0.40889110  0.96118452  1
  O  O345  1  0.41930234  0.91752580  0.29183055  1
  O  O346  1  0.42082426  0.90837508  0.63142088  1
  O  O347  1  0.41597897  0.90946192  0.96316503  1
  O  O348  1  0.92569088  0.42276119  0.29903002  1
  O  O349  1  0.91255605  0.41309575  0.62721702  1
  O  O350  1  0.91275848  0.41427169  0.96367873  1
  O  O351  1  0.91735437  0.91510790  0.29737165  1
  O  O352  1  0.91892612  0.92927684  0.63374123  1
  O  O353  1  0.91574595  0.91781737  0.96267233  1
  O  O354  1  0.07949792  0.08368474  0.20304776  1
  O  O355  1  0.07437258  0.09084248  0.52190782  1
  O  O356  1  0.08549943  0.08327183  0.88039967  1
  O  O357  1  0.08597969  0.58312712  0.20758821  1
  O  O358  1  0.09054996  0.57165640  0.53975045  1
  O  O359  1  0.07718539  0.59054052  0.85831950  1
  O  O360  1  0.58719875  0.07838490  0.20820050  1
  O  O361  1  0.58772416  0.08546130  0.53432976  1
  O  O362  1  0.57971355  0.06167576  0.87182148  1
  O  O363  1  0.59755038  0.58821349  0.20830234  1
  O  O364  1  0.59384865  0.59314587  0.53501715  1
  O  O365  1  0.59666463  0.59383159  0.87445548  1
  O  O366  1  0.13511047  0.21545716  0.06087359  1
  O  O367  1  0.13510598  0.22079474  0.38889864  1
  O  O368  1  0.12996933  0.21978040  0.72776942  1
  O  O369  1  0.13911551  0.72060926  0.06156814  1
  O  O370  1  0.14194566  0.72190911  0.38832055  1
  O  O371  1  0.14238694  0.71525124  0.72084330  1
  O  O372  1  0.62195403  0.22156233  0.04614257  1
  O  O373  1  0.63638032  0.21579164  0.39275591  1
  O  O374  1  0.63916631  0.22248715  0.71866584  1
  O  O375  1  0.64105130  0.73048979  0.05825267  1
  O  O376  1  0.64184487  0.72017584  0.39520004  1
  O  O377  1  0.64050115  0.73036127  0.73141326  1
  O  O378  1  0.27667556  0.35109427  0.11704537  1
  O  O379  1  0.27527954  0.35683784  0.44153220  1
  O  O380  1  0.26579448  0.34687959  0.76112946  1
  O  O381  1  0.27287335  0.85947383  0.10529184  1
  O  O382  1  0.28509797  0.86449191  0.43452891  1
  O  O383  1  0.28227459  0.85663171  0.78119630  1
  O  O384  1  0.78374727  0.36365403  0.10711456  1
  O  O385  1  0.78009566  0.36443388  0.44521863  1
  O  O386  1  0.78151522  0.36435312  0.77421629  1
  O  O387  1  0.78368207  0.86560264  0.11039640  1
  O  O388  1  0.77736113  0.86053545  0.43727216  1
  O  O389  1  0.78780699  0.87166879  0.78298823  1
  O  O390  1  0.35986450  0.27270121  0.27541801  1
  O  O391  1  0.36149452  0.26607921  0.60167437  1
  O  O392  1  0.36183125  0.27290270  0.93471159  1
  O  O393  1  0.36429337  0.78674589  0.27825681  1
  O  O394  1  0.36607794  0.77540746  0.61345670  1
  O  O395  1  0.36263213  0.77617866  0.94318388  1
  O  O396  1  0.86623325  0.29299709  0.28361207  1
  O  O397  1  0.85822758  0.27977605  0.60752785  1
  O  O398  1  0.85563475  0.28179150  0.94459746  1
  O  O399  1  0.86166273  0.78214225  0.27755802  1
  O  O400  1  0.86146732  0.79967586  0.61916521  1
  O  O401  1  0.86345987  0.78437261  0.94527427  1
  O  O402  1  0.21268883  0.14010052  0.22406253  1
  O  O403  1  0.20967312  0.14156836  0.54325383  1
  O  O404  1  0.21661294  0.13662275  0.89236718  1
  O  O405  1  0.21935028  0.63479972  0.22553870  1
  O  O406  1  0.22294535  0.63177519  0.56164684  1
  O  O407  1  0.21173158  0.64278113  0.87886653  1
  O  O408  1  0.71736640  0.13515975  0.22394313  1
  O  O409  1  0.72169253  0.13935803  0.55564028  1
  O  O410  1  0.70681195  0.13553451  0.89473917  1
  O  O411  1  0.73160025  0.63533082  0.22781477  1
  O  O412  1  0.73002471  0.63729254  0.55429956  1
  O  O413  1  0.73023941  0.64339333  0.89247968  1
  O  O414  1  0.48929947  0.32409155  0.02611282  1
  O  O415  1  0.49057870  0.32343993  0.36635041  1
  O  O416  1  0.48780646  0.32380492  0.69790409  1
  O  O417  1  0.49249185  0.83151871  0.03240257  1
  O  O418  1  0.49832719  0.84203462  0.36147403  1
  O  O419  1  0.49426420  0.83215544  0.70473778  1
  O  O420  1  0.98911217  0.33321973  0.02847714  1
  O  O421  1  0.99966648  0.33981343  0.36504026  1
  O  O422  1  0.98936190  0.33390821  0.69525450  1
  O  O423  1  0.99237873  0.84327024  0.03526365  1
  O  O424  1  0.99340210  0.83498831  0.36501251  1
  O  O425  1  1.00007368  0.84665333  0.69048410  1
  O  O426  1  0.16111307  0.00891395  0.13662595  1
  O  O427  1  0.15562780  0.00868967  0.46293805  1
  O  O428  1  0.15920858  0.00232060  0.81005318  1
  O  O429  1  0.16128686  0.50142129  0.14109787  1
  O  O430  1  0.17074520  0.50343584  0.46978064  1
  O  O431  1  0.15959903  0.50888339  0.79904285  1
  O  O432  1  0.66735922  0.00308275  0.13861547  1
  O  O433  1  0.66805456  0.00693204  0.47107028  1
  O  O434  1  0.66850321  0.00437317  0.80496250  1
  O  O435  1  0.67191533  0.50882650  0.13474258  1
  O  O436  1  0.66723709  0.50831708  0.46658347  1
  O  O437  1  0.67277618  0.51330779  0.80463665  1
  O  O438  1  0.00229162  0.17048061  0.30263985  1
  O  O439  1  0.00123744  0.16774131  0.63746703  1
  O  O440  1  0.00296846  0.16749358  0.97226407  1
  O  O441  1  0.01114864  0.66793464  0.29876386  1
  O  O442  1  0.00693963  0.66505854  0.63865151  1
  O  O443  1  0.00847987  0.67824258  0.97120683  1
  O  O444  1  0.50731429  0.16052767  0.30216705  1
  O  O445  1  0.50854824  0.16422326  0.63222340  1
  O  O446  1  0.49229840  0.14613861  0.97368302  1
  O  O447  1  0.51202798  0.67119652  0.30382996  1
  O  O448  1  0.51421728  0.67103902  0.63793390  1
  O  O449  1  0.51257737  0.66878112  0.97090863  1
  O  O450  1  0.32972049  0.48322187  0.20083222  1
  O  O451  1  0.33165176  0.48628004  0.53037483  1
  O  O452  1  0.32320165  0.47435859  0.85273605  1
  O  O453  1  0.32661255  0.98968298  0.19520453  1
  O  O454  1  0.32544338  0.99778766  0.52151837  1
  O  O455  1  0.33291745  0.98924153  0.86746804  1
  O  O456  1  0.83849044  0.49390408  0.19565343  1
  O  O457  1  0.83734046  0.49613122  0.52998500  1
  O  O458  1  0.83472807  0.49577236  0.86070134  1
  O  O459  1  0.83608104  0.99648562  0.19901129  1
  O  O460  1  0.82963645  0.99118752  0.52676162  1
  O  O461  1  0.83444433  1.00387303  0.86630524  1
