# generated using pymatgen
data_Na31Fe20(SO4)36
_symmetry_space_group_name_H-M   'P 1'
_cell_length_a   18.08323298
_cell_length_b   18.07460888
_cell_length_c   19.71772565
_cell_angle_alpha   107.58167267
_cell_angle_beta   107.58550820
_cell_angle_gamma   90.72463778
_symmetry_Int_Tables_number   1
_chemical_formula_structural   Na31Fe20(SO4)36
_chemical_formula_sum   'Na62 Fe40 S72 O288'
_cell_volume   5818.11592726
_cell_formula_units_Z   2
loop_
 _symmetry_equiv_pos_site_id
 _symmetry_equiv_pos_as_xyz
  1  'x, y, z'
loop_
 _atom_site_type_symbol
 _atom_site_label
 _atom_site_symmetry_multiplicity
 _atom_site_fract_x
 _atom_site_fract_y
 _atom_site_fract_z
 _atom_site_occupancy
  Na  Na0  1  0.13911805  0.35792789  0.08518826  1
  Na  Na1  1  0.13239282  0.36301117  0.41187116  1
  Na  Na2  1  0.13562500  0.37362531  0.75208004  1
  Na  Na3  1  0.13435643  0.85624025  0.06265447  1
  Na  Na4  1  0.13090287  0.85329676  0.40395926  1
  Na  Na5  1  0.14882243  0.86411625  0.76822755  1
  Na  Na6  1  0.63138364  0.36852708  0.08323678  1
  Na  Na7  1  0.63983303  0.37439108  0.43088128  1
  Na  Na8  1  0.62201455  0.37264152  0.74634102  1
  Na  Na9  1  0.63082655  0.85698637  0.07282941  1
  Na  Na10  1  0.62884832  0.86282486  0.41682649  1
  Na  Na11  1  0.63969798  0.86473341  0.74770965  1
  Na  Na12  1  0.34164111  0.12658529  0.22140368  1
  Na  Na13  1  0.36731362  0.12570977  0.57873402  1
  Na  Na14  1  0.35639063  0.12903147  0.91413686  1
  Na  Na15  1  0.37173972  0.63179178  0.25900244  1
  Na  Na16  1  0.37807701  0.62743037  0.58658455  1
  Na  Na17  1  0.35881586  0.62288538  0.90127678  1
  Na  Na18  1  0.86342917  0.13413619  0.24884199  1
  Na  Na19  1  0.86510826  0.13893719  0.58468200  1
  Na  Na20  1  0.86414275  0.13378741  0.91520980  1
  Na  Na21  1  0.86592588  0.64843345  0.25405008  1
  Na  Na22  1  0.86185197  0.66600873  0.62135228  1
  Na  Na23  1  0.86110183  0.65973555  0.92650795  1
  Na  Na24  1  0.99866733  0.55729402  0.75315883  1
  Na  Na25  1  0.48616496  0.51170363  0.08163317  1
  Na  Na26  1  0.49916771  0.51755988  0.40820633  1
  Na  Na27  1  0.43568949  -0.00398293  0.05973917  1
  Na  Na28  1  0.98775469  0.51416239  0.41839401  1
  Na  Na29  1  0.99009594  0.01296202  0.42004235  1
  Na  Na30  1  1.02481747  -0.00836835  0.08262033  1
  Na  Na31  1  1.01516548  -0.02380316  0.76357845  1
  Na  Na32  1  0.99659728  0.54573293  0.08887877  1
  Na  Na33  1  0.50694929  0.94525759  0.56251863  1
  Na  Na34  1  0.50202906  0.98902194  0.90636760  1
  Na  Na35  1  0.01550027  0.98696831  0.58790588  1
  Na  Na36  1  -0.00900502  0.52025650  0.24327300  1
  Na  Na37  1  0.02754014  0.48578158  0.58965803  1
  Na  Na38  1  0.49783261  0.99037328  0.27329869  1
  Na  Na39  1  -0.02247194  0.53828430  0.89566946  1
  Na  Na40  1  0.02002552  0.95873023  0.91698735  1
  Na  Na41  1  0.01306624  0.97903031  0.24713550  1
  Na  Na42  1  0.75394904  0.26515460  0.66017941  1
  Na  Na43  1  0.24316923  0.73725396  0.67448725  1
  Na  Na44  1  0.23475320  0.21844502  0.01828320  1
  Na  Na45  1  0.25871141  0.25596107  0.31435659  1
  Na  Na46  1  0.74992657  0.25282369  -0.00318034  1
  Na  Na47  1  0.25805988  0.75172379  0.32839576  1
  Na  Na48  1  0.74005381  0.74177662  0.34745738  1
  Na  Na49  1  0.25494293  0.25193144  0.66329369  1
  Na  Na50  1  0.75199303  0.25747621  0.33428217  1
  Na  Na51  1  0.25215161  0.75483987  -0.00368130  1
  Na  Na52  1  0.24963442  0.25049061  0.83347526  1
  Na  Na53  1  0.75588329  0.75661477  0.15367867  1
  Na  Na54  1  0.22116288  0.73189078  0.83716594  1
  Na  Na55  1  0.76216950  0.26800071  0.49950852  1
  Na  Na56  1  0.74910774  0.25269395  0.16424606  1
  Na  Na57  1  0.25438760  0.74518105  0.49781066  1
  Na  Na58  1  0.74985122  0.25507189  0.82901941  1
  Na  Na59  1  0.25480619  0.25580065  0.49285958  1
  Na  Na60  1  0.77311605  0.76347403  0.81865940  1
  Na  Na61  1  0.25038199  0.75465848  0.16440131  1
  Fe  Fe62  1  0.46429730  0.80462917  0.11767937  1
  Fe  Fe63  1  0.96547468  0.31081423  0.78593988  1
  Fe  Fe64  1  0.46509164  0.31624781  0.12504732  1
  Fe  Fe65  1  0.96679488  0.80701542  0.45040670  1
  Fe  Fe66  1  0.96414411  0.31074836  0.45490339  1
  Fe  Fe67  1  0.46664300  0.80338941  0.78397552  1
  Fe  Fe68  1  0.46200470  0.30928923  0.45465881  1
  Fe  Fe69  1  0.46588264  0.30769940  0.78813599  1
  Fe  Fe70  1  0.96349623  0.30545386  0.11779102  1
  Fe  Fe71  1  0.97094486  0.79819286  0.11897816  1
  Fe  Fe72  1  0.19018259  0.53310722  0.37898628  1
  Fe  Fe73  1  0.69310143  0.03335986  0.71231684  1
  Fe  Fe74  1  0.69311902  0.03195916  0.04764090  1
  Fe  Fe75  1  0.69346806  0.53163925  0.70697903  1
  Fe  Fe76  1  0.69688205  0.53631919  0.38737437  1
  Fe  Fe77  1  0.19182377  0.03606214  0.38437001  1
  Fe  Fe78  1  0.19860965  0.03191955  0.71847334  1
  Fe  Fe79  1  0.18768992  0.53548521  0.04652255  1
  Fe  Fe80  1  0.69392386  0.03641343  0.38288735  1
  Fe  Fe81  1  0.68345481  0.53727854  0.03886106  1
  Fe  Fe82  1  0.53367951  0.19085422  0.54737332  1
  Fe  Fe83  1  0.54013441  0.69943491  0.54489637  1
  Fe  Fe84  1  0.03043709  0.19232196  0.88093355  1
  Fe  Fe85  1  0.03539729  0.18618836  0.21086747  1
  Fe  Fe86  1  0.53552152  0.19432643  0.21422617  1
  Fe  Fe87  1  0.53321483  0.69466452  0.21779701  1
  Fe  Fe88  1  0.53830781  0.68606146  0.87666002  1
  Fe  Fe89  1  0.03453343  0.69638093  0.55103304  1
  Fe  Fe90  1  0.03574448  0.19333998  0.55030718  1
  Fe  Fe91  1  0.53341069  0.19003573  0.87863568  1
  Fe  Fe92  1  0.30047547  0.46879914  0.62552745  1
  Fe  Fe93  1  0.30979108  0.96453696  0.29104164  1
  Fe  Fe94  1  0.80537365  0.96704529  0.28530960  1
  Fe  Fe95  1  0.80483892  0.46723550  0.95175466  1
  Fe  Fe96  1  0.81596341  0.96272953  0.62338781  1
  Fe  Fe97  1  0.31728580  0.96018309  0.62254740  1
  Fe  Fe98  1  0.30582750  0.45870988  0.28361878  1
  Fe  Fe99  1  0.30270462  0.46229250  0.95079840  1
  Fe  Fe100  1  0.80732935  0.96642011  0.95279605  1
  Fe  Fe101  1  0.80450038  0.46774481  0.28507456  1
  S  S102  1  0.36623069  0.14616783  0.08505047  1
  S  S103  1  0.36015145  0.14017233  0.41591561  1
  S  S104  1  0.36077705  0.13917937  0.74863561  1
  S  S105  1  0.35869424  0.63789893  0.08339337  1
  S  S106  1  0.36180049  0.63393331  0.41788795  1
  S  S107  1  0.36082435  0.64038565  0.74976907  1
  S  S108  1  0.85604818  0.14205776  0.08637770  1
  S  S109  1  0.85941021  0.14267570  0.41847629  1
  S  S110  1  0.85684656  0.14431862  0.74617106  1
  S  S111  1  0.85654156  0.63716121  0.08480463  1
  S  S112  1  0.86148191  0.63970985  0.41229189  1
  S  S113  1  0.85666333  0.63246970  0.75735337  1
  S  S114  1  0.13638312  0.35681386  0.24828818  1
  S  S115  1  0.14046088  0.35375458  0.57920990  1
  S  S116  1  0.13826069  0.35628093  0.92109988  1
  S  S117  1  0.14129491  0.86119793  0.25211276  1
  S  S118  1  0.14415059  0.85999361  0.58120369  1
  S  S119  1  0.14667884  0.86484187  0.91739792  1
  S  S120  1  0.64104904  0.36129399  0.25147437  1
  S  S121  1  0.63460879  0.35924555  0.58385952  1
  S  S122  1  0.63985973  0.35834487  0.91743949  1
  S  S123  1  0.63993230  0.86017054  0.25037454  1
  S  S124  1  0.65007366  0.85936319  0.58511708  1
  S  S125  1  0.63987888  0.85949226  0.91505477  1
  S  S126  1  0.05575003  0.16371506  0.04053221  1
  S  S127  1  0.06199615  0.16721519  0.37503347  1
  S  S128  1  0.06685074  0.16839506  0.70810808  1
  S  S129  1  0.06540254  0.67142470  0.04468964  1
  S  S130  1  0.06406975  0.66702036  0.37637657  1
  S  S131  1  0.06584717  0.66931639  0.70426240  1
  S  S132  1  0.57072654  0.16926662  0.04097198  1
  S  S133  1  0.57161379  0.17502705  0.37826746  1
  S  S134  1  0.56802924  0.17083263  0.71010443  1
  S  S135  1  0.56259005  0.66780421  0.04222514  1
  S  S136  1  0.57029618  0.66607169  0.37526123  1
  S  S137  1  0.57829530  0.67483377  0.71046866  1
  S  S138  1  0.32854218  0.43280243  0.12208285  1
  S  S139  1  0.32203419  0.42640344  0.45413650  1
  S  S140  1  0.32907768  0.42535609  0.79135395  1
  S  S141  1  0.33666214  0.92953714  0.13036655  1
  S  S142  1  0.32483035  0.93078561  0.45505023  1
  S  S143  1  0.33387389  0.93236268  0.78796788  1
  S  S144  1  0.82888037  0.43240915  0.12323134  1
  S  S145  1  0.83526770  0.43988858  0.46003337  1
  S  S146  1  0.82365170  0.42882783  0.78977706  1
  S  S147  1  0.82892015  0.93304465  0.12703646  1
  S  S148  1  0.83263617  0.93713377  0.45764244  1
  S  S149  1  0.83514853  0.94318718  0.79401589  1
  S  S150  1  0.43490013  0.32957926  0.29368603  1
  S  S151  1  0.42312001  0.32343492  0.62109783  1
  S  S152  1  0.43272909  0.32783445  0.95827635  1
  S  S153  1  0.43404922  0.82555939  0.29154604  1
  S  S154  1  0.43782756  0.82430522  0.62175567  1
  S  S155  1  0.43532226  0.82403432  0.95148025  1
  S  S156  1  0.93087646  0.33119295  0.28997752  1
  S  S157  1  0.94230743  0.33639685  0.62622397  1
  S  S158  1  0.93031920  0.33240142  0.95876301  1
  S  S159  1  0.93243063  0.83781603  0.29078972  1
  S  S160  1  0.94558553  0.83971068  0.62542661  1
  S  S161  1  0.93218866  0.84342654  0.96505411  1
  S  S162  1  0.16613047  0.06210169  0.21295995  1
  S  S163  1  0.16684960  0.06412691  0.54248529  1
  S  S164  1  0.16690764  0.07887349  0.87227475  1
  S  S165  1  0.16896891  0.56077899  0.21068469  1
  S  S166  1  0.16672390  0.56374601  0.53876684  1
  S  S167  1  0.16853093  0.56068645  0.87902069  1
  S  S168  1  0.67063795  0.06963302  0.21173238  1
  S  S169  1  0.67299205  0.07085982  0.54510636  1
  S  S170  1  0.67002038  0.06825356  0.87650069  1
  S  S171  1  0.67123867  0.56914085  0.20747420  1
  S  S172  1  0.66884636  0.57078665  0.54381349  1
  S  S173  1  0.67299032  0.56890301  0.87484242  1
  O  O174  1  0.38008055  0.22759264  0.08111089  1
  O  O175  1  0.36800652  0.21970182  0.40803673  1
  O  O176  1  0.36979919  0.21897859  0.74234794  1
  O  O177  1  0.36706832  0.71628947  0.07395855  1
  O  O178  1  0.36267989  0.70700669  0.40098317  1
  O  O179  1  0.37511313  0.71736957  0.73710322  1
  O  O180  1  0.86120769  0.22306537  0.08113346  1
  O  O181  1  0.86813482  0.22285158  0.41221841  1
  O  O182  1  0.86814378  0.22227833  0.73559768  1
  O  O183  1  0.86941412  0.71848712  0.08439330  1
  O  O184  1  0.87135996  0.71682101  0.39992907  1
  O  O185  1  0.86349532  0.71364738  0.75908325  1
  O  O186  1  0.29132953  0.14013019  0.09751874  1
  O  O187  1  0.28271377  0.13217613  0.42791028  1
  O  O188  1  0.28051834  0.13010459  0.75438062  1
  O  O189  1  0.28072564  0.63001615  0.09339151  1
  O  O190  1  0.28539795  0.62001147  0.43070002  1
  O  O191  1  0.28633454  0.63899127  0.76432482  1
  O  O192  1  0.77837282  0.13035011  0.09698918  1
  O  O193  1  0.78129895  0.13479821  0.42830508  1
  O  O194  1  0.77660327  0.13745935  0.75187082  1
  O  O195  1  0.77430094  0.62748108  0.08628806  1
  O  O196  1  0.78067219  0.63058186  0.41424234  1
  O  O197  1  0.77198676  0.61883658  0.76038574  1
  O  O198  1  0.12492132  0.27925958  0.25942721  1
  O  O199  1  0.13434783  0.27106816  0.58116037  1
  O  O200  1  0.12624340  0.27875096  0.93168669  1
  O  O201  1  0.13502638  0.78714455  0.26621557  1
  O  O202  1  0.13421737  0.78126114  0.58844761  1
  O  O203  1  0.13817331  0.78743381  0.92934226  1
  O  O204  1  0.63274910  0.28063052  0.25679377  1
  O  O205  1  0.62121749  0.28350750  0.59821035  1
  O  O206  1  0.62941966  0.27968251  0.92636732  1
  O  O207  1  0.63107070  0.78279944  0.26165168  1
  O  O208  1  0.63654132  0.78027998  0.59121155  1
  O  O209  1  0.63137102  0.78208559  0.92407747  1
  O  O210  1  0.21637250  0.36326609  0.24277215  1
  O  O211  1  0.21959668  0.36567143  0.57246923  1
  O  O212  1  0.21800348  0.36267285  0.91420700  1
  O  O213  1  0.22129308  0.87349754  0.24578018  1
  O  O214  1  0.22247348  0.86802942  0.57192653  1
  O  O215  1  0.22230248  0.87021787  0.90268669  1
  O  O216  1  0.71925186  0.36917550  0.24041841  1
  O  O217  1  0.71018831  0.36172253  0.57162500  1
  O  O218  1  0.72096701  0.36614045  0.91363121  1
  O  O219  1  0.72054851  0.87029324  0.24633059  1
  O  O220  1  0.73151955  0.87064602  0.58489184  1
  O  O221  1  0.71676039  0.87195138  0.90444392  1
  O  O222  1  0.42835884  0.13379108  0.15163023  1
  O  O223  1  0.42071100  0.13229650  0.48299758  1
  O  O224  1  0.41786999  0.13192445  0.81779589  1
  O  O225  1  0.41904878  0.63012510  0.15128597  1
  O  O226  1  0.42508020  0.63398638  0.48765436  1
  O  O227  1  0.42393757  0.62915518  0.81324035  1
  O  O228  1  0.91653487  0.13398654  0.15336083  1
  O  O229  1  0.91950009  0.13173898  0.48466620  1
  O  O230  1  0.91314734  0.14015147  0.81696896  1
  O  O231  1  0.91085712  0.62095460  0.14981332  1
  O  O232  1  0.91881902  0.63317106  0.48088381  1
  O  O233  1  0.90892069  0.61716205  0.82469502  1
  O  O234  1  0.37375658  0.09022418  0.01666977  1
  O  O235  1  0.36575367  0.08197516  0.34694720  1
  O  O236  1  0.36876076  0.08148528  0.68040012  1
  O  O237  1  0.36769792  0.57773345  0.01637378  1
  O  O238  1  0.37273773  0.56857015  0.35417636  1
  O  O239  1  0.36049046  0.57965056  0.67847176  1
  O  O240  1  0.86215647  0.08639566  0.01679142  1
  O  O241  1  0.86644491  0.08506005  0.34930819  1
  O  O242  1  0.86679210  0.08359082  0.68046560  1
  O  O243  1  0.86584030  0.58193839  0.01423456  1
  O  O244  1  0.87295300  0.57832085  0.34570104  1
  O  O245  1  0.86634903  0.57800089  0.68919374  1
  O  O246  1  0.07940010  0.36259235  0.17826124  1
  O  O247  1  0.08218728  0.36111905  0.50917487  1
  O  O248  1  0.08143581  0.36132772  0.85043109  1
  O  O249  1  0.08356369  0.86640204  0.18163194  1
  O  O250  1  0.08433645  0.86998277  0.51378976  1
  O  O251  1  0.08397405  0.87287983  0.85101666  1
  O  O252  1  0.58142049  0.37032475  0.18442190  1
  O  O253  1  0.57278667  0.36722688  0.51772379  1
  O  O254  1  0.58386842  0.36378878  0.84733718  1
  O  O255  1  0.58357830  0.86418755  0.17958402  1
  O  O256  1  0.59455147  0.86989905  0.51814344  1
  O  O257  1  0.57782588  0.86986568  0.84933421  1
  O  O258  1  0.12584334  0.41796608  0.31374905  1
  O  O259  1  0.12810436  0.40810730  0.64493670  1
  O  O260  1  0.12955662  0.41686773  0.98724406  1
  O  O261  1  0.12791793  0.92509956  0.31594901  1
  O  O262  1  0.13647873  0.91995057  0.64909672  1
  O  O263  1  0.14061135  0.92634290  0.98517395  1
  O  O264  1  0.63710435  0.41801477  0.32159854  1
  O  O265  1  0.63120024  0.42212590  0.65269167  1
  O  O266  1  0.63102553  0.41814982  0.98437898  1
  O  O267  1  0.62843915  0.92203891  0.31557751  1
  O  O268  1  0.63779542  0.91813565  0.65313509  1
  O  O269  1  0.63316852  0.92006309  0.98413554  1
  O  O270  1  0.02001576  0.20038237  0.10296900  1
  O  O271  1  0.02501146  0.19780836  0.43516862  1
  O  O272  1  0.03116368  0.19942622  0.76908703  1
  O  O273  1  0.03486596  0.69790792  0.10961493  1
  O  O274  1  0.03402230  0.70104661  0.44217075  1
  O  O275  1  0.03486987  0.69295501  0.76640873  1
  O  O276  1  0.54028534  0.20064500  0.10509266  1
  O  O277  1  0.53531695  0.20266392  0.43932478  1
  O  O278  1  0.53052021  0.19894282  0.77107502  1
  O  O279  1  0.52615230  0.69959341  0.10356479  1
  O  O280  1  0.53422229  0.69004032  0.43553049  1
  O  O281  1  0.53578807  0.69894527  0.76740178  1
  O  O282  1  0.29592400  0.47079627  0.06261978  1
  O  O283  1  0.29012489  0.46123323  0.39204793  1
  O  O284  1  0.30377785  0.45942580  0.73048962  1
  O  O285  1  0.31741527  0.96304973  0.07031723  1
  O  O286  1  0.29216990  0.97207635  0.39720591  1
  O  O287  1  0.30228809  0.96691536  0.72320990  1
  O  O288  1  0.79980831  0.46699612  0.06174081  1
  O  O289  1  0.80076673  0.46865287  0.39243439  1
  O  O290  1  0.78759507  0.46138156  0.72898067  1
  O  O291  1  0.79848393  0.96904855  0.06557721  1
  O  O292  1  0.80134275  0.97486777  0.39714141  1
  O  O293  1  0.79998162  0.98073430  0.73325506  1
  O  O294  1  0.47383074  0.30293387  0.23412328  1
  O  O295  1  0.46080542  0.29458102  0.56063347  1
  O  O296  1  0.47147479  0.30028723  0.89856326  1
  O  O297  1  0.46701509  0.79551760  0.22591227  1
  O  O298  1  0.47708095  0.79565576  0.56370453  1
  O  O299  1  0.47389608  0.78580671  0.89312873  1
  O  O300  1  0.96492004  0.30034701  0.22810677  1
  O  O301  1  0.97454256  0.29525688  0.56245238  1
  O  O302  1  0.96362185  0.30268125  0.89556200  1
  O  O303  1  0.96889294  0.81709319  0.23168854  1
  O  O304  1  0.96866423  0.80326582  0.55452894  1
  O  O305  1  0.96629317  0.82901984  0.90579246  1
  O  O306  1  0.20181255  0.03609066  0.28071816  1
  O  O307  1  0.19785880  0.03000920  0.60380579  1
  O  O308  1  0.19759436  0.06286442  0.94195110  1
  O  O309  1  0.20662511  0.52547201  0.27239242  1
  O  O310  1  0.19474581  0.52589654  0.59679239  1
  O  O311  1  0.20354435  0.52593590  0.94354494  1
  O  O312  1  0.70238941  0.03335574  0.27318422  1
  O  O313  1  0.70332486  0.03208771  0.60384923  1
  O  O314  1  0.70277317  0.03341061  0.93855090  1
  O  O315  1  0.69853282  0.53001696  0.26668938  1
  O  O316  1  0.68444739  0.53203492  0.60274138  1
  O  O317  1  0.69867787  0.52438852  0.93144523  1
  O  O318  1  0.06241502  0.08183427  0.03529051  1
  O  O319  1  0.07650452  0.08413870  0.37050210  1
  O  O320  1  0.08654731  0.08716705  0.70283181  1
  O  O321  1  0.08484991  0.58787593  0.03886605  1
  O  O322  1  0.07966562  0.58372821  0.37224917  1
  O  O323  1  0.08233441  0.58689150  0.68946921  1
  O  O324  1  0.58799683  0.08686496  0.03382002  1
  O  O325  1  0.59128772  0.09346575  0.37183650  1
  O  O326  1  0.59159422  0.09194909  0.70695771  1
  O  O327  1  0.57877837  0.58626099  0.04100815  1
  O  O328  1  0.59165417  0.58451515  0.36779816  1
  O  O329  1  0.59992445  0.59455785  0.70602783  1
  O  O330  1  0.41062906  0.41915268  0.12385187  1
  O  O331  1  0.40285988  0.40947901  0.45694520  1
  O  O332  1  0.40972627  0.40387417  0.80099502  1
  O  O333  1  0.42192732  0.91195607  0.14597087  1
  O  O334  1  0.40361819  0.91495777  0.45699046  1
  O  O335  1  0.41354685  0.90973826  0.78865874  1
  O  O336  1  0.91059238  0.41301112  0.12945919  1
  O  O337  1  0.91678295  0.41940725  0.45939538  1
  O  O338  1  0.90428374  0.41003320  0.78970135  1
  O  O339  1  0.90944471  0.91305105  0.13236975  1
  O  O340  1  0.91585478  0.92312964  0.46212922  1
  O  O341  1  0.91664292  0.93457738  0.79801521  1
  O  O342  1  0.41298693  0.40994480  0.29752157  1
  O  O343  1  0.39730153  0.40018535  0.62183051  1
  O  O344  1  0.41106806  0.40831698  0.96407721  1
  O  O345  1  0.41247255  0.90609653  0.29412177  1
  O  O346  1  0.41818906  0.90465086  0.62106825  1
  O  O347  1  0.42714546  0.90433855  0.94985412  1
  O  O348  1  0.91435013  0.41362751  0.29588596  1
  O  O349  1  0.93987580  0.41817507  0.63065758  1
  O  O350  1  0.91310422  0.41441138  0.96702428  1
  O  O351  1  0.91612518  0.92254507  0.30488324  1
  O  O352  1  0.92648064  0.92246910  0.62612845  1
  O  O353  1  0.91418410  0.92897520  0.98468674  1
  O  O354  1  0.08266337  0.07877722  0.21086216  1
  O  O355  1  0.08440565  0.08219437  0.53898379  1
  O  O356  1  0.08077764  0.09135196  0.85722211  1
  O  O357  1  0.08766612  0.56953570  0.20845039  1
  O  O358  1  0.08466220  0.58334162  0.53356089  1
  O  O359  1  0.08898316  0.57699840  0.87843080  1
  O  O360  1  0.59031593  0.08755596  0.20886852  1
  O  O361  1  0.59280293  0.08980789  0.54223756  1
  O  O362  1  0.58916060  0.08533679  0.87475070  1
  O  O363  1  0.58971056  0.58813527  0.20014055  1
  O  O364  1  0.58687608  0.59392939  0.52935151  1
  O  O365  1  0.59233741  0.58620630  0.87140130  1
  O  O366  1  0.12933912  0.21167542  0.05822199  1
  O  O367  1  0.13497248  0.21599292  0.39119263  1
  O  O368  1  0.13645699  0.22089209  0.72065905  1
  O  O369  1  0.13778428  0.72124599  0.05887528  1
  O  O370  1  0.13774685  0.71429111  0.39022260  1
  O  O371  1  0.13774428  0.72110648  0.71693407  1
  O  O372  1  0.64197526  0.22036113  0.05340199  1
  O  O373  1  0.64268649  0.22835196  0.39512391  1
  O  O374  1  0.63565155  0.22765915  0.72617094  1
  O  O375  1  0.63478602  0.71829478  0.05932406  1
  O  O376  1  0.63802281  0.72089316  0.38923749  1
  O  O377  1  0.64662490  0.73143734  0.73143120  1
  O  O378  1  0.27941962  0.36003402  0.10557106  1
  O  O379  1  0.27061719  0.35304743  0.43564937  1
  O  O380  1  0.27403264  0.35519149  0.77593129  1
  O  O381  1  0.28548981  0.85729737  0.11488519  1
  O  O382  1  0.27101954  0.85945571  0.43612596  1
  O  O383  1  0.28012896  0.86257172  0.77105957  1
  O  O384  1  0.77581095  0.36215540  0.10888852  1
  O  O385  1  0.78549289  0.36635663  0.44499553  1
  O  O386  1  0.77418321  0.35756636  0.78022950  1
  O  O387  1  0.77453720  0.86569480  0.11484535  1
  O  O388  1  0.78321668  0.86464677  0.43981626  1
  O  O389  1  0.78629080  0.87079763  0.77775792  1
  O  O390  1  0.36665214  0.27441092  0.27719648  1
  O  O391  1  0.35599423  0.26493894  0.60532619  1
  O  O392  1  0.36395484  0.27246323  0.94061770  1
  O  O393  1  0.36198489  0.77250029  0.27324464  1
  O  O394  1  0.36624437  0.77217213  0.60493500  1
  O  O395  1  0.36185711  0.77631729  0.93645198  1
  O  O396  1  0.85854691  0.28054358  0.27512491  1
  O  O397  1  0.86554604  0.29222791  0.60958027  1
  O  O398  1  0.85879126  0.28012017  0.94333983  1
  O  O399  1  0.86001936  0.78660928  0.27200223  1
  O  O400  1  0.87760204  0.79378850  0.62185803  1
  O  O401  1  0.86026413  0.79225339  0.94792592  1
  O  O402  1  0.21170393  0.13468229  0.22246192  1
  O  O403  1  0.21738781  0.13467962  0.55441403  1
  O  O404  1  0.21174494  0.14883233  0.87241299  1
  O  O405  1  0.21637703  0.63469225  0.22606886  1
  O  O406  1  0.21864018  0.63495652  0.55365971  1
  O  O407  1  0.22131639  0.63307871  0.89772665  1
  O  O408  1  0.72325868  0.14113811  0.22824704  1
  O  O409  1  0.72577714  0.14234797  0.56147470  1
  O  O410  1  0.72064435  0.14057315  0.89132282  1
  O  O411  1  0.72463819  0.64064625  0.22686878  1
  O  O412  1  0.72604564  0.63614801  0.56098329  1
  O  O413  1  0.72678615  0.63869348  0.89671905  1
  O  O414  1  0.49292554  0.33234794  0.03146269  1
  O  O415  1  0.49469650  0.33579049  0.36731909  1
  O  O416  1  0.48381095  0.32853217  0.69380901  1
  O  O417  1  0.49040879  0.82800644  0.02778357  1
  O  O418  1  0.49454604  0.82761311  0.35989925  1
  O  O419  1  0.49449561  0.83056129  0.69644823  1
  O  O420  1  0.99048363  0.33151145  0.02944410  1
  O  O421  1  0.99014849  0.33183434  0.36175464  1
  O  O422  1  0.99760474  0.32853938  0.69702884  1
  O  O423  1  0.99172853  0.84001924  0.03733235  1
  O  O424  1  0.99044893  0.83479959  0.36283004  1
  O  O425  1  1.01483129  0.84938819  0.69055084  1
  O  O426  1  0.16060454  -0.00162111  0.14483995  1
  O  O427  1  0.15964010  0.00445823  0.46840024  1
  O  O428  1  0.16627828  0.01060392  0.80384233  1
  O  O429  1  0.16920790  0.50390582  0.13745236  1
  O  O430  1  0.16056654  0.50504435  0.46352756  1
  O  O431  1  0.16788461  0.50271180  0.80896147  1
  O  O432  1  0.66886175  0.01044490  0.13969874  1
  O  O433  1  0.67026200  0.01277072  0.47140967  1
  O  O434  1  0.66793333  0.00959570  0.80441935  1
  O  O435  1  0.67055842  0.51095065  0.13461213  1
  O  O436  1  0.66636969  0.50762002  0.47182926  1
  O  O437  1  0.67096378  0.51164098  0.80042038  1
  O  O438  1  0.00416840  0.16628126  0.30223828  1
  O  O439  1  0.00549183  0.16351701  0.63512232  1
  O  O440  1  -0.00127622  0.16828727  0.96871217  1
  O  O441  1  0.00274750  0.66398702  0.30704836  1
  O  O442  1  0.00435879  0.67473050  0.63309391  1
  O  O443  1  0.00346053  0.66789251  0.97545307  1
  O  O444  1  0.51206474  0.17237211  0.30626833  1
  O  O445  1  0.50741870  0.16593428  0.63760521  1
  O  O446  1  0.50916676  0.16718877  0.96972989  1
  O  O447  1  0.50894790  0.66191319  0.30251788  1
  O  O448  1  0.52118756  0.67212752  0.63619771  1
  O  O449  1  0.50565566  0.66448557  0.96901512  1
  O  O450  1  0.33176499  0.48960979  0.19619645  1
  O  O451  1  0.32237305  0.48381021  0.52610982  1
  O  O452  1  0.32988925  0.48520840  0.86351081  1
  O  O453  1  0.33549865  0.98917219  0.20287235  1
  O  O454  1  0.32440627  0.98763028  0.52898122  1
  O  O455  1  0.34037083  0.99474642  0.85728573  1
  O  O456  1  0.83361278  0.49262030  0.19630777  1
  O  O457  1  0.83970623  0.50087508  0.52827238  1
  O  O458  1  0.83391890  0.48876536  0.86488539  1
  O  O459  1  0.83388140  0.99586603  0.19977431  1
  O  O460  1  0.83409143  0.99511992  0.53029259  1
  O  O461  1  0.83336986  1.00030920  0.86724211  1
