# generated using pymatgen
data_Na31Fe20(SO4)36
_symmetry_space_group_name_H-M   'P 1'
_cell_length_a   18.06467883
_cell_length_b   18.07063069
_cell_length_c   19.69539294
_cell_angle_alpha   107.58269532
_cell_angle_beta   107.57338408
_cell_angle_gamma   90.72210481
_symmetry_Int_Tables_number   1
_chemical_formula_structural   Na31Fe20(SO4)36
_chemical_formula_sum   'Na62 Fe40 S72 O288'
_cell_volume   5804.72053986
_cell_formula_units_Z   2
loop_
 _symmetry_equiv_pos_site_id
 _symmetry_equiv_pos_as_xyz
  1  'x, y, z'
loop_
 _atom_site_type_symbol
 _atom_site_label
 _atom_site_symmetry_multiplicity
 _atom_site_fract_x
 _atom_site_fract_y
 _atom_site_fract_z
 _atom_site_occupancy
  Na  Na0  1  0.13704954  0.36787197  0.08377309  1
  Na  Na1  1  0.13903100  0.35307371  0.41856323  1
  Na  Na2  1  0.12202062  0.36709358  0.74183468  1
  Na  Na3  1  0.13571471  0.86573133  0.08519259  1
  Na  Na4  1  0.15222359  0.87026747  0.44140047  1
  Na  Na5  1  0.13843995  0.86025895  0.74364992  1
  Na  Na6  1  0.62180756  0.34523317  0.06950985  1
  Na  Na7  1  0.63689572  0.36851125  0.41756200  1
  Na  Na8  1  0.63276240  0.38034488  0.76593797  1
  Na  Na9  1  0.63058456  0.84756207  0.06055974  1
  Na  Na10  1  0.63664054  0.87289467  0.41762929  1
  Na  Na11  1  0.63774494  0.86924165  0.75440956  1
  Na  Na12  1  0.37045938  0.13668471  0.25316578  1
  Na  Na13  1  0.35056828  0.13298889  0.57142589  1
  Na  Na14  1  0.37625470  0.14129887  0.91871431  1
  Na  Na15  1  0.36809812  0.63699109  0.25398330  1
  Na  Na16  1  0.34791133  0.67505059  0.59304311  1
  Na  Na17  1  0.38024577  0.62242872  0.90853260  1
  Na  Na18  1  0.87266346  0.13479119  0.26012841  1
  Na  Na19  1  0.85491514  0.12607853  0.56540607  1
  Na  Na20  1  0.85926712  0.13941570  0.91510370  1
  Na  Na21  1  0.85928750  0.63482241  0.25075303  1
  Na  Na22  1  0.86687003  0.62015598  0.57587494  1
  Na  Na23  1  0.85583945  0.63390168  0.91958070  1
  Na  Na24  1  0.51509503  0.49725082  0.41791866  1
  Na  Na25  1  1.01276584  0.45558444  0.46854472  1
  Na  Na26  1  0.47242183  0.02966888  0.74538857  1
  Na  Na27  1  0.98339487  0.00357441  0.10460677  1
  Na  Na28  1  0.99180222  0.02184785  0.39168033  1
  Na  Na29  1  0.51376311  0.49021142  0.06199749  1
  Na  Na30  1  0.99300472  0.00861800  0.74409757  1
  Na  Na31  1  0.95436177  0.50516472  0.07420353  1
  Na  Na32  1  0.49570177  0.02046647  0.08550084  1
  Na  Na33  1  -0.01250937  0.50047987  0.26753028  1
  Na  Na34  1  0.47663255  0.51637961  0.61733155  1
  Na  Na35  1  0.00844247  0.99164499  0.92259647  1
  Na  Na36  1  0.02333377  0.99775267  0.57243421  1
  Na  Na37  1  0.53297941  0.47465607  0.24248477  1
  Na  Na38  1  0.51209084  0.99305854  0.90762169  1
  Na  Na39  1  0.48834175  1.01074705  0.57065885  1
  Na  Na40  1  -0.00797085  0.50317569  0.90557480  1
  Na  Na41  1  0.54830446  0.99388640  0.27873302  1
  Na  Na42  1  0.25988506  0.75470775  -0.00968210  1
  Na  Na43  1  0.25504728  0.25989507  0.65124549  1
  Na  Na44  1  0.76263895  0.25720156  0.33361250  1
  Na  Na45  1  0.73477571  0.24804345  -0.00460528  1
  Na  Na46  1  0.26564207  0.26126842  -0.00189998  1
  Na  Na47  1  0.24231034  0.74663177  0.34553250  1
  Na  Na48  1  0.24872016  0.24436438  0.33970474  1
  Na  Na49  1  0.75318741  0.25686566  0.66366029  1
  Na  Na50  1  0.74523544  0.74269495  0.67385577  1
  Na  Na51  1  0.74439413  0.73766992  0.33879517  1
  Na  Na52  1  0.25709861  0.25758536  0.82374055  1
  Na  Na53  1  0.75689934  0.25202594  0.49257011  1
  Na  Na54  1  0.72732291  0.73868543  0.85403864  1
  Na  Na55  1  0.26490571  0.25980199  0.16300195  1
  Na  Na56  1  0.74731881  0.24705690  0.16934789  1
  Na  Na57  1  0.24856861  0.74922383  0.16926476  1
  Na  Na58  1  0.74077397  0.73234187  0.50458744  1
  Na  Na59  1  0.75287530  0.26536551  0.83150291  1
  Na  Na60  1  0.26598817  0.75764498  0.81383003  1
  Na  Na61  1  0.75556743  0.75549034  0.15305185  1
  Fe  Fe62  1  0.47114203  0.80062297  0.11611553  1
  Fe  Fe63  1  0.96091671  0.81027399  0.12254470  1
  Fe  Fe64  1  0.96324908  0.30521002  0.78611274  1
  Fe  Fe65  1  0.96653145  0.80480613  0.45358493  1
  Fe  Fe66  1  0.46601379  0.80904757  0.45184422  1
  Fe  Fe67  1  0.46464485  0.31088204  0.45781167  1
  Fe  Fe68  1  0.96408276  0.31002634  0.11886181  1
  Fe  Fe69  1  0.46649235  0.80359134  0.78155388  1
  Fe  Fe70  1  0.46428860  0.30469525  0.79094607  1
  Fe  Fe71  1  0.96513444  0.80615830  0.78470195  1
  Fe  Fe72  1  0.20007325  0.03122048  0.70989622  1
  Fe  Fe73  1  0.68541124  0.03740529  0.71150415  1
  Fe  Fe74  1  0.69267610  0.53582322  0.72109356  1
  Fe  Fe75  1  0.19004828  0.53722979  0.04735428  1
  Fe  Fe76  1  0.19468755  0.53645846  0.38485183  1
  Fe  Fe77  1  0.69502364  0.03608912  0.04802916  1
  Fe  Fe78  1  0.19455594  0.03282672  0.37919073  1
  Fe  Fe79  1  0.69520818  0.52956986  0.03694267  1
  Fe  Fe80  1  0.19674407  0.03325755  0.04940200  1
  Fe  Fe81  1  0.19160083  0.53740018  0.71316317  1
  Fe  Fe82  1  0.53680610  0.19011635  0.54457596  1
  Fe  Fe83  1  0.53620681  0.68382557  0.21059102  1
  Fe  Fe84  1  0.03990807  0.68888401  0.54919347  1
  Fe  Fe85  1  0.03776636  0.19710091  0.21685199  1
  Fe  Fe86  1  0.53336648  0.69435468  0.54787732  1
  Fe  Fe87  1  0.03278396  0.69532028  0.21749399  1
  Fe  Fe88  1  0.03494551  0.69076846  0.87860495  1
  Fe  Fe89  1  0.03756782  0.19027068  0.88030538  1
  Fe  Fe90  1  0.03022521  0.20116601  0.54030193  1
  Fe  Fe91  1  0.53360042  0.19835086  0.21493672  1
  Fe  Fe92  1  0.80411346  0.96717666  0.61649569  1
  Fe  Fe93  1  0.31594285  0.96276892  0.28750360  1
  Fe  Fe94  1  0.30996188  0.46827457  0.28713898  1
  Fe  Fe95  1  0.30610727  0.46428802  0.62042133  1
  Fe  Fe96  1  0.80330727  0.46535000  0.29623934  1
  Fe  Fe97  1  0.80580694  0.96510876  0.94883985  1
  Fe  Fe98  1  0.30891214  0.96647892  0.95157300  1
  Fe  Fe99  1  0.30441435  0.46772485  0.95364608  1
  Fe  Fe100  1  0.79832721  0.96468583  0.28740837  1
  Fe  Fe101  1  0.80945078  0.46474156  0.62367541  1
  S  S102  1  0.35953738  0.14042393  0.08675907  1
  S  S103  1  0.36149224  0.13890190  0.41627217  1
  S  S104  1  0.35472527  0.14323043  0.74320011  1
  S  S105  1  0.35711548  0.64234019  0.08146594  1
  S  S106  1  0.35837410  0.64277562  0.41738576  1
  S  S107  1  0.35930929  0.63938392  0.74314244  1
  S  S108  1  0.86339953  0.13887308  0.08161812  1
  S  S109  1  0.86017446  0.13574236  0.41419214  1
  S  S110  1  0.85875125  0.13891170  0.75218838  1
  S  S111  1  0.86007582  0.64148744  0.08717774  1
  S  S112  1  0.86553242  0.63896377  0.41657716  1
  S  S113  1  0.85857487  0.64316823  0.75463404  1
  S  S114  1  0.14224914  0.36270826  0.24853397  1
  S  S115  1  0.14106006  0.36357509  0.58535944  1
  S  S116  1  0.13961970  0.35904550  0.91699714  1
  S  S117  1  0.14037513  0.85930530  0.24807011  1
  S  S118  1  0.13693144  0.86011982  0.58610229  1
  S  S119  1  0.13967397  0.86076532  0.91624640  1
  S  S120  1  0.64370464  0.35445589  0.25047712  1
  S  S121  1  0.63882448  0.36115912  0.58767051  1
  S  S122  1  0.63223067  0.35838709  0.91907549  1
  S  S123  1  0.64228275  0.84996553  0.24656479  1
  S  S124  1  0.64369465  0.85823416  0.58108318  1
  S  S125  1  0.63852671  0.86432185  0.91388607  1
  S  S126  1  0.07069704  0.16920303  0.04348072  1
  S  S127  1  0.07393902  0.16752874  0.37077406  1
  S  S128  1  0.06459832  0.16647709  0.70758522  1
  S  S129  1  0.06388596  0.67113862  0.04309155  1
  S  S130  1  0.06982633  0.67120734  0.37567067  1
  S  S131  1  0.06863489  0.67244363  0.71360964  1
  S  S132  1  0.56636188  0.15988497  0.04069813  1
  S  S133  1  0.56724935  0.17703056  0.38065115  1
  S  S134  1  0.56344123  0.17435127  0.70930484  1
  S  S135  1  0.56851155  0.66452257  0.04250069  1
  S  S136  1  0.56181737  0.66385330  0.37384359  1
  S  S137  1  0.56878342  0.67515499  0.70964525  1
  S  S138  1  0.33294972  0.44278686  0.12640376  1
  S  S139  1  0.33088378  0.43459066  0.45740712  1
  S  S140  1  0.32342813  0.42779194  0.78748092  1
  S  S141  1  0.33192699  0.92839668  0.12268753  1
  S  S142  1  0.33284197  0.93411850  0.45271573  1
  S  S143  1  0.33374781  0.93660008  0.79323208  1
  S  S144  1  0.82603510  0.43135247  0.12642595  1
  S  S145  1  0.82742372  0.42703964  0.46026491  1
  S  S146  1  0.83169883  0.43534923  0.79304132  1
  S  S147  1  0.82520408  0.93226916  0.12366374  1
  S  S148  1  0.83272201  0.92592111  0.45796280  1
  S  S149  1  0.83685205  0.93579253  0.79104066  1
  S  S150  1  0.43493806  0.33398410  0.29502956  1
  S  S151  1  0.43002717  0.32692670  0.62568629  1
  S  S152  1  0.42636834  0.33253795  0.95602753  1
  S  S153  1  0.43725063  0.82822238  0.28760430  1
  S  S154  1  0.44673714  0.84274391  0.62494107  1
  S  S155  1  0.43040790  0.83373487  0.95616059  1
  S  S156  1  0.93697957  0.33023070  0.28983003  1
  S  S157  1  0.92681537  0.32220757  0.62435698  1
  S  S158  1  0.93903496  0.33034806  0.95624346  1
  S  S159  1  0.93188540  0.82984263  0.29144101  1
  S  S160  1  0.92812921  0.82910991  0.62504129  1
  S  S161  1  0.93352251  0.83463919  0.95940317  1
  S  S162  1  0.17188527  0.06778409  0.20886946  1
  S  S163  1  0.16027613  0.06900734  0.53777723  1
  S  S164  1  0.17228511  0.06740706  0.87596884  1
  S  S165  1  0.16696170  0.56894921  0.20907645  1
  S  S166  1  0.16847466  0.56359476  0.53953806  1
  S  S167  1  0.16912833  0.56738952  0.87695501  1
  S  S168  1  0.66954265  0.06553739  0.20904424  1
  S  S169  1  0.66830557  0.06530848  0.54508535  1
  S  S170  1  0.66857250  0.06537426  0.87297280  1
  S  S171  1  0.67171568  0.56066148  0.20423678  1
  S  S172  1  0.66820896  0.56560305  0.54735721  1
  S  S173  1  0.66917424  0.57187906  0.88131086  1
  O  O174  1  0.36426315  0.21859222  0.08090578  1
  O  O175  1  0.36970573  0.21899477  0.40980385  1
  O  O176  1  0.36438603  0.22788829  0.74283640  1
  O  O177  1  0.36941074  0.72215951  0.07556814  1
  O  O178  1  0.36818901  0.72035928  0.40648693  1
  O  O179  1  0.36749191  0.71767264  0.73155676  1
  O  O180  1  0.87175657  0.21603242  0.06970984  1
  O  O181  1  0.86938140  0.20864510  0.39807385  1
  O  O182  1  0.86537269  0.22003780  0.74865084  1
  O  O183  1  0.86597095  0.72410049  0.08785661  1
  O  O184  1  0.87829495  0.71469028  0.40126866  1
  O  O185  1  0.86875019  0.72325332  0.74827550  1
  O  O186  1  0.28153755  0.12573797  0.09731480  1
  O  O187  1  0.28363485  0.12747656  0.42529331  1
  O  O188  1  0.27181326  0.13471897  0.74468871  1
  O  O189  1  0.27631934  0.63594260  0.08716534  1
  O  O190  1  0.27718303  0.63274324  0.41939069  1
  O  O191  1  0.27662575  0.63034661  0.74606021  1
  O  O192  1  0.78526764  0.13157333  0.09167125  1
  O  O193  1  0.78736136  0.12641006  0.43044375  1
  O  O194  1  0.78198199  0.12843038  0.76396353  1
  O  O195  1  0.78047448  0.62566791  0.09362316  1
  O  O196  1  0.78920207  0.63596062  0.42716867  1
  O  O197  1  0.78010757  0.63593932  0.76443022  1
  O  O198  1  0.13531567  0.28336007  0.25647947  1
  O  O199  1  0.12643861  0.28620757  0.59604861  1
  O  O200  1  0.13186594  0.28041978  0.92685835  1
  O  O201  1  0.13243338  0.77770707  0.25171313  1
  O  O202  1  0.12126431  0.78379219  0.59752007  1
  O  O203  1  0.13003548  0.78293951  0.92634853  1
  O  O204  1  0.63507687  0.27275484  0.25532149  1
  O  O205  1  0.62884867  0.28068553  0.59294709  1
  O  O206  1  0.61816314  0.28761707  0.93661419  1
  O  O207  1  0.63492016  0.76969713  0.25274730  1
  O  O208  1  0.63667415  0.77701023  0.58515067  1
  O  O209  1  0.63250545  0.78835240  0.92325194  1
  O  O210  1  0.22063959  0.37283430  0.23886733  1
  O  O211  1  0.22385418  0.36766536  0.58425305  1
  O  O212  1  0.21896189  0.36781032  0.90978696  1
  O  O213  1  0.21763589  0.86963276  0.23626280  1
  O  O214  1  0.20961478  0.86699241  0.57150876  1
  O  O215  1  0.21903601  0.86973712  0.90954255  1
  O  O216  1  0.72883792  0.36300397  0.25437314  1
  O  O217  1  0.71798473  0.36871386  0.57956643  1
  O  O218  1  0.70670316  0.36333829  0.90481144  1
  O  O219  1  0.72181456  0.86151281  0.23982971  1
  O  O220  1  0.72215204  0.86839294  0.57171146  1
  O  O221  1  0.71599005  0.87658713  0.90080064  1
  O  O222  1  0.42016483  0.13037622  0.15362355  1
  O  O223  1  0.42202449  0.13022207  0.48300196  1
  O  O224  1  0.40866337  0.13241509  0.81082362  1
  O  O225  1  0.41306217  0.63258481  0.14988536  1
  O  O226  1  0.41397563  0.63768207  0.48823775  1
  O  O227  1  0.41443784  0.63481249  0.81154254  1
  O  O228  1  0.92365338  0.13119971  0.14934075  1
  O  O229  1  0.92645254  0.12866868  0.47999066  1
  O  O230  1  0.92101937  0.12733928  0.81723852  1
  O  O231  1  0.91861724  0.63172158  0.15640644  1
  O  O232  1  0.92714340  0.63336620  0.48480249  1
  O  O233  1  0.91826781  0.63528763  0.82246369  1
  O  O234  1  0.36700279  0.08098101  0.01811578  1
  O  O235  1  0.36804033  0.08205968  0.34611659  1
  O  O236  1  0.36548103  0.09089638  0.67483838  1
  O  O237  1  0.36422442  0.58426645  0.01280626  1
  O  O238  1  0.37057303  0.58229058  0.35174054  1
  O  O239  1  0.36656448  0.57895507  0.67426031  1
  O  O240  1  0.87114848  0.07743667  0.01448659  1
  O  O241  1  0.86741077  0.07003008  0.34736557  1
  O  O242  1  0.86595398  0.08339550  0.68182002  1
  O  O243  1  0.87296568  0.58764262  0.02091349  1
  O  O244  1  0.87145166  0.57620396  0.34919254  1
  O  O245  1  0.86389584  0.58552614  0.68524650  1
  O  O246  1  0.08199616  0.36957833  0.18056654  1
  O  O247  1  0.08818127  0.37057368  0.51600242  1
  O  O248  1  0.08077178  0.36545867  0.84834137  1
  O  O249  1  0.07877239  0.86811261  0.18162579  1
  O  O250  1  0.07118898  0.87114384  0.52148413  1
  O  O251  1  0.08096712  0.86882579  0.84788390  1
  O  O252  1  0.59377623  0.36154856  0.17919602  1
  O  O253  1  0.57999464  0.37185678  0.52093751  1
  O  O254  1  0.56883719  0.36548394  0.85076454  1
  O  O255  1  0.58467368  0.85740327  0.17637932  1
  O  O256  1  0.58390357  0.86858219  0.51492120  1
  O  O257  1  0.57720468  0.87492491  0.84765474  1
  O  O258  1  0.13448889  0.42120603  0.31673077  1
  O  O259  1  0.13284015  0.42458202  0.65277841  1
  O  O260  1  0.13079510  0.41896265  0.98426911  1
  O  O261  1  0.13586783  0.91492278  0.31880596  1
  O  O262  1  0.13144587  0.92185824  0.65565838  1
  O  O263  1  0.13009704  0.92151852  0.98337072  1
  O  O264  1  0.62725085  0.41045543  0.31420726  1
  O  O265  1  0.63196308  0.41817420  0.65723850  1
  O  O266  1  0.62829754  0.42684461  0.98554968  1
  O  O267  1  0.63162505  0.90710640  0.31254491  1
  O  O268  1  0.63876397  0.91423188  0.65187825  1
  O  O269  1  0.63253269  0.92612400  0.98206337  1
  O  O270  1  0.03472668  0.19993020  0.10431752  1
  O  O271  1  0.04512183  0.19741022  0.43471629  1
  O  O272  1  0.02653386  0.19624778  0.76833893  1
  O  O273  1  0.02613303  0.69944732  0.10306828  1
  O  O274  1  0.03957932  0.70216674  0.44045288  1
  O  O275  1  0.02750842  0.70192758  0.77241619  1
  O  O276  1  0.53618092  0.18074390  0.10528801  1
  O  O277  1  0.52889234  0.21159064  0.44100463  1
  O  O278  1  0.52402606  0.20658108  0.76656474  1
  O  O279  1  0.53216200  0.69090105  0.10629951  1
  O  O280  1  0.52628885  0.70240910  0.43473899  1
  O  O281  1  0.53459842  0.70784154  0.76961275  1
  O  O282  1  0.29347627  0.47651217  0.06401130  1
  O  O283  1  0.30143222  0.47232584  0.39680370  1
  O  O284  1  0.29897119  0.47019736  0.73064880  1
  O  O285  1  0.30050464  0.96487131  0.06153877  1
  O  O286  1  0.29933614  0.96549704  0.38674732  1
  O  O287  1  0.30373534  0.97446037  0.73520682  1
  O  O288  1  0.79570048  0.46822078  0.06682669  1
  O  O289  1  0.80399735  0.46734355  0.40294057  1
  O  O290  1  0.79922031  0.46856195  0.72888657  1
  O  O291  1  0.79866929  0.97020935  0.06265390  1
  O  O292  1  0.80619746  0.95570915  0.39455293  1
  O  O293  1  0.80731038  0.96973656  0.72897652  1
  O  O294  1  0.47152135  0.30241337  0.23660843  1
  O  O295  1  0.47024471  0.29910341  0.56728804  1
  O  O296  1  0.45062809  0.30782053  0.88737303  1
  O  O297  1  0.47341949  0.79468833  0.22689740  1
  O  O298  1  0.47801902  0.79884334  0.56061254  1
  O  O299  1  0.46065313  0.81422994  0.89259928  1
  O  O300  1  0.97052880  0.30002328  0.22443570  1
  O  O301  1  0.96164308  0.29387167  0.56391256  1
  O  O302  1  0.97365160  0.29090369  0.89487742  1
  O  O303  1  0.97228735  0.80135810  0.23237350  1
  O  O304  1  0.95901799  0.79647010  0.56140142  1
  O  O305  1  0.97188636  0.80614410  0.89985075  1
  O  O306  1  0.19950411  0.03127865  0.26939492  1
  O  O307  1  0.17277079  0.03128475  0.59650888  1
  O  O308  1  0.20220981  0.03187980  0.93791752  1
  O  O309  1  0.19861981  0.53315188  0.27000345  1
  O  O310  1  0.20053984  0.52777284  0.60064669  1
  O  O311  1  0.20006743  0.53018132  0.93811018  1
  O  O312  1  0.69672912  0.02674993  0.26697641  1
  O  O313  1  0.70169155  0.03301437  0.61149732  1
  O  O314  1  0.70800779  0.03562207  0.93783707  1
  O  O315  1  0.69791521  0.52152134  0.26149291  1
  O  O316  1  0.69776735  0.53505752  0.61322469  1
  O  O317  1  0.70056278  0.53354736  0.94209928  1
  O  O318  1  0.08877236  0.08732823  0.03896528  1
  O  O319  1  0.08933869  0.08389206  0.36104757  1
  O  O320  1  0.08340739  0.08517601  0.70646078  1
  O  O321  1  0.08087329  0.58849771  0.03605486  1
  O  O322  1  0.08932910  0.58962782  0.37011747  1
  O  O323  1  0.09008702  0.59404218  0.71318914  1
  O  O324  1  0.58562031  0.07535082  0.02871327  1
  O  O325  1  0.58273418  0.09843794  0.38065434  1
  O  O326  1  0.58037028  0.09261519  0.70912564  1
  O  O327  1  0.59660088  0.58564576  0.04305316  1
  O  O328  1  0.56745130  0.58155939  0.36859654  1
  O  O329  1  0.58950465  0.59470692  0.70727443  1
  O  O330  1  0.41480792  0.43661625  0.13172793  1
  O  O331  1  0.41387365  0.41967195  0.46454467  1
  O  O332  1  0.39983864  0.39880174  0.78682520  1
  O  O333  1  0.41298995  0.91053925  0.12696239  1
  O  O334  1  0.41243436  0.91108229  0.45202784  1
  O  O335  1  0.41388805  0.91483947  0.79347424  1
  O  O336  1  0.90974346  0.41658248  0.12939158  1
  O  O337  1  0.90469882  0.40179418  0.46790178  1
  O  O338  1  0.90973693  0.40843125  0.79109593  1
  O  O339  1  0.90723596  0.91419997  0.12802615  1
  O  O340  1  0.91714242  0.91159384  0.47178617  1
  O  O341  1  0.92046681  0.91963181  0.79785954  1
  O  O342  1  0.41675938  0.41608204  0.29750730  1
  O  O343  1  0.41165105  0.40820504  0.62910468  1
  O  O344  1  0.40289266  0.41417678  0.96592624  1
  O  O345  1  0.42136643  0.90943888  0.28916018  1
  O  O346  1  0.45258943  0.92608137  0.63123912  1
  O  O347  1  0.41568645  0.91887382  0.97546144  1
  O  O348  1  0.91162298  0.40875654  0.29008627  1
  O  O349  1  0.90609397  0.40220829  0.63138003  1
  O  O350  1  0.93312315  0.41192830  0.95894756  1
  O  O351  1  0.91048018  0.90953177  0.29425848  1
  O  O352  1  0.91153930  0.91168777  0.63094399  1
  O  O353  1  0.91908878  0.91870812  0.96612004  1
  O  O354  1  0.09060696  0.08837754  0.20092898  1
  O  O355  1  0.07666994  0.08780807  0.51939433  1
  O  O356  1  0.08781637  0.07990722  0.86890389  1
  O  O357  1  0.08509789  0.58611610  0.20461447  1
  O  O358  1  0.08671897  0.57996635  0.53712794  1
  O  O359  1  0.08852865  0.58580284  0.87688799  1
  O  O360  1  0.58843225  0.08620029  0.20731889  1
  O  O361  1  0.58813704  0.08520896  0.54614495  1
  O  O362  1  0.58521599  0.06712320  0.86380576  1
  O  O363  1  0.58711510  0.57466509  0.19546766  1
  O  O364  1  0.58894441  0.59276141  0.54481062  1
  O  O365  1  0.59011468  0.58793662  0.87369591  1
  O  O366  1  0.14165609  0.22092049  0.05784776  1
  O  O367  1  0.14423992  0.21589013  0.37850587  1
  O  O368  1  0.13464406  0.22003319  0.72486844  1
  O  O369  1  0.13573889  0.72307064  0.06076517  1
  O  O370  1  0.13660589  0.72363997  0.38353759  1
  O  O371  1  0.13725483  0.72849747  0.73257527  1
  O  O372  1  0.64022094  0.21056220  0.05890343  1
  O  O373  1  0.63823276  0.22967297  0.39676106  1
  O  O374  1  0.63629878  0.22392205  0.72512256  1
  O  O375  1  0.63642700  0.72086300  0.06051880  1
  O  O376  1  0.63751903  0.70975159  0.39078959  1
  O  O377  1  0.63974898  0.72661883  0.72114049  1
  O  O378  1  0.28616103  0.36721738  0.10997954  1
  O  O379  1  0.27988968  0.36244583  0.43850299  1
  O  O380  1  0.26346540  0.36157044  0.76913859  1
  O  O381  1  0.27871209  0.85736071  0.10604565  1
  O  O382  1  0.27991636  0.86561561  0.44051842  1
  O  O383  1  0.28059592  0.86846925  0.78236347  1
  O  O384  1  0.77822461  0.35721243  0.11021469  1
  O  O385  1  0.76854970  0.35893280  0.44154909  1
  O  O386  1  0.77630169  0.36709659  0.77991215  1
  O  O387  1  0.77307033  0.86160369  0.10574062  1
  O  O388  1  0.78331679  0.85374402  0.44548816  1
  O  O389  1  0.78688594  0.86448281  0.77727089  1
  O  O390  1  0.36239603  0.28390649  0.28115324  1
  O  O391  1  0.35971330  0.27387780  0.60709604  1
  O  O392  1  0.35716990  0.27762385  0.94236161  1
  O  O393  1  0.36397795  0.77871981  0.27212371  1
  O  O394  1  0.36846501  0.80651734  0.60929075  1
  O  O395  1  0.35737935  0.78271744  0.93847180  1
  O  O396  1  0.86893485  0.27389791  0.27416779  1
  O  O397  1  0.85632449  0.26809442  0.61019549  1
  O  O398  1  0.86357636  0.28486764  0.94083376  1
  O  O399  1  0.86204812  0.77456951  0.27227737  1
  O  O400  1  0.85791156  0.77900877  0.61529552  1
  O  O401  1  0.86135138  0.78514470  0.94234194  1
  O  O402  1  0.22555358  0.13787321  0.22461664  1
  O  O403  1  0.21513409  0.13900634  0.55970054  1
  O  O404  1  0.22001913  0.14129521  0.89298059  1
  O  O405  1  0.21864632  0.64061254  0.22441322  1
  O  O406  1  0.21690189  0.63354586  0.54968838  1
  O  O407  1  0.22112971  0.63822587  0.89246606  1
  O  O408  1  0.72344689  0.13574446  0.22434339  1
  O  O409  1  0.71953752  0.13730300  0.56122501  1
  O  O410  1  0.71141234  0.14200392  0.88734066  1
  O  O411  1  0.72112586  0.63493210  0.22447630  1
  O  O412  1  0.72448513  0.63312378  0.55998325  1
  O  O413  1  0.72602337  0.64032646  0.89953318  1
  O  O414  1  0.49073902  0.33645787  0.02292330  1
  O  O415  1  0.49209132  0.34192587  0.37115773  1
  O  O416  1  0.48727424  0.32965690  0.70045252  1
  O  O417  1  0.49069332  0.82644587  0.02461117  1
  O  O418  1  0.49488089  0.83007830  0.36057129  1
  O  O419  1  0.50131892  0.83292834  0.69564612  1
  O  O420  1  0.99500147  0.32820191  0.02975350  1
  O  O421  1  0.99999724  0.33828448  0.35953615  1
  O  O422  1  0.98734968  0.32349753  0.69704069  1
  O  O423  1  0.99148353  0.83706690  0.03326606  1
  O  O424  1  0.99101348  0.83336475  0.36429712  1
  O  O425  1  0.99133335  0.83338756  0.69670638  1
  O  O426  1  0.16921277  0.00666164  0.13656575  1
  O  O427  1  0.16670880  0.00942472  0.46799559  1
  O  O428  1  0.17342041  0.00920290  0.80468269  1
  O  O429  1  0.16399887  0.51012207  0.13584167  1
  O  O430  1  0.16225741  0.50111210  0.46633255  1
  O  O431  1  0.16579498  0.50871064  0.80446518  1
  O  O432  1  0.66251493  0.00792166  0.13356451  1
  O  O433  1  0.66534332  0.00441478  0.47668939  1
  O  O434  1  0.67796991  0.00799438  0.80306467  1
  O  O435  1  0.67197677  0.50639271  0.12917465  1
  O  O436  1  0.65738209  0.50241442  0.47729590  1
  O  O437  1  0.67475660  0.51173224  0.80990711  1
  O  O438  1  0.01001785  0.16701243  0.30013557  1
  O  O439  1  0.00688146  0.16008896  0.63336846  1
  O  O440  1  0.01066438  0.16384100  0.96988468  1
  O  O441  1  0.00449750  0.66419825  0.30440010  1
  O  O442  1  0.01027359  0.66814871  0.64000385  1
  O  O443  1  0.00606520  0.66979864  0.96994084  1
  O  O444  1  0.50918786  0.17590460  0.30696964  1
  O  O445  1  0.50694769  0.16639656  0.63330396  1
  O  O446  1  0.50708737  0.16069222  0.97211928  1
  O  O447  1  0.50695472  0.66723234  0.30021058  1
  O  O448  1  0.50733802  0.66650292  0.63522135  1
  O  O449  1  0.50705730  0.65774259  0.97353875  1
  O  O450  1  0.32716547  0.49905127  0.19820027  1
  O  O451  1  0.33179573  0.49233090  0.53005238  1
  O  O452  1  0.33071802  0.48649418  0.86161350  1
  O  O453  1  0.33282837  0.98776833  0.19484870  1
  O  O454  1  0.34197239  0.99772684  0.52213848  1
  O  O455  1  0.34422696  0.99610277  0.86984019  1
  O  O456  1  0.83160974  0.48814246  0.20127571  1
  O  O457  1  0.82632223  0.48640297  0.53340132  1
  O  O458  1  0.84472638  0.49780065  0.86410395  1
  O  O459  1  0.82755625  0.99112841  0.19604488  1
  O  O460  1  0.83067829  0.98808637  0.52835785  1
  O  O461  1  0.84069049  0.99605310  0.86395626  1
