# generated using pymatgen
data_Na31Fe20(SO4)36
_symmetry_space_group_name_H-M   'P 1'
_cell_length_a   18.06385102
_cell_length_b   18.06721744
_cell_length_c   19.69274187
_cell_angle_alpha   107.59225987
_cell_angle_beta   107.57812657
_cell_angle_gamma   90.71673911
_symmetry_Int_Tables_number   1
_chemical_formula_structural   Na31Fe20(SO4)36
_chemical_formula_sum   'Na62 Fe40 S72 O288'
_cell_volume   5802.12786624
_cell_formula_units_Z   2
loop_
 _symmetry_equiv_pos_site_id
 _symmetry_equiv_pos_as_xyz
  1  'x, y, z'
loop_
 _atom_site_type_symbol
 _atom_site_label
 _atom_site_symmetry_multiplicity
 _atom_site_fract_x
 _atom_site_fract_y
 _atom_site_fract_z
 _atom_site_occupancy
  Na  Na0  1  0.14341837  0.35913045  0.08318432  1
  Na  Na1  1  0.12707077  0.35921336  0.40990056  1
  Na  Na2  1  0.13657514  0.36923357  0.75421441  1
  Na  Na3  1  0.11954639  0.87414460  0.08919473  1
  Na  Na4  1  0.13482168  0.87493028  0.42585216  1
  Na  Na5  1  0.13387463  0.86143947  0.74275300  1
  Na  Na6  1  0.63461286  0.36038744  0.08173858  1
  Na  Na7  1  0.63389275  0.36218600  0.41527548  1
  Na  Na8  1  0.63965513  0.36364389  0.75484302  1
  Na  Na9  1  0.62743124  0.85465590  0.06869338  1
  Na  Na10  1  0.64229106  0.87597584  0.42337658  1
  Na  Na11  1  0.63355639  0.86638358  0.74862871  1
  Na  Na12  1  0.35762447  0.12967515  0.24062463  1
  Na  Na13  1  0.36516117  0.12864651  0.58709022  1
  Na  Na14  1  0.36134723  0.14002504  0.92480285  1
  Na  Na15  1  0.35650977  0.63883628  0.24246948  1
  Na  Na16  1  0.36109893  0.64713807  0.58849155  1
  Na  Na17  1  0.37011416  0.64461351  0.91961718  1
  Na  Na18  1  0.93868843  0.07419427  0.24036384  1
  Na  Na19  1  0.85944280  0.11564848  0.56482228  1
  Na  Na20  1  0.86256124  0.13042366  0.90970890  1
  Na  Na21  1  0.86677548  0.63127458  0.24567672  1
  Na  Na22  1  0.86465772  0.63220813  0.58145634  1
  Na  Na23  1  0.87171905  0.63496230  0.92576858  1
  Na  Na24  1  0.99832242  0.50106231  0.42250558  1
  Na  Na25  1  0.49449338  0.00675476  0.41363109  1
  Na  Na26  1  0.98879261  0.50571256  0.76283015  1
  Na  Na27  1  0.49201964  0.50857605  0.08591199  1
  Na  Na28  1  0.49276955  0.54445537  0.75966495  1
  Na  Na29  1  0.98163195  0.02076321  0.71643384  1
  Na  Na30  1  0.99854259  0.51733582  0.06590279  1
  Na  Na31  1  0.48254394  0.01544393  0.09077185  1
  Na  Na32  1  0.44872658  0.00276418  0.74008121  1
  Na  Na33  1  0.02725739  0.98438069  0.94887209  1
  Na  Na34  1  0.54406007  0.99245972  0.26157582  1
  Na  Na35  1  0.00590961  0.45624222  0.57583604  1
  Na  Na36  1  0.51101180  0.98925524  0.58595125  1
  Na  Na37  1  0.50696553  0.97935133  0.91811487  1
  Na  Na38  1  0.50624383  0.49852660  0.57037119  1
  Na  Na39  1  0.01152107  0.48334503  0.24367400  1
  Na  Na40  1  0.49956611  0.49477852  0.26665701  1
  Na  Na41  1  0.50641798  0.50217856  0.91628774  1
  Na  Na42  1  0.75835905  0.75336322  -0.00733761  1
  Na  Na43  1  0.75786815  0.25428459  -0.01507026  1
  Na  Na44  1  0.75827959  0.75435341  0.32564022  1
  Na  Na45  1  0.74016591  0.23363537  0.67911252  1
  Na  Na46  1  0.23484396  0.24089139  0.33250485  1
  Na  Na47  1  0.25804153  0.76314499  0.32345763  1
  Na  Na48  1  0.24328827  0.24787503  0.67674540  1
  Na  Na49  1  0.24361692  0.74902250  0.01462966  1
  Na  Na50  1  0.77671483  0.25056386  0.33238394  1
  Na  Na51  1  0.75823709  0.76059535  0.65963708  1
  Na  Na52  1  0.75063618  0.75670487  0.82852117  1
  Na  Na53  1  0.23945824  0.23930414  0.84873152  1
  Na  Na54  1  0.74273095  0.22980177  0.50010847  1
  Na  Na55  1  0.21556096  0.21552594  0.15960995  1
  Na  Na56  1  0.76143944  0.75787712  0.15673758  1
  Na  Na57  1  0.25418583  0.75947974  0.82342400  1
  Na  Na58  1  0.76278688  0.76923455  0.49599692  1
  Na  Na59  1  0.24978725  0.24566252  0.50983227  1
  Na  Na60  1  0.25033940  0.75583588  0.50486777  1
  Na  Na61  1  0.76102532  0.25106043  0.16726889  1
  Fe  Fe62  1  0.96568781  0.80715046  0.78858786  1
  Fe  Fe63  1  0.46811055  0.80129546  0.78631339  1
  Fe  Fe64  1  0.46769334  0.80641814  0.11896630  1
  Fe  Fe65  1  0.46487159  0.30853340  0.78361260  1
  Fe  Fe66  1  0.96528020  0.30892359  0.78850127  1
  Fe  Fe67  1  0.46407202  0.80792206  0.45212087  1
  Fe  Fe68  1  0.96255453  0.81574026  0.46035375  1
  Fe  Fe69  1  0.46210392  0.30935142  0.11849350  1
  Fe  Fe70  1  0.45846649  0.30830723  0.44891330  1
  Fe  Fe71  1  0.96752727  0.29970415  0.11922789  1
  Fe  Fe72  1  0.19080894  0.53869904  0.71320460  1
  Fe  Fe73  1  0.19092938  0.03264427  0.37640401  1
  Fe  Fe74  1  0.69961167  0.03147808  0.71354269  1
  Fe  Fe75  1  0.69353655  0.53389349  0.71697611  1
  Fe  Fe76  1  0.69017664  0.03647770  0.04760331  1
  Fe  Fe77  1  0.69238113  0.53256018  0.04888656  1
  Fe  Fe78  1  0.19374990  0.53395032  0.04679204  1
  Fe  Fe79  1  0.19215391  0.53673072  0.38047316  1
  Fe  Fe80  1  0.69332310  0.53789284  0.38489408  1
  Fe  Fe81  1  0.19668929  0.02851242  0.70438788  1
  Fe  Fe82  1  0.53797927  0.69307518  0.21628177  1
  Fe  Fe83  1  0.03455295  0.69377542  0.88524611  1
  Fe  Fe84  1  0.53557606  0.68959710  0.54551724  1
  Fe  Fe85  1  0.53025757  0.19650052  0.55010214  1
  Fe  Fe86  1  0.53653049  0.19559135  0.21926952  1
  Fe  Fe87  1  0.03761422  0.18978184  0.88067126  1
  Fe  Fe88  1  0.03704341  0.69313083  0.55035708  1
  Fe  Fe89  1  0.03045984  0.70389158  0.21302096  1
  Fe  Fe90  1  0.53338550  0.19063998  0.88022883  1
  Fe  Fe91  1  0.03194213  0.19773644  0.53792562  1
  Fe  Fe92  1  0.29940362  0.97103968  0.95817754  1
  Fe  Fe93  1  0.30670227  0.96006489  0.28260349  1
  Fe  Fe94  1  0.80418228  0.97016578  0.29365856  1
  Fe  Fe95  1  0.80766596  0.46601008  0.28641214  1
  Fe  Fe96  1  0.81451272  0.96512979  0.96361784  1
  Fe  Fe97  1  0.30662535  0.46760143  0.28283913  1
  Fe  Fe98  1  0.80688405  0.45824770  0.94829477  1
  Fe  Fe99  1  0.30659685  0.46453069  0.94922691  1
  Fe  Fe100  1  0.80598382  0.46114449  0.61648332  1
  Fe  Fe101  1  0.30802166  0.46845911  0.61857148  1
  S  S102  1  0.36222432  0.14343069  0.08610423  1
  S  S103  1  0.35707271  0.14086957  0.41780389  1
  S  S104  1  0.35867642  0.14626374  0.75337457  1
  S  S105  1  0.36330703  0.63723227  0.08228893  1
  S  S106  1  0.35916447  0.64004560  0.41524338  1
  S  S107  1  0.35666360  0.64193662  0.74926273  1
  S  S108  1  0.85276991  0.14188290  0.08240839  1
  S  S109  1  0.86732424  0.14024172  0.41405027  1
  S  S110  1  0.86251663  0.14249563  0.74662101  1
  S  S111  1  0.86029174  0.63360739  0.08217838  1
  S  S112  1  0.85990022  0.64141222  0.41871180  1
  S  S113  1  0.85891004  0.63771894  0.75091412  1
  S  S114  1  0.14216653  0.36330755  0.24592695  1
  S  S115  1  0.14397413  0.36328566  0.58682034  1
  S  S116  1  0.14018157  0.36018016  0.91443801  1
  S  S117  1  0.14342995  0.86003216  0.25711230  1
  S  S118  1  0.14009780  0.85645616  0.58145467  1
  S  S119  1  0.14159100  0.85412123  0.91728021  1
  S  S120  1  0.63716745  0.36189587  0.25122779  1
  S  S121  1  0.63837598  0.36035614  0.58215321  1
  S  S122  1  0.63731988  0.35921097  0.91670898  1
  S  S123  1  0.64242133  0.85595879  0.24739228  1
  S  S124  1  0.63956387  0.85785175  0.58337968  1
  S  S125  1  0.64115762  0.86097089  0.91720369  1
  S  S126  1  0.06210323  0.17010720  0.03766281  1
  S  S127  1  0.08090870  0.17816077  0.38139486  1
  S  S128  1  0.07216135  0.17611190  0.70682031  1
  S  S129  1  0.07100682  0.66537207  0.04178824  1
  S  S130  1  0.06604129  0.66774933  0.37513604  1
  S  S131  1  0.06142203  0.66240608  0.70807882  1
  S  S132  1  0.56647077  0.17148118  0.04353278  1
  S  S133  1  0.55670312  0.17180543  0.37805611  1
  S  S134  1  0.56488176  0.17126631  0.71084260  1
  S  S135  1  0.56521463  0.66307596  0.04325384  1
  S  S136  1  0.56867694  0.67159619  0.37708723  1
  S  S137  1  0.56518416  0.66536697  0.70588501  1
  S  S138  1  0.33543773  0.43649551  0.12503894  1
  S  S139  1  0.32741081  0.43454506  0.45622952  1
  S  S140  1  0.33356290  0.43804643  0.79120383  1
  S  S141  1  0.34635058  0.93364173  0.13117674  1
  S  S142  1  0.33513304  0.93736277  0.45933156  1
  S  S143  1  0.33005406  0.93351601  0.79547706  1
  S  S144  1  0.82637119  0.42936599  0.12084744  1
  S  S145  1  0.82972993  0.43748885  0.45607003  1
  S  S146  1  0.82983521  0.43251187  0.78865355  1
  S  S147  1  0.82132921  0.92859612  0.12266057  1
  S  S148  1  0.82419576  0.93050453  0.45492544  1
  S  S149  1  0.82919735  0.93122774  0.79509613  1
  S  S150  1  0.42892635  0.33136425  0.28886664  1
  S  S151  1  0.43582740  0.33837006  0.62716253  1
  S  S152  1  0.43465246  0.33515422  0.95759234  1
  S  S153  1  0.43734501  0.82847424  0.29221756  1
  S  S154  1  0.43945553  0.82872499  0.62268836  1
  S  S155  1  0.43122000  0.83475911  0.95713597  1
  S  S156  1  0.93469591  0.34910458  0.29279510  1
  S  S157  1  0.93371428  0.32796463  0.62439937  1
  S  S158  1  0.93323355  0.32773795  0.95755030  1
  S  S159  1  0.92321388  0.82529110  0.29028873  1
  S  S160  1  0.93274939  0.82597109  0.62556574  1
  S  S161  1  0.93318433  0.82546766  0.95680449  1
  S  S162  1  0.16988779  0.05949730  0.21302085  1
  S  S163  1  0.17446281  0.07879752  0.54487174  1
  S  S164  1  0.16934195  0.06350335  0.86703122  1
  S  S165  1  0.16755097  0.56944441  0.20850222  1
  S  S166  1  0.16956638  0.56683464  0.54054982  1
  S  S167  1  0.17434973  0.56991961  0.87783438  1
  S  S168  1  0.66872862  0.06800841  0.20880393  1
  S  S169  1  0.65353753  0.06685746  0.54169436  1
  S  S170  1  0.66170642  0.06573052  0.87174646  1
  S  S171  1  0.66760629  0.56316434  0.21000223  1
  S  S172  1  0.66977938  0.56545983  0.54420569  1
  S  S173  1  0.66994709  0.56092318  0.87764619  1
  O  O174  1  0.37572270  0.21992690  0.07425809  1
  O  O175  1  0.36112039  0.21968768  0.40797507  1
  O  O176  1  0.36852543  0.22717400  0.74766083  1
  O  O177  1  0.37340162  0.71475959  0.07181252  1
  O  O178  1  0.36844082  0.71965946  0.40797017  1
  O  O179  1  0.36794540  0.72125816  0.74354778  1
  O  O180  1  0.86184657  0.22066904  0.07235676  1
  O  O181  1  0.88280144  0.21326427  0.40173208  1
  O  O182  1  0.87019817  0.22592641  0.74706782  1
  O  O183  1  0.86246120  0.70793290  0.06760566  1
  O  O184  1  0.86899914  0.72221991  0.41529895  1
  O  O185  1  0.86707669  0.71675021  0.74320562  1
  O  O186  1  0.28858075  0.13637044  0.09990507  1
  O  O187  1  0.27705885  0.12808597  0.42387878  1
  O  O188  1  0.27761413  0.13616476  0.75597445  1
  O  O189  1  0.28489427  0.62805431  0.08995927  1
  O  O190  1  0.28068327  0.63188676  0.42513289  1
  O  O191  1  0.27493812  0.63289436  0.75249814  1
  O  O192  1  0.76906934  0.13329213  0.08204885  1
  O  O193  1  0.79379003  0.13340504  0.43006290  1
  O  O194  1  0.78310172  0.12998262  0.75269839  1
  O  O195  1  0.78359152  0.62082546  0.09550270  1
  O  O196  1  0.78267675  0.63349978  0.43145273  1
  O  O197  1  0.78027404  0.62946975  0.76059449  1
  O  O198  1  0.13714626  0.28473175  0.25115418  1
  O  O199  1  0.13152567  0.28434182  0.59554363  1
  O  O200  1  0.13150921  0.27848676  0.91487851  1
  O  O201  1  0.12873885  0.78375550  0.27002753  1
  O  O202  1  0.12959227  0.77845314  0.59251935  1
  O  O203  1  0.13451683  0.77145306  0.91893009  1
  O  O204  1  0.63071700  0.28512733  0.26459062  1
  O  O205  1  0.62833907  0.28140674  0.58970468  1
  O  O206  1  0.62663577  0.28217923  0.92796961  1
  O  O207  1  0.63637937  0.77473308  0.25230497  1
  O  O208  1  0.62845980  0.77894251  0.59310282  1
  O  O209  1  0.63550726  0.78627670  0.93036799  1
  O  O210  1  0.21892364  0.37801159  0.23389944  1
  O  O211  1  0.22612999  0.36983108  0.58473727  1
  O  O212  1  0.21776900  0.37138426  0.90268361  1
  O  O213  1  0.22633690  0.86272852  0.25622751  1
  O  O214  1  0.21537383  0.86748833  0.57114054  1
  O  O215  1  0.22240473  0.86746886  0.91417452  1
  O  O216  1  0.71524580  0.37125478  0.24184748  1
  O  O217  1  0.71588873  0.36675264  0.57000790  1
  O  O218  1  0.71584973  0.36578496  0.90845769  1
  O  O219  1  0.72313914  0.86864383  0.24242962  1
  O  O220  1  0.71579230  0.86532936  0.57370509  1
  O  O221  1  0.72114404  0.87519344  0.91129466  1
  O  O222  1  0.42707572  0.13301283  0.15122783  1
  O  O223  1  0.41396518  0.13929407  0.48972595  1
  O  O224  1  0.41409014  0.14080341  0.82542442  1
  O  O225  1  0.42284099  0.62999826  0.15118778  1
  O  O226  1  0.41866913  0.63021747  0.48170489  1
  O  O227  1  0.41245226  0.62954363  0.81514593  1
  O  O228  1  0.90632434  0.13692722  0.15148902  1
  O  O229  1  0.93189849  0.13151825  0.48186308  1
  O  O230  1  0.92156480  0.13214571  0.81424404  1
  O  O231  1  0.92244789  0.63027799  0.15108551  1
  O  O232  1  0.92150433  0.62716163  0.48196651  1
  O  O233  1  0.91875479  0.62740687  0.81767301  1
  O  O234  1  0.36734205  0.08184567  0.01707978  1
  O  O235  1  0.37150511  0.08147283  0.35386392  1
  O  O236  1  0.37304728  0.08880339  0.68977410  1
  O  O237  1  0.37336849  0.57616052  0.01573346  1
  O  O238  1  0.36423614  0.58235358  0.34498560  1
  O  O239  1  0.36504202  0.58394681  0.67919932  1
  O  O240  1  0.86071754  0.08243644  0.01353674  1
  O  O241  1  0.86974653  0.07276974  0.34625834  1
  O  O242  1  0.87321969  0.09004053  0.67821863  1
  O  O243  1  0.87071774  0.56976581  0.01726448  1
  O  O244  1  0.86170810  0.58576151  0.34636760  1
  O  O245  1  0.86563503  0.57856986  0.68208785  1
  O  O246  1  0.07954297  0.37453009  0.18101041  1
  O  O247  1  0.08863214  0.37428749  0.52039144  1
  O  O248  1  0.07890871  0.37361540  0.85040168  1
  O  O249  1  0.08865219  0.86809685  0.19039594  1
  O  O250  1  0.07751901  0.86068465  0.51271042  1
  O  O251  1  0.08500319  0.86056988  0.84640044  1
  O  O252  1  0.57739507  0.36557502  0.18130090  1
  O  O253  1  0.57731032  0.37201499  0.51685998  1
  O  O254  1  0.57862183  0.36740307  0.84827086  1
  O  O255  1  0.58577632  0.86152758  0.17620815  1
  O  O256  1  0.57707743  0.86662329  0.51673978  1
  O  O257  1  0.58327222  0.86377314  0.84531970  1
  O  O258  1  0.13584228  0.42195355  0.31622541  1
  O  O259  1  0.13556054  0.42213713  0.65614316  1
  O  O260  1  0.13838580  0.41510913  0.98697987  1
  O  O261  1  0.13836847  0.92197259  0.32772995  1
  O  O262  1  0.13080879  0.91683000  0.64851967  1
  O  O263  1  0.12817536  0.90810119  0.98324818  1
  O  O264  1  0.62622726  0.42362537  0.31653164  1
  O  O265  1  0.63449661  0.41896314  0.65241390  1
  O  O266  1  0.62796670  0.42056362  0.98346024  1
  O  O267  1  0.62900450  0.91210071  0.31217362  1
  O  O268  1  0.63160156  0.91753379  0.65180430  1
  O  O269  1  0.62605435  0.92433810  0.98002408  1
  O  O270  1  0.02292598  0.20237936  0.09506985  1
  O  O271  1  0.05323661  0.20314888  0.44847924  1
  O  O272  1  0.03000747  0.20215306  0.76392238  1
  O  O273  1  0.03731708  0.68740536  0.10344796  1
  O  O274  1  0.02881167  0.69397820  0.43540435  1
  O  O275  1  0.02420154  0.69218374  0.76840348  1
  O  O276  1  0.53439783  0.20240492  0.10724216  1
  O  O277  1  0.52145230  0.20903075  0.43992875  1
  O  O278  1  0.53027241  0.20259595  0.77401060  1
  O  O279  1  0.53379244  0.69800323  0.10809209  1
  O  O280  1  0.53089096  0.70105492  0.43681027  1
  O  O281  1  0.52919393  0.69427992  0.76543470  1
  O  O282  1  0.30306239  0.46878919  0.06118420  1
  O  O283  1  0.29928952  0.47052279  0.39497147  1
  O  O284  1  0.30430641  0.47486736  0.73074398  1
  O  O285  1  0.32045485  0.96830056  0.07044269  1
  O  O286  1  0.30096169  0.97238144  0.39648063  1
  O  O287  1  0.30420080  0.97268919  0.73749336  1
  O  O288  1  0.79282023  0.46106596  0.05686941  1
  O  O289  1  0.79248028  0.47317638  0.39459400  1
  O  O290  1  0.79876488  0.46929333  0.72719732  1
  O  O291  1  0.78934696  0.97167158  0.06542388  1
  O  O292  1  0.80181618  0.96106117  0.38896184  1
  O  O293  1  0.80127986  0.96857809  0.73643485  1
  O  O294  1  0.46746025  0.30056987  0.22922640  1
  O  O295  1  0.46765176  0.30457659  0.56319149  1
  O  O296  1  0.47077712  0.30417106  0.89702286  1
  O  O297  1  0.47277566  0.79858983  0.22989810  1
  O  O298  1  0.47194135  0.79011042  0.55919007  1
  O  O299  1  0.46771195  0.81617678  0.89725483  1
  O  O300  1  0.96056648  0.31926415  0.22619372  1
  O  O301  1  0.97295823  0.29987024  0.56611484  1
  O  O302  1  0.97215978  0.29955935  0.89812301  1
  O  O303  1  0.96117177  0.79878474  0.23203260  1
  O  O304  1  0.96891115  0.79128803  0.56427749  1
  O  O305  1  0.96792635  0.79455566  0.89205373  1
  O  O306  1  0.20952872  0.02588455  0.28033349  1
  O  O307  1  0.19412146  0.03925599  0.60188553  1
  O  O308  1  0.19404472  0.02503593  0.92552473  1
  O  O309  1  0.19898527  0.53564227  0.27158015  1
  O  O310  1  0.20042393  0.53002725  0.60149943  1
  O  O311  1  0.20270976  0.53144178  0.93775262  1
  O  O312  1  0.70203534  0.02982882  0.26698721  1
  O  O313  1  0.67971518  0.03758668  0.60653305  1
  O  O314  1  0.69049347  0.03112757  0.93336481  1
  O  O315  1  0.70069676  0.53075259  0.27350206  1
  O  O316  1  0.70025055  0.52888430  0.60523329  1
  O  O317  1  0.70772258  0.52635598  0.93947609  1
  O  O318  1  0.08619169  0.09411265  0.04053113  1
  O  O319  1  0.10289899  0.09581582  0.37279650  1
  O  O320  1  0.08951842  0.09476281  0.70033178  1
  O  O321  1  0.09087712  0.58234738  0.03157539  1
  O  O322  1  0.08082787  0.58321699  0.36598088  1
  O  O323  1  0.07688840  0.57908951  0.70278810  1
  O  O324  1  0.57888837  0.08760863  0.03476559  1
  O  O325  1  0.56393757  0.08995653  0.37368016  1
  O  O326  1  0.58147504  0.08971302  0.70491589  1
  O  O327  1  0.58412426  0.58124081  0.04457462  1
  O  O328  1  0.58803677  0.59043575  0.37383330  1
  O  O329  1  0.58318104  0.58233042  0.70156809  1
  O  O330  1  0.41988182  0.42389510  0.13148429  1
  O  O331  1  0.40899728  0.41476678  0.46211646  1
  O  O332  1  0.41571185  0.41991274  0.79625300  1
  O  O333  1  0.43260041  0.92132117  0.14347489  1
  O  O334  1  0.41572199  0.91622477  0.45572380  1
  O  O335  1  0.41207460  0.91264363  0.79775111  1
  O  O336  1  0.90809785  0.41396256  0.12548375  1
  O  O337  1  0.91184950  0.43147292  0.46094577  1
  O  O338  1  0.91101942  0.41579907  0.79112138  1
  O  O339  1  0.90019304  0.91427165  0.12605691  1
  O  O340  1  0.90641825  0.91198492  0.46859055  1
  O  O341  1  0.91124480  0.91232189  0.80221698  1
  O  O342  1  0.41140170  0.41247563  0.29003058  1
  O  O343  1  0.42103335  0.42106563  0.63119961  1
  O  O344  1  0.41932303  0.41841050  0.96219122  1
  O  O345  1  0.41844072  0.90991687  0.29714902  1
  O  O346  1  0.43624263  0.91139662  0.62763873  1
  O  O347  1  0.41506712  0.91878775  0.97386285  1
  O  O348  1  0.91851183  0.43483696  0.29907702  1
  O  O349  1  0.91506626  0.41050353  0.62688981  1
  O  O350  1  0.91353098  0.40923007  0.96136055  1
  O  O351  1  0.89400440  0.90233739  0.28977328  1
  O  O352  1  0.91731777  0.90526342  0.62925325  1
  O  O353  1  0.91552803  0.90688952  0.95887125  1
  O  O354  1  0.09264502  0.07623166  0.21580563  1
  O  O355  1  0.09480994  0.10350655  0.53444846  1
  O  O356  1  0.08666442  0.08253846  0.85731231  1
  O  O357  1  0.08441648  0.58310393  0.20114512  1
  O  O358  1  0.08795315  0.58442529  0.53817982  1
  O  O359  1  0.09267498  0.58797158  0.87078428  1
  O  O360  1  0.58700190  0.08540733  0.21115519  1
  O  O361  1  0.57036449  0.08906821  0.53654166  1
  O  O362  1  0.57682301  0.07877307  0.86324153  1
  O  O363  1  0.58553960  0.58007444  0.20720091  1
  O  O364  1  0.58852473  0.58319444  0.54089144  1
  O  O365  1  0.58835941  0.56912507  0.87477428  1
  O  O366  1  0.12953745  0.22609448  0.04990167  1
  O  O367  1  0.15297941  0.23143247  0.39977863  1
  O  O368  1  0.14444842  0.23075277  0.73118980  1
  O  O369  1  0.13941776  0.71875563  0.05478877  1
  O  O370  1  0.13956895  0.71719063  0.39412240  1
  O  O371  1  0.13338424  0.71250572  0.72464754  1
  O  O372  1  0.63889797  0.22050447  0.05778717  1
  O  O373  1  0.63184171  0.21837249  0.39503454  1
  O  O374  1  0.63470533  0.22336107  0.72459956  1
  O  O375  1  0.63726488  0.71145305  0.05501861  1
  O  O376  1  0.63879476  0.72375316  0.39147083  1
  O  O377  1  0.63699915  0.71512049  0.71895664  1
  O  O378  1  0.28899475  0.36505792  0.11404977  1
  O  O379  1  0.27484778  0.36484036  0.44216891  1
  O  O380  1  0.28144840  0.36758853  0.77610086  1
  O  O381  1  0.29996475  0.85975610  0.11570377  1
  O  O382  1  0.28423294  0.86541506  0.44401298  1
  O  O383  1  0.27698184  0.86402128  0.78044274  1
  O  O384  1  0.77576445  0.35774988  0.10760095  1
  O  O385  1  0.78336710  0.36240344  0.43909875  1
  O  O386  1  0.77811367  0.36185332  0.77289286  1
  O  O387  1  0.76565729  0.85696179  0.09992804  1
  O  O388  1  0.77141250  0.85634744  0.43236799  1
  O  O389  1  0.77674373  0.85809867  0.77656393  1
  O  O390  1  0.35799945  0.28015060  0.27398562  1
  O  O391  1  0.36440491  0.28963339  0.61601116  1
  O  O392  1  0.36270309  0.28631960  0.94323975  1
  O  O393  1  0.36823900  0.77571115  0.27838966  1
  O  O394  1  0.36365097  0.78512723  0.60690613  1
  O  O395  1  0.35940218  0.78161728  0.93669764  1
  O  O396  1  0.86050314  0.30489796  0.28215734  1
  O  O397  1  0.86250279  0.27680256  0.60873863  1
  O  O398  1  0.86286031  0.27503246  0.94057152  1
  O  O399  1  0.85511393  0.76680982  0.27380454  1
  O  O400  1  0.86091931  0.77279629  0.60875412  1
  O  O401  1  0.85902304  0.77409865  0.93564051  1
  O  O402  1  0.22387605  0.13173866  0.23129057  1
  O  O403  1  0.23258672  0.14806924  0.56612467  1
  O  O404  1  0.22283078  0.13451072  0.88601281  1
  O  O405  1  0.21759068  0.64101653  0.22323718  1
  O  O406  1  0.22072831  0.63633657  0.55315298  1
  O  O407  1  0.22811032  0.64034683  0.89612961  1
  O  O408  1  0.71589238  0.14046024  0.22086338  1
  O  O409  1  0.70570943  0.13779607  0.55529211  1
  O  O410  1  0.70964837  0.13901045  0.88724037  1
  O  O411  1  0.71741156  0.63371185  0.22132529  1
  O  O412  1  0.72129169  0.63671081  0.55973125  1
  O  O413  1  0.71663058  0.63475791  0.89125050  1
  O  O414  1  0.49369457  0.33900102  0.03119354  1
  O  O415  1  0.48825350  0.33679274  0.36261154  1
  O  O416  1  0.49712058  0.34020189  0.69841163  1
  O  O417  1  0.48973910  0.82713782  0.02687347  1
  O  O418  1  0.49885930  0.83232427  0.36432790  1
  O  O419  1  0.49543632  0.82362619  0.69477989  1
  O  O420  1  0.99212516  0.33314031  0.03117385  1
  O  O421  1  0.99684390  0.35445255  0.36211363  1
  O  O422  1  0.99177561  0.33639176  0.69991063  1
  O  O423  1  0.99059317  0.82413614  0.02538822  1
  O  O424  1  0.98105913  0.83347388  0.36517608  1
  O  O425  1  0.99131308  0.82400554  0.69793659  1
  O  O426  1  0.17390636  -0.00016466  0.14588261  1
  O  O427  1  0.17720668  0.02062619  0.47230634  1
  O  O428  1  0.16820864  0.00619169  0.79295262  1
  O  O429  1  0.16854203  0.50843539  0.13741522  1
  O  O430  1  0.16288260  0.50576416  0.46694812  1
  O  O431  1  0.17302479  0.51068801  0.80530631  1
  O  O432  1  0.65707713  0.00990883  0.13261300  1
  O  O433  1  0.64524504  0.00564153  0.47097891  1
  O  O434  1  0.66367442  0.00749647  0.79994770  1
  O  O435  1  0.66267958  0.50134715  0.13799232  1
  O  O436  1  0.66641160  0.50627721  0.47132349  1
  O  O437  1  0.67048925  0.50313896  0.80436752  1
  O  O438  1  0.02048630  0.18075448  0.31519615  1
  O  O439  1  0.01851465  0.17902486  0.63304942  1
  O  O440  1  0.00319331  0.16106576  0.96074857  1
  O  O441  1  0.00885860  0.66874357  0.30273326  1
  O  O442  1  0.00373996  0.66006697  0.63461504  1
  O  O443  1  0.00856416  0.66212756  0.96962578  1
  O  O444  1  0.50053346  0.17537228  0.30565743  1
  O  O445  1  0.50235465  0.17168731  0.64065573  1
  O  O446  1  0.50606186  0.17293824  0.97270491  1
  O  O447  1  0.50862031  0.66529989  0.30317213  1
  O  O448  1  0.50593981  0.65831593  0.63096442  1
  O  O449  1  0.50361187  0.65424765  0.97265351  1
  O  O450  1  0.33840261  0.49940612  0.19647264  1
  O  O451  1  0.33209316  0.49572090  0.52901938  1
  O  O452  1  0.33759963  0.49729115  0.86465267  1
  O  O453  1  0.34398145  0.99208256  0.20311295  1
  O  O454  1  0.34549887  0.99635175  0.53152137  1
  O  O455  1  0.33835114  0.99176550  0.87131925  1
  O  O456  1  0.82639024  0.49100633  0.19135410  1
  O  O457  1  0.82637894  0.49357947  0.52900987  1
  O  O458  1  0.83283547  0.49171026  0.86138002  1
  O  O459  1  0.81765424  0.98301766  0.19684501  1
  O  O460  1  0.81518671  0.98851056  0.52009397  1
  O  O461  1  0.82951806  0.98788123  0.86869602  1
