# generated using pymatgen
data_Na31Fe20(SO4)36
_symmetry_space_group_name_H-M   'P 1'
_cell_length_a   18.06707396
_cell_length_b   18.07028630
_cell_length_c   19.68431647
_cell_angle_alpha   107.64771335
_cell_angle_beta   107.57044159
_cell_angle_gamma   90.69818606
_symmetry_Int_Tables_number   1
_chemical_formula_structural   Na31Fe20(SO4)36
_chemical_formula_sum   'Na62 Fe40 S72 O288'
_cell_volume   5800.17053539
_cell_formula_units_Z   2
loop_
 _symmetry_equiv_pos_site_id
 _symmetry_equiv_pos_as_xyz
  1  'x, y, z'
loop_
 _atom_site_type_symbol
 _atom_site_label
 _atom_site_symmetry_multiplicity
 _atom_site_fract_x
 _atom_site_fract_y
 _atom_site_fract_z
 _atom_site_occupancy
  Na  Na0  1  0.13562327  0.35865774  0.08280413  1
  Na  Na1  1  0.12905289  0.36247865  0.41580081  1
  Na  Na2  1  0.13292703  0.36730906  0.75460178  1
  Na  Na3  1  0.14369261  0.86615739  0.08065516  1
  Na  Na4  1  0.14981771  0.88206923  0.44276713  1
  Na  Na5  1  0.15932236  0.87779161  0.75922865  1
  Na  Na6  1  0.63170237  0.36491653  0.08509093  1
  Na  Na7  1  0.63007945  0.36078449  0.40855439  1
  Na  Na8  1  0.63328846  0.36754610  0.74707343  1
  Na  Na9  1  0.63377437  0.87064515  0.09074375  1
  Na  Na10  1  0.64479891  0.83284644  0.39912856  1
  Na  Na11  1  0.62922198  0.86556723  0.74464049  1
  Na  Na12  1  0.37240243  0.11999368  0.23575379  1
  Na  Na13  1  0.36181733  0.13206376  0.57780281  1
  Na  Na14  1  0.34091656  0.12760247  0.89685895  1
  Na  Na15  1  0.36439792  0.63284315  0.24648016  1
  Na  Na16  1  0.36273951  0.62968692  0.58326534  1
  Na  Na17  1  0.36916352  0.63036747  0.91488653  1
  Na  Na18  1  0.86783573  0.14929323  0.26328531  1
  Na  Na19  1  0.87424552  0.14284251  0.59057064  1
  Na  Na20  1  0.86695546  0.13055985  0.91330406  1
  Na  Na21  1  0.85643991  0.64471092  0.25901899  1
  Na  Na22  1  0.85991024  0.63653993  0.57525625  1
  Na  Na23  1  0.86824574  0.63460374  0.91863824  1
  Na  Na24  1  1.02084926  -0.00665043  0.07135981  1
  Na  Na25  1  0.49397873  0.53555214  0.08469803  1
  Na  Na26  1  0.46565502  0.01301675  0.10554165  1
  Na  Na27  1  0.98818181  0.50684684  0.41661822  1
  Na  Na28  1  0.51622209  -0.01008010  0.41181073  1
  Na  Na29  1  1.03855700  -0.01045677  0.69597731  1
  Na  Na30  1  0.98636927  0.00890863  0.43517645  1
  Na  Na31  1  0.99271324  0.50317176  0.74680472  1
  Na  Na32  1  0.98867267  0.51274385  0.08099054  1
  Na  Na33  1  0.00720858  0.99419931  0.25229230  1
  Na  Na34  1  0.00759915  0.46249011  0.56965904  1
  Na  Na35  1  0.50910491  0.48984202  0.58409531  1
  Na  Na36  1  0.46183414  1.01409693  0.93754717  1
  Na  Na37  1  0.04227231  0.99618931  0.91105019  1
  Na  Na38  1  0.01070951  0.46384553  0.90698395  1
  Na  Na39  1  0.00894296  0.49136053  0.24970447  1
  Na  Na40  1  0.43507822  1.00399238  0.68183264  1
  Na  Na41  1  0.50522926  0.49378020  0.25718243  1
  Na  Na42  1  0.73673314  0.24093971  0.34918151  1
  Na  Na43  1  0.23107254  0.21637071  0.00125007  1
  Na  Na44  1  0.23759857  0.23403635  0.67385523  1
  Na  Na45  1  0.74611212  0.24857243  0.00024226  1
  Na  Na46  1  0.24913211  0.24437675  0.33215269  1
  Na  Na47  1  0.74339851  0.74423689  0.01104306  1
  Na  Na48  1  0.75783488  0.75555260  0.65683596  1
  Na  Na49  1  0.25252220  0.75387815  0.34003989  1
  Na  Na50  1  0.26650493  0.76861037  -0.01253734  1
  Na  Na51  1  0.76554621  0.26403352  0.64814561  1
  Na  Na52  1  0.24413785  0.75160452  0.52536243  1
  Na  Na53  1  0.75071925  0.75060127  0.83275509  1
  Na  Na54  1  0.26013245  0.75760541  0.16146098  1
  Na  Na55  1  0.72771298  0.74272671  0.18801792  1
  Na  Na56  1  0.76272358  0.25721517  0.82134170  1
  Na  Na57  1  0.27041946  0.77466271  0.82086539  1
  Na  Na58  1  0.24726795  0.23074898  0.16571896  1
  Na  Na59  1  0.24855908  0.24970622  0.50352881  1
  Na  Na60  1  0.73552275  0.24203566  0.17691473  1
  Na  Na61  1  0.23830127  0.24269268  0.83758981  1
  Fe  Fe62  1  0.46868263  0.30333847  0.44973127  1
  Fe  Fe63  1  0.46806943  0.31535020  0.78981779  1
  Fe  Fe64  1  0.47080251  0.79868783  0.12864521  1
  Fe  Fe65  1  0.46751423  0.80647100  0.45805457  1
  Fe  Fe66  1  0.46814245  0.80925661  0.78671449  1
  Fe  Fe67  1  0.46903758  0.29884553  0.12307970  1
  Fe  Fe68  1  0.96127999  0.30976341  0.11624478  1
  Fe  Fe69  1  0.96948672  0.80495766  0.78414801  1
  Fe  Fe70  1  0.96551374  0.80627645  0.11877599  1
  Fe  Fe71  1  0.95921608  0.81229707  0.45587912  1
  Fe  Fe72  1  0.19463166  0.53878474  0.71811031  1
  Fe  Fe73  1  0.19432641  0.53231169  0.05048531  1
  Fe  Fe74  1  0.69190391  0.54171113  0.38369956  1
  Fe  Fe75  1  0.69144225  0.03723745  0.38075711  1
  Fe  Fe76  1  0.19401824  0.53442539  0.38622242  1
  Fe  Fe77  1  0.69410599  0.53601455  0.71518429  1
  Fe  Fe78  1  0.19438391  0.03664005  0.38313546  1
  Fe  Fe79  1  0.68980407  0.03284272  0.04535738  1
  Fe  Fe80  1  0.68953175  0.53258094  0.04717866  1
  Fe  Fe81  1  0.68243111  0.03027624  0.70772661  1
  Fe  Fe82  1  0.03671539  0.69408475  0.55156355  1
  Fe  Fe83  1  0.03421868  0.69509410  0.21851729  1
  Fe  Fe84  1  0.53764427  0.19090562  0.54727441  1
  Fe  Fe85  1  0.02893802  0.21004128  0.54038874  1
  Fe  Fe86  1  0.03634127  0.69105335  0.88278906  1
  Fe  Fe87  1  0.53827443  0.68055986  0.54186249  1
  Fe  Fe88  1  0.03202419  0.19408237  0.21052285  1
  Fe  Fe89  1  0.02331188  0.20042719  0.86279327  1
  Fe  Fe90  1  0.53395002  0.19174673  0.87661569  1
  Fe  Fe91  1  0.53551259  0.69028899  0.87949212  1
  Fe  Fe92  1  0.31017981  0.46383719  0.29027159  1
  Fe  Fe93  1  0.31543182  0.46495580  0.62746036  1
  Fe  Fe94  1  0.31041754  0.45985776  0.95391297  1
  Fe  Fe95  1  0.80602417  0.46678817  0.28369934  1
  Fe  Fe96  1  0.31117638  0.96347955  0.29063337  1
  Fe  Fe97  1  0.80861545  0.96654857  0.95356551  1
  Fe  Fe98  1  0.80730345  0.96329578  0.61653642  1
  Fe  Fe99  1  0.80724533  0.46391132  0.61251658  1
  Fe  Fe100  1  0.80657825  0.96613138  0.28517269  1
  Fe  Fe101  1  0.80552356  0.46679504  0.94928029  1
  S  S102  1  0.36231229  0.14127934  0.07490355  1
  S  S103  1  0.36087167  0.14149325  0.41558136  1
  S  S104  1  0.35979178  0.15450226  0.75247690  1
  S  S105  1  0.35591726  0.63621390  0.08153254  1
  S  S106  1  0.35674988  0.63810183  0.41903511  1
  S  S107  1  0.36092797  0.64122382  0.75296046  1
  S  S108  1  0.85644985  0.14200307  0.08341966  1
  S  S109  1  0.86039407  0.13875103  0.41342535  1
  S  S110  1  0.84774078  0.13751580  0.74599092  1
  S  S111  1  0.85962301  0.64090400  0.08586627  1
  S  S112  1  0.86337657  0.64046845  0.41711251  1
  S  S113  1  0.86208549  0.64038715  0.75033457  1
  S  S114  1  0.13996134  0.36172725  0.24900828  1
  S  S115  1  0.14638556  0.36511672  0.58682741  1
  S  S116  1  0.14284337  0.36059293  0.92116982  1
  S  S117  1  0.13919059  0.85982715  0.25087297  1
  S  S118  1  0.13307481  0.85890558  0.58147965  1
  S  S119  1  0.13908239  0.85525797  0.91746882  1
  S  S120  1  0.64037236  0.36354744  0.25105534  1
  S  S121  1  0.64047135  0.36093278  0.58388339  1
  S  S122  1  0.64362886  0.35742657  0.91348633  1
  S  S123  1  0.64081748  0.86364902  0.25286406  1
  S  S124  1  0.64369945  0.85534862  0.58136161  1
  S  S125  1  0.64650808  0.85517801  0.91738409  1
  S  S126  1  0.05739778  0.17116403  0.03970766  1
  S  S127  1  0.06825418  0.17417102  0.37429169  1
  S  S128  1  0.06247216  0.18349450  0.70335208  1
  S  S129  1  0.06564001  0.66562082  0.04467527  1
  S  S130  1  0.06749352  0.66560943  0.37592504  1
  S  S131  1  0.06658196  0.66501741  0.70954728  1
  S  S132  1  0.57120941  0.17270825  0.04045052  1
  S  S133  1  0.56389728  0.16775294  0.37721423  1
  S  S134  1  0.56779399  0.17277976  0.70994601  1
  S  S135  1  0.56842435  0.66901183  0.04297996  1
  S  S136  1  0.55874541  0.65588337  0.37286332  1
  S  S137  1  0.56817907  0.66807705  0.70876021  1
  S  S138  1  0.32915348  0.42637213  0.12424013  1
  S  S139  1  0.32823841  0.42840107  0.45869883  1
  S  S140  1  0.32739173  0.43201577  0.79047521  1
  S  S141  1  0.33608570  0.92572919  0.12888392  1
  S  S142  1  0.33371517  0.93592990  0.45855198  1
  S  S143  1  0.34660486  0.93366793  0.78712835  1
  S  S144  1  0.83176493  0.43862735  0.12315355  1
  S  S145  1  0.82909786  0.44039058  0.45308129  1
  S  S146  1  0.83245494  0.44025046  0.78938103  1
  S  S147  1  0.83605192  0.93600500  0.12557949  1
  S  S148  1  0.82898814  0.93417104  0.45785061  1
  S  S149  1  0.83242022  0.92804449  0.79221506  1
  S  S150  1  0.42956705  0.33145527  0.29013694  1
  S  S151  1  0.43651789  0.33078465  0.62273825  1
  S  S152  1  0.43550344  0.33045091  0.96079808  1
  S  S153  1  0.42970885  0.82315993  0.29347871  1
  S  S154  1  0.43523122  0.81551090  0.61459140  1
  S  S155  1  0.44288522  0.82795028  0.96292270  1
  S  S156  1  0.93480688  0.33794413  0.28732651  1
  S  S157  1  0.94053950  0.34146450  0.62519091  1
  S  S158  1  0.93326510  0.33524368  0.95851515  1
  S  S159  1  0.93278436  0.83140819  0.28971712  1
  S  S160  1  0.93063996  0.82746245  0.62508228  1
  S  S161  1  0.93335743  0.82843154  0.95793256  1
  S  S162  1  0.16513682  0.06398932  0.20873811  1
  S  S163  1  0.16350831  0.08218250  0.53908707  1
  S  S164  1  0.15037962  0.07280882  0.86332124  1
  S  S165  1  0.16567113  0.56630846  0.21115931  1
  S  S166  1  0.16733519  0.56499471  0.54329422  1
  S  S167  1  0.16876789  0.56609669  0.87979332  1
  S  S168  1  0.67077980  0.06725479  0.20888008  1
  S  S169  1  0.67190793  0.06634090  0.54391469  1
  S  S170  1  0.67237708  0.06669178  0.87704768  1
  S  S171  1  0.66655947  0.56075011  0.20741204  1
  S  S172  1  0.67086397  0.56204804  0.54437735  1
  S  S173  1  0.67454404  0.56933513  0.87816883  1
  O  O174  1  0.37462719  0.22482915  0.07051005  1
  O  O175  1  0.36960682  0.22123086  0.40849580  1
  O  O176  1  0.37258048  0.23816449  0.75324116  1
  O  O177  1  0.36505779  0.71560984  0.07462741  1
  O  O178  1  0.36733362  0.71863381  0.41554487  1
  O  O179  1  0.37230524  0.72060391  0.74831222  1
  O  O180  1  0.86388823  0.22042879  0.07360111  1
  O  O181  1  0.86384542  0.20809228  0.39098583  1
  O  O182  1  0.84529424  0.21373144  0.73419109  1
  O  O183  1  0.86997508  0.71918880  0.07634941  1
  O  O184  1  0.87490826  0.71666550  0.40511932  1
  O  O185  1  0.87182374  0.71978767  0.74335567  1
  O  O186  1  0.28198245  0.13606511  0.07797141  1
  O  O187  1  0.28126420  0.13402018  0.42341315  1
  O  O188  1  0.28361320  0.14549173  0.76232068  1
  O  O189  1  0.27566245  0.62818975  0.08979300  1
  O  O190  1  0.27862768  0.63023668  0.43092848  1
  O  O191  1  0.28280739  0.63350213  0.76423975  1
  O  O192  1  0.77684593  0.13133871  0.08947416  1
  O  O193  1  0.78398279  0.12589879  0.42425185  1
  O  O194  1  0.77179053  0.11812654  0.75754472  1
  O  O195  1  0.77953312  0.63216366  0.09054028  1
  O  O196  1  0.78636419  0.63273170  0.42735152  1
  O  O197  1  0.78327818  0.63318569  0.75921350  1
  O  O198  1  0.13000046  0.28126159  0.25359845  1
  O  O199  1  0.13147573  0.28360966  0.58983724  1
  O  O200  1  0.12820308  0.28133421  0.92617907  1
  O  O201  1  0.13021076  0.78089607  0.25966464  1
  O  O202  1  0.12731584  0.77518520  0.58305213  1
  O  O203  1  0.12649135  0.77628704  0.92856275  1
  O  O204  1  0.63861845  0.28878911  0.26483647  1
  O  O205  1  0.63131379  0.28399507  0.59559118  1
  O  O206  1  0.63478853  0.27664561  0.91743306  1
  O  O207  1  0.63797797  0.78756335  0.26348106  1
  O  O208  1  0.63532870  0.77741343  0.59131493  1
  O  O209  1  0.63923223  0.77490774  0.92351259  1
  O  O210  1  0.21823388  0.37032968  0.23961028  1
  O  O211  1  0.22831105  0.37004079  0.58427214  1
  O  O212  1  0.22453626  0.36668702  0.91764453  1
  O  O213  1  0.21772338  0.86827410  0.24252332  1
  O  O214  1  0.20672457  0.87312647  0.56851373  1
  O  O215  1  0.21806822  0.86119098  0.91273954  1
  O  O216  1  0.71543204  0.37574259  0.23478224  1
  O  O217  1  0.72074487  0.36956756  0.57979474  1
  O  O218  1  0.72236569  0.36755904  0.90400443  1
  O  O219  1  0.71794123  0.87745613  0.23946149  1
  O  O220  1  0.72415065  0.86749262  0.57836652  1
  O  O221  1  0.72748177  0.86727326  0.91373132  1
  O  O222  1  0.41871510  0.13354289  0.14350765  1
  O  O223  1  0.41911401  0.13360352  0.48376675  1
  O  O224  1  0.42124383  0.14094813  0.81759953  1
  O  O225  1  0.41407641  0.62372143  0.14561342  1
  O  O226  1  0.41677433  0.62231311  0.48156774  1
  O  O227  1  0.42087226  0.62854248  0.81782474  1
  O  O228  1  0.91450482  0.13675981  0.15325700  1
  O  O229  1  0.92236738  0.14406397  0.48691542  1
  O  O230  1  0.90948385  0.13938891  0.81668494  1
  O  O231  1  0.91713320  0.63392310  0.15544078  1
  O  O232  1  0.92417452  0.63202089  0.48495747  1
  O  O233  1  0.92099981  0.63133442  0.81862131  1
  O  O234  1  0.37386469  0.08702689  0.00704356  1
  O  O235  1  0.36757038  0.08300633  0.34709018  1
  O  O236  1  0.36549777  0.10328734  0.68120515  1
  O  O237  1  0.36013979  0.57819377  0.01015422  1
  O  O238  1  0.35534302  0.58225811  0.34524785  1
  O  O239  1  0.36330211  0.58297294  0.68155629  1
  O  O240  1  0.86720880  0.08251081  0.01664328  1
  O  O241  1  0.87759009  0.07026708  0.35562225  1
  O  O242  1  0.86114510  0.07766316  0.68085878  1
  O  O243  1  0.87157920  0.58094741  0.01963934  1
  O  O244  1  0.87265818  0.57847482  0.35011039  1
  O  O245  1  0.87022690  0.58153004  0.68245943  1
  O  O246  1  0.07996777  0.37428967  0.18363873  1
  O  O247  1  0.09194870  0.37772113  0.52064503  1
  O  O248  1  0.08822090  0.37550800  0.85637981  1
  O  O249  1  0.07987262  0.86624813  0.18154218  1
  O  O250  1  0.06878894  0.86542749  0.51332898  1
  O  O251  1  0.08209623  0.85770737  0.84407553  1
  O  O252  1  0.57663163  0.36648920  0.18222722  1
  O  O253  1  0.58317806  0.36765046  0.51404173  1
  O  O254  1  0.58459151  0.36878317  0.84760318  1
  O  O255  1  0.57985259  0.86825679  0.18414881  1
  O  O256  1  0.58655543  0.86147647  0.51171662  1
  O  O257  1  0.59028451  0.86086510  0.84750982  1
  O  O258  1  0.13372249  0.41887084  0.31926164  1
  O  O259  1  0.13819630  0.42142353  0.65656395  1
  O  O260  1  0.13595345  0.41875913  0.99197994  1
  O  O261  1  0.12920632  0.91976504  0.31742314  1
  O  O262  1  0.12330824  0.91099398  0.65007998  1
  O  O263  1  0.12323615  0.91540271  0.97934705  1
  O  O264  1  0.63066685  0.42692894  0.31591663  1
  O  O265  1  0.62785176  0.42228581  0.64921464  1
  O  O266  1  0.63939991  0.41320534  0.98469028  1
  O  O267  1  0.63243010  0.92501775  0.31997942  1
  O  O268  1  0.63275169  0.91498036  0.64886680  1
  O  O269  1  0.63692497  0.91263107  0.98555532  1
  O  O270  1  0.02201517  0.20722495  0.10243278  1
  O  O271  1  0.03535916  0.20489219  0.43644628  1
  O  O272  1  0.02032153  0.21188651  0.75851792  1
  O  O273  1  0.02861290  0.69572151  0.10578079  1
  O  O274  1  0.03263988  0.69427810  0.43678857  1
  O  O275  1  0.02993673  0.69425219  0.77087514  1
  O  O276  1  0.53924849  0.20531346  0.10258755  1
  O  O277  1  0.53402789  0.20341649  0.44487109  1
  O  O278  1  0.53095882  0.20645815  0.77019291  1
  O  O279  1  0.53024061  0.69565228  0.10133284  1
  O  O280  1  0.52963713  0.69531920  0.43906217  1
  O  O281  1  0.53140198  0.69918029  0.76920689  1
  O  O282  1  0.30303657  0.46666142  0.06534621  1
  O  O283  1  0.29870868  0.46589151  0.39812198  1
  O  O284  1  0.29867071  0.47389462  0.73281532  1
  O  O285  1  0.32270322  0.96399606  0.07228683  1
  O  O286  1  0.29899736  0.97044875  0.39385420  1
  O  O287  1  0.34434608  0.95558054  0.72140888  1
  O  O288  1  0.79945421  0.47191564  0.06009663  1
  O  O289  1  0.79030624  0.47411008  0.39061695  1
  O  O290  1  0.79569431  0.47484496  0.72765932  1
  O  O291  1  0.80477764  0.97143187  0.06424109  1
  O  O292  1  0.79517109  0.96789497  0.39530477  1
  O  O293  1  0.80376157  0.96113768  0.72970948  1
  O  O294  1  0.46374475  0.30668502  0.22883641  1
  O  O295  1  0.47294908  0.29939875  0.56166370  1
  O  O296  1  0.47873503  0.30721733  0.90448044  1
  O  O297  1  0.46111037  0.79378767  0.23114648  1
  O  O298  1  0.47941539  0.77992377  0.55925310  1
  O  O299  1  0.48149545  0.79594429  0.90261332  1
  O  O300  1  0.96698531  0.30349674  0.22229585  1
  O  O301  1  0.97184566  0.30865441  0.56025012  1
  O  O302  1  0.96791313  0.30659456  0.89816999  1
  O  O303  1  0.97038101  0.80064648  0.22875805  1
  O  O304  1  0.96239323  0.79380228  0.56121206  1
  O  O305  1  0.96659607  0.79696773  0.89526118  1
  O  O306  1  0.19712843  0.03416004  0.27471373  1
  O  O307  1  0.18288786  0.05275075  0.60115521  1
  O  O308  1  0.16539235  0.05134040  0.93166241  1
  O  O309  1  0.19396766  0.53163569  0.27307526  1
  O  O310  1  0.19869076  0.53111186  0.60568761  1
  O  O311  1  0.19641074  0.52609715  0.93810422  1
  O  O312  1  0.70782456  0.03492975  0.27265069  1
  O  O313  1  0.69940901  0.02717761  0.60335412  1
  O  O314  1  0.69999244  0.02661309  0.93657329  1
  O  O315  1  0.70806548  0.53350259  0.27330452  1
  O  O316  1  0.70593030  0.52835255  0.60746186  1
  O  O317  1  0.70282167  0.53133185  0.93891560  1
  O  O318  1  0.06307761  0.08863396  0.03368776  1
  O  O319  1  0.08370041  0.09093705  0.36432106  1
  O  O320  1  0.07239907  0.10139195  0.68703269  1
  O  O321  1  0.07994031  0.58219389  0.03836952  1
  O  O322  1  0.08262195  0.58153916  0.36859679  1
  O  O323  1  0.08061684  0.58113599  0.70276379  1
  O  O324  1  0.58911417  0.09089744  0.03687327  1
  O  O325  1  0.58767776  0.08946672  0.38181195  1
  O  O326  1  0.58218260  0.09130836  0.70752941  1
  O  O327  1  0.58992033  0.58829781  0.04120466  1
  O  O328  1  0.58396052  0.57827787  0.38078954  1
  O  O329  1  0.58868092  0.58763418  0.70666467  1
  O  O330  1  0.41069342  0.40696146  0.13145890  1
  O  O331  1  0.40913182  0.40906971  0.46420534  1
  O  O332  1  0.40655418  0.41268886  0.79164161  1
  O  O333  1  0.41706270  0.90161277  0.14547494  1
  O  O334  1  0.41131173  0.91105163  0.45431122  1
  O  O335  1  0.42889162  0.91025712  0.81933561  1
  O  O336  1  0.91512722  0.42448810  0.12770080  1
  O  O337  1  0.91059801  0.43299860  0.45471611  1
  O  O338  1  0.91416087  0.43225125  0.79331647  1
  O  O339  1  0.91801066  0.91730324  0.12835229  1
  O  O340  1  0.91057769  0.91845958  0.45772335  1
  O  O341  1  0.91470705  0.91000943  0.80161024  1
  O  O342  1  0.41339998  0.41501674  0.30126531  1
  O  O343  1  0.41957769  0.41239541  0.62498552  1
  O  O344  1  0.41926370  0.41387359  0.97183169  1
  O  O345  1  0.41439864  0.90681283  0.30542752  1
  O  O346  1  0.41202777  0.88716128  0.60021695  1
  O  O347  1  0.43470586  0.91080713  0.97426818  1
  O  O348  1  0.91574549  0.41965547  0.28639750  1
  O  O349  1  0.91222959  0.41902420  0.61729486  1
  O  O350  1  0.91614074  0.41854064  0.96324493  1
  O  O351  1  0.91932832  0.91468464  0.29550181  1
  O  O352  1  0.91205017  0.90814621  0.62739990  1
  O  O353  1  0.91596717  0.91043932  0.96418049  1
  O  O354  1  0.08357819  0.08594044  0.20652035  1
  O  O355  1  0.08177650  0.10924385  0.52364535  1
  O  O356  1  0.06693771  0.09599441  0.84374524  1
  O  O357  1  0.08187094  0.58198812  0.20324250  1
  O  O358  1  0.08460944  0.58108121  0.53800112  1
  O  O359  1  0.08524073  0.58113983  0.87322311  1
  O  O360  1  0.58932201  0.07568935  0.20101946  1
  O  O361  1  0.59066274  0.08585682  0.53929742  1
  O  O362  1  0.59385791  0.08982634  0.87464473  1
  O  O363  1  0.58464739  0.56570499  0.20398657  1
  O  O364  1  0.58967871  0.57687960  0.54519119  1
  O  O365  1  0.59624571  0.59206041  0.87542708  1
  O  O366  1  0.13414677  0.21791658  0.06191189  1
  O  O367  1  0.14108253  0.22384865  0.38890598  1
  O  O368  1  0.13793681  0.23400116  0.72828495  1
  O  O369  1  0.13782964  0.71565410  0.06195312  1
  O  O370  1  0.13968101  0.71458442  0.38976780  1
  O  O371  1  0.13880012  0.71402378  0.72593032  1
  O  O372  1  0.64338528  0.22320348  0.05318145  1
  O  O373  1  0.63246916  0.22018980  0.38822529  1
  O  O374  1  0.64020068  0.22306306  0.72576611  1
  O  O375  1  0.63991027  0.72253358  0.06041539  1
  O  O376  1  0.62563047  0.70432929  0.37667741  1
  O  O377  1  0.63851014  0.72095479  0.72345700  1
  O  O378  1  0.27434982  0.35659092  0.10547916  1
  O  O379  1  0.27415630  0.35809361  0.44145523  1
  O  O380  1  0.27168647  0.36310751  0.77239596  1
  O  O381  1  0.27792639  0.85554859  0.10710295  1
  O  O382  1  0.27865332  0.86671536  0.44307277  1
  O  O383  1  0.28836178  0.86565730  0.76848312  1
  O  O384  1  0.78415946  0.36558632  0.10889229  1
  O  O385  1  0.78322515  0.36693513  0.44014396  1
  O  O386  1  0.78488944  0.36600504  0.77337066  1
  O  O387  1  0.78490977  0.86513133  0.11151851  1
  O  O388  1  0.78212474  0.86313399  0.44770439  1
  O  O389  1  0.77984290  0.85700888  0.77768332  1
  O  O390  1  0.35744785  0.28031962  0.27446092  1
  O  O391  1  0.36472296  0.27990979  0.60667597  1
  O  O392  1  0.36313972  0.27800899  0.93669835  1
  O  O393  1  0.35606040  0.77379726  0.27896860  1
  O  O394  1  0.36871160  0.75917314  0.60126892  1
  O  O395  1  0.36698347  0.77824446  0.93813105  1
  O  O396  1  0.86296160  0.28858535  0.27368454  1
  O  O397  1  0.87518071  0.28851244  0.61899783  1
  O  O398  1  0.86134843  0.28588118  0.94586610  1
  O  O399  1  0.85941285  0.78208092  0.27030885  1
  O  O400  1  0.86228662  0.77605305  0.61590094  1
  O  O401  1  0.86292018  0.77697707  0.94530385  1
  O  O402  1  0.21706942  0.13426003  0.22066228  1
  O  O403  1  0.21990688  0.14871159  0.54865507  1
  O  O404  1  0.20644452  0.14174163  0.87729690  1
  O  O405  1  0.21528609  0.63854938  0.22614795  1
  O  O406  1  0.21758606  0.63476012  0.55487275  1
  O  O407  1  0.21982732  0.63807685  0.89857472  1
  O  O408  1  0.71999982  0.14158189  0.22551172  1
  O  O409  1  0.72583337  0.13592463  0.56133141  1
  O  O410  1  0.72931679  0.13528138  0.89588430  1
  O  O411  1  0.71065273  0.63388754  0.21630265  1
  O  O412  1  0.71912313  0.63456867  0.55851207  1
  O  O413  1  0.73111785  0.63823362  0.89560339  1
  O  O414  1  0.49074722  0.32796182  0.03407274  1
  O  O415  1  0.48948550  0.32970037  0.36120583  1
  O  O416  1  0.49476081  0.33421000  0.69579207  1
  O  O417  1  0.49518053  0.81916017  0.03440392  1
  O  O418  1  0.49030469  0.82064996  0.36407477  1
  O  O419  1  0.49135364  0.82962163  0.69245651  1
  O  O420  1  0.99221581  0.34157924  0.03348266  1
  O  O421  1  0.99627934  0.34613919  0.35764884  1
  O  O422  1  1.00403700  0.36348150  0.69693476  1
  O  O423  1  0.99487744  0.83160586  0.03028966  1
  O  O424  1  0.99010581  0.83067230  0.36161958  1
  O  O425  1  0.99474482  0.83360999  0.69634261  1
  O  O426  1  0.15713149  0.00113087  0.13879550  1
  O  O427  1  0.15880432  0.01759789  0.46623114  1
  O  O428  1  0.15150851  0.00754451  0.79759094  1
  O  O429  1  0.16462577  0.50639237  0.13921612  1
  O  O430  1  0.16301635  0.50320805  0.47035176  1
  O  O431  1  0.16701544  0.50947478  0.80581566  1
  O  O432  1  0.67821914  0.00866464  0.13817540  1
  O  O433  1  0.66716121  0.00646269  0.47068698  1
  O  O434  1  0.66870104  0.00747390  0.80399601  1
  O  O435  1  0.66901444  0.49998699  0.13577526  1
  O  O436  1  0.66805022  0.50248520  0.47280996  1
  O  O437  1  0.67125880  0.50956025  0.80558275  1
  O  O438  1  0.00806153  0.17581413  0.30321338  1
  O  O439  1  0.01119047  0.19595100  0.63071918  1
  O  O440  1  0.00436115  0.17816374  0.96836490  1
  O  O441  1  0.00716677  0.66307772  0.30301535  1
  O  O442  1  0.00670255  0.66471139  0.63792495  1
  O  O443  1  0.00692459  0.66543264  0.97250406  1
  O  O444  1  0.49964711  0.15908860  0.30929387  1
  O  O445  1  0.50990174  0.17072673  0.63660693  1
  O  O446  1  0.51133581  0.16703243  0.96703787  1
  O  O447  1  0.49250871  0.63758059  0.30335521  1
  O  O448  1  0.50891155  0.66098044  0.63492676  1
  O  O449  1  0.51190458  0.66233016  0.96782981  1
  O  O450  1  0.33027537  0.48616776  0.19678671  1
  O  O451  1  0.33031228  0.48808001  0.53121056  1
  O  O452  1  0.33095159  0.48940504  0.86474815  1
  O  O453  1  0.33049953  0.98297427  0.20121440  1
  O  O454  1  0.34122487  0.99742711  0.52867292  1
  O  O455  1  0.33888718  0.99904714  0.85014173  1
  O  O456  1  0.83388069  0.49890955  0.19473227  1
  O  O457  1  0.82882901  0.49954690  0.52575421  1
  O  O458  1  0.83084861  0.49707732  0.86289089  1
  O  O459  1  0.84256864  0.99597495  0.19917746  1
  O  O460  1  0.83535049  0.99605120  0.53071456  1
  O  O461  1  0.83273624  0.98904480  0.86393565  1
