# generated using pymatgen
data_Na31Fe20(SO4)36
_symmetry_space_group_name_H-M   'P 1'
_cell_length_a   18.07103855
_cell_length_b   18.07549555
_cell_length_c   19.70958649
_cell_angle_alpha   107.59153050
_cell_angle_beta   107.59816909
_cell_angle_gamma   90.71548171
_symmetry_Int_Tables_number   1
_chemical_formula_structural   Na31Fe20(SO4)36
_chemical_formula_sum   'Na62 Fe40 S72 O288'
_cell_volume   5811.37838039
_cell_formula_units_Z   2
loop_
 _symmetry_equiv_pos_site_id
 _symmetry_equiv_pos_as_xyz
  1  'x, y, z'
loop_
 _atom_site_type_symbol
 _atom_site_label
 _atom_site_symmetry_multiplicity
 _atom_site_fract_x
 _atom_site_fract_y
 _atom_site_fract_z
 _atom_site_occupancy
  Na  Na0  1  0.13450514  0.36936933  0.08795568  1
  Na  Na1  1  0.13591700  0.36749307  0.41822428  1
  Na  Na2  1  0.12676299  0.35996907  0.74338006  1
  Na  Na3  1  0.11006092  0.88595359  0.10655625  1
  Na  Na4  1  0.12483530  0.85449262  0.40095915  1
  Na  Na5  1  0.12229434  0.87311056  0.74608896  1
  Na  Na6  1  0.64040360  0.35447349  0.07180554  1
  Na  Na7  1  0.64314614  0.36819647  0.42111020  1
  Na  Na8  1  0.64911278  0.36708715  0.76060957  1
  Na  Na9  1  0.63712701  0.86000329  0.08137203  1
  Na  Na10  1  0.63841655  0.86208367  0.42243705  1
  Na  Na11  1  0.62699714  0.87922431  0.74688745  1
  Na  Na12  1  0.36787029  0.13054593  0.25599129  1
  Na  Na13  1  0.37586074  0.12718932  0.58964283  1
  Na  Na14  1  0.37701789  0.12626857  0.91574077  1
  Na  Na15  1  0.36332140  0.64149687  0.25220579  1
  Na  Na16  1  0.35826979  0.63578644  0.57391609  1
  Na  Na17  1  0.36639299  0.63573152  0.91769871  1
  Na  Na18  1  0.87598857  0.12314463  0.24619093  1
  Na  Na19  1  0.87191360  0.17092746  0.61887723  1
  Na  Na20  1  0.83768244  0.14206432  0.90572065  1
  Na  Na21  1  0.86453795  0.65568938  0.25546088  1
  Na  Na22  1  0.83811364  0.62843559  0.55760666  1
  Na  Na23  1  0.87106079  0.63337349  0.93135667  1
  Na  Na24  1  0.98251384  0.51256546  0.41291091  1
  Na  Na25  1  0.98542383  0.51032916  0.75423679  1
  Na  Na26  1  0.49434561  0.51289242  0.08479782  1
  Na  Na27  1  0.49758081  0.51135836  0.41287204  1
  Na  Na28  1  0.49132713  0.50706061  0.74680086  1
  Na  Na29  1  0.99840054  0.03508947  0.40806828  1
  Na  Na30  1  0.46911248  0.00233085  0.42105554  1
  Na  Na31  1  0.50073992  0.00181148  0.06896060  1
  Na  Na32  1  0.97610307  0.53328147  0.07166102  1
  Na  Na33  1  -0.01907079  1.00829411  0.92815642  1
  Na  Na34  1  0.50165236  0.99136371  0.25218907  1
  Na  Na35  1  0.00998012  0.48319296  0.58407216  1
  Na  Na36  1  -0.01166312  1.03025171  0.57828360  1
  Na  Na37  1  -0.01852324  0.53304523  0.23243510  1
  Na  Na38  1  0.00699226  0.45296645  0.90076966  1
  Na  Na39  1  0.55627144  0.49457679  0.26401348  1
  Na  Na40  1  0.52173741  0.48467776  0.91627946  1
  Na  Na41  1  0.51477320  0.48888521  0.58034474  1
  Na  Na42  1  0.76829721  0.75849223  -0.00430762  1
  Na  Na43  1  0.23879468  0.23984351  0.67095695  1
  Na  Na44  1  0.75430041  0.76048245  0.65095051  1
  Na  Na45  1  0.23994196  0.75088474  0.01100459  1
  Na  Na46  1  0.25189873  0.24968893  0.00549700  1
  Na  Na47  1  0.25759726  0.76230000  0.65167319  1
  Na  Na48  1  0.74582383  0.74061071  0.35060725  1
  Na  Na49  1  0.24470365  0.24294507  0.34103185  1
  Na  Na50  1  0.23523674  0.74186217  0.34779006  1
  Na  Na51  1  0.75638229  0.24534437  0.33107221  1
  Na  Na52  1  0.23161135  0.75137204  0.17938976  1
  Na  Na53  1  0.76965671  0.26517410  0.81975116  1
  Na  Na54  1  0.78182046  0.76652710  0.16229802  1
  Na  Na55  1  0.75432170  0.75832194  0.82546584  1
  Na  Na56  1  0.74851973  0.24515983  0.51185982  1
  Na  Na57  1  0.24827756  0.24247787  0.17249650  1
  Na  Na58  1  0.24704197  0.24037246  0.83795331  1
  Na  Na59  1  0.24011215  0.23621303  0.50867958  1
  Na  Na60  1  0.75951262  0.25337186  0.15871773  1
  Na  Na61  1  0.24981886  0.75452168  0.83004077  1
  Fe  Fe62  1  0.46713092  0.80969568  0.78506462  1
  Fe  Fe63  1  0.46415338  0.80713916  0.11861527  1
  Fe  Fe64  1  0.97260138  0.30010462  0.45725658  1
  Fe  Fe65  1  0.96337034  0.31018994  0.12070961  1
  Fe  Fe66  1  0.46617962  0.30253439  0.78281711  1
  Fe  Fe67  1  0.46452079  0.81053769  0.45325248  1
  Fe  Fe68  1  0.46416376  0.30377452  0.45008043  1
  Fe  Fe69  1  0.46896225  0.30752577  0.11747579  1
  Fe  Fe70  1  0.96291519  0.80846473  0.78520039  1
  Fe  Fe71  1  0.96341465  0.81192999  0.45702621  1
  Fe  Fe72  1  0.19818984  0.02566083  0.37035208  1
  Fe  Fe73  1  0.19623090  0.03139177  0.04757902  1
  Fe  Fe74  1  0.70215247  0.52669005  0.04373637  1
  Fe  Fe75  1  0.69475531  0.03448130  0.38417175  1
  Fe  Fe76  1  0.19489920  0.53228956  0.04651051  1
  Fe  Fe77  1  0.69232874  0.53462624  0.71737259  1
  Fe  Fe78  1  0.19447517  0.03380859  0.71030005  1
  Fe  Fe79  1  0.18730494  0.53905243  0.37867801  1
  Fe  Fe80  1  0.68957866  0.03616176  0.04500500  1
  Fe  Fe81  1  0.19404476  0.53598701  0.71327816  1
  Fe  Fe82  1  0.53482528  0.19044743  0.21276532  1
  Fe  Fe83  1  0.03195476  0.69506184  0.55075628  1
  Fe  Fe84  1  0.54826511  0.17385376  0.87247365  1
  Fe  Fe85  1  0.03532095  0.19103666  0.20789669  1
  Fe  Fe86  1  0.53456593  0.69467319  0.88268003  1
  Fe  Fe87  1  0.03272379  0.19553628  0.87432439  1
  Fe  Fe88  1  0.53662194  0.69596682  0.54846029  1
  Fe  Fe89  1  0.03085753  0.69477658  0.88222170  1
  Fe  Fe90  1  0.53941790  0.19032053  0.55426332  1
  Fe  Fe91  1  0.53811873  0.69363354  0.21831178  1
  Fe  Fe92  1  0.30664258  0.96405040  0.95205811  1
  Fe  Fe93  1  0.80500884  0.46497304  0.61668646  1
  Fe  Fe94  1  0.30870532  0.46763878  0.61621790  1
  Fe  Fe95  1  0.30785593  0.46558636  0.95045472  1
  Fe  Fe96  1  0.79878246  0.97195961  0.62621155  1
  Fe  Fe97  1  0.80755258  0.96697686  0.28735722  1
  Fe  Fe98  1  0.30760980  0.46557963  0.28325299  1
  Fe  Fe99  1  0.80063432  0.46813380  0.28838947  1
  Fe  Fe100  1  0.30870076  0.95980500  0.61660679  1
  Fe  Fe101  1  0.80742666  0.96651393  0.95556516  1
  S  S102  1  0.36251853  0.14002452  0.08342166  1
  S  S103  1  0.36256306  0.13953817  0.41956500  1
  S  S104  1  0.36244197  0.13853296  0.74913701  1
  S  S105  1  0.36090229  0.63930837  0.08335511  1
  S  S106  1  0.36078650  0.63886623  0.41534588  1
  S  S107  1  0.35951068  0.64141873  0.74915595  1
  S  S108  1  0.86177642  0.14133217  0.08097955  1
  S  S109  1  0.85870125  0.13987857  0.41916092  1
  S  S110  1  0.86607225  0.13945007  0.75690388  1
  S  S111  1  0.85333920  0.63443833  0.08552412  1
  S  S112  1  0.86241155  0.63835917  0.41729696  1
  S  S113  1  0.85629753  0.64092878  0.74590038  1
  S  S114  1  0.14240890  0.36046206  0.25104225  1
  S  S115  1  0.14582409  0.36187584  0.58183331  1
  S  S116  1  0.14910633  0.35695843  0.91720832  1
  S  S117  1  0.13122204  0.85929972  0.24898475  1
  S  S118  1  0.13878698  0.85974264  0.58569898  1
  S  S119  1  0.13919291  0.85932115  0.91735932  1
  S  S120  1  0.64232486  0.35173116  0.24960110  1
  S  S121  1  0.63613018  0.35935151  0.58070564  1
  S  S122  1  0.63486942  0.35565389  0.91359795  1
  S  S123  1  0.64083385  0.85972589  0.24811525  1
  S  S124  1  0.63694058  0.86307382  0.58312174  1
  S  S125  1  0.63965982  0.85833554  0.91839476  1
  S  S126  1  0.07478731  0.17352503  0.04152346  1
  S  S127  1  0.07528481  0.17181921  0.37456778  1
  S  S128  1  0.07273526  0.16980221  0.71008140  1
  S  S129  1  0.06916077  0.65200607  0.03358222  1
  S  S130  1  0.06317773  0.66458481  0.37901483  1
  S  S131  1  0.06561713  0.66732092  0.70985266  1
  S  S132  1  0.56732275  0.16968668  0.04399452  1
  S  S133  1  0.56734535  0.17037469  0.37673646  1
  S  S134  1  0.57215199  0.17293125  0.71450866  1
  S  S135  1  0.56533683  0.66838070  0.04331978  1
  S  S136  1  0.56074243  0.66883034  0.37463901  1
  S  S137  1  0.56285733  0.66881907  0.70793296  1
  S  S138  1  0.33924876  0.43601690  0.12715234  1
  S  S139  1  0.33393863  0.43395129  0.45546583  1
  S  S140  1  0.33409113  0.43408489  0.78968258  1
  S  S141  1  0.33951280  0.93682678  0.12405749  1
  S  S142  1  0.32586535  0.93128542  0.45580705  1
  S  S143  1  0.32384627  0.92818071  0.78841791  1
  S  S144  1  0.82870903  0.42893203  0.13003785  1
  S  S145  1  0.83233250  0.42899660  0.45440744  1
  S  S146  1  0.82926046  0.44679079  0.78986446  1
  S  S147  1  0.82694630  0.93399150  0.11968701  1
  S  S148  1  0.82744659  0.93484059  0.46317088  1
  S  S149  1  0.83071886  0.93020567  0.79184665  1
  S  S150  1  0.43493710  0.33073266  0.29053774  1
  S  S151  1  0.43323889  0.33327776  0.62335062  1
  S  S152  1  0.43150919  0.33446977  0.95881427  1
  S  S153  1  0.43730272  0.83110524  0.28823708  1
  S  S154  1  0.43036059  0.82559835  0.62219795  1
  S  S155  1  0.43235947  0.82789372  0.95490449  1
  S  S156  1  0.93281530  0.32598036  0.29253443  1
  S  S157  1  0.93815499  0.34666335  0.62650289  1
  S  S158  1  0.94443295  0.33113717  0.96111156  1
  S  S159  1  0.91779945  0.83771104  0.30419315  1
  S  S160  1  0.92325072  0.82757075  0.62190575  1
  S  S161  1  0.93205251  0.82693450  0.95407837  1
  S  S162  1  0.17626676  0.07494172  0.21051049  1
  S  S163  1  0.17266769  0.06171688  0.53884069  1
  S  S164  1  0.17716633  0.07250843  0.87930791  1
  S  S165  1  0.16845513  0.56361463  0.20947890  1
  S  S166  1  0.16833245  0.56761029  0.54307377  1
  S  S167  1  0.17332678  0.56831681  0.87494200  1
  S  S168  1  0.66596335  0.06336135  0.20696048  1
  S  S169  1  0.67014926  0.06690384  0.53810792  1
  S  S170  1  0.66659330  0.06094498  0.87776210  1
  S  S171  1  0.67032129  0.56479501  0.20755519  1
  S  S172  1  0.65876240  0.56256190  0.54246259  1
  S  S173  1  0.65963228  0.56828081  0.87347698  1
  O  O174  1  0.37170916  0.21913899  0.07566048  1
  O  O175  1  0.36810980  0.22022578  0.41209136  1
  O  O176  1  0.36845696  0.21539486  0.73465112  1
  O  O177  1  0.36843412  0.71769052  0.07376790  1
  O  O178  1  0.36691615  0.71676808  0.40495652  1
  O  O179  1  0.36734994  0.72063133  0.74232240  1
  O  O180  1  0.87218206  0.22067465  0.07475373  1
  O  O181  1  0.87268336  0.21952606  0.41363549  1
  O  O182  1  0.88062768  0.21449284  0.74696032  1
  O  O183  1  0.85915762  0.71294952  0.07830880  1
  O  O184  1  0.87734944  0.71674172  0.40959990  1
  O  O185  1  0.86540498  0.72111412  0.74063903  1
  O  O186  1  0.28193286  0.13040724  0.08744547  1
  O  O187  1  0.28103530  0.12814090  0.42359796  1
  O  O188  1  0.28273723  0.13090954  0.75733553  1
  O  O189  1  0.28320216  0.62957901  0.09350293  1
  O  O190  1  0.28299565  0.62646551  0.42410763  1
  O  O191  1  0.28083301  0.63119245  0.75784136  1
  O  O192  1  0.78370308  0.13216247  0.09054088  1
  O  O193  1  0.77438522  0.13369807  0.41611599  1
  O  O194  1  0.79535075  0.13294259  0.77696179  1
  O  O195  1  0.77312541  0.62567025  0.09662934  1
  O  O196  1  0.78556856  0.63073565  0.42480934  1
  O  O197  1  0.77894118  0.63292419  0.75752028  1
  O  O198  1  0.13420348  0.28071633  0.25782664  1
  O  O199  1  0.14085880  0.28439126  0.58916375  1
  O  O200  1  0.13946579  0.27545519  0.92116069  1
  O  O201  1  0.13933806  0.79252662  0.27840652  1
  O  O202  1  0.12586998  0.78407727  0.59983871  1
  O  O203  1  0.12973200  0.77999160  0.92476932  1
  O  O204  1  0.63200284  0.26983802  0.25247235  1
  O  O205  1  0.62923292  0.27914968  0.58448171  1
  O  O206  1  0.61487868  0.28199859  0.92651557  1
  O  O207  1  0.63450768  0.78159604  0.25831272  1
  O  O208  1  0.63008971  0.78014481  0.58637876  1
  O  O209  1  0.62981259  0.78040687  0.92966337  1
  O  O210  1  0.21985134  0.36826684  0.23828540  1
  O  O211  1  0.22327750  0.37561563  0.57030008  1
  O  O212  1  0.23015911  0.36565526  0.91206296  1
  O  O213  1  0.20059286  0.87361364  0.22743030  1
  O  O214  1  0.22015338  0.86456979  0.58345708  1
  O  O215  1  0.21915032  0.86748342  0.91041285  1
  O  O216  1  0.72297750  0.36137941  0.24614416  1
  O  O217  1  0.71219603  0.37138111  0.56818127  1
  O  O218  1  0.70888558  0.35783331  0.89957858  1
  O  O219  1  0.71776354  0.87146261  0.23754963  1
  O  O220  1  0.71755559  0.87434393  0.57704818  1
  O  O221  1  0.72079606  0.86581125  0.91473882  1
  O  O222  1  0.41896790  0.13361038  0.15363787  1
  O  O223  1  0.41887757  0.13652872  0.49160740  1
  O  O224  1  0.42104277  0.13800182  0.81995447  1
  O  O225  1  0.42180216  0.62997792  0.14941474  1
  O  O226  1  0.42189520  0.63205555  0.48311045  1
  O  O227  1  0.41884606  0.63159962  0.81621449  1
  O  O228  1  0.92140718  0.13350927  0.14911772  1
  O  O229  1  0.91072353  0.12735273  0.48639871  1
  O  O230  1  0.93355554  0.12745405  0.82149205  1
  O  O231  1  0.91151373  0.62371741  0.15230564  1
  O  O232  1  0.92346074  0.62741316  0.48470123  1
  O  O233  1  0.91823556  0.62911853  0.81049474  1
  O  O234  1  0.37457245  0.08034517  0.01762259  1
  O  O235  1  0.37702816  0.08218167  0.35622943  1
  O  O236  1  0.36981954  0.07603698  0.68386299  1
  O  O237  1  0.36784825  0.58026364  0.01423054  1
  O  O238  1  0.37090995  0.57896139  0.34812452  1
  O  O239  1  0.36772448  0.58266827  0.68052876  1
  O  O240  1  0.86970185  0.08287155  0.01239206  1
  O  O241  1  0.86845756  0.08235141  0.34965255  1
  O  O242  1  0.86610419  0.07564474  0.68639472  1
  O  O243  1  0.85687663  0.57464999  0.01678344  1
  O  O244  1  0.87248219  0.57873211  0.34935614  1
  O  O245  1  0.86055451  0.58411808  0.67495328  1
  O  O246  1  0.08088105  0.37030961  0.18621119  1
  O  O247  1  0.08482491  0.37146012  0.51516081  1
  O  O248  1  0.09239417  0.36999793  0.85273903  1
  O  O249  1  0.05950280  0.85324795  0.18871549  1
  O  O250  1  0.08359322  0.86352253  0.51422703  1
  O  O251  1  0.08176956  0.86646437  0.84818449  1
  O  O252  1  0.58630197  0.36075412  0.17926976  1
  O  O253  1  0.57375793  0.37029205  0.51487065  1
  O  O254  1  0.57221901  0.37057817  0.84902954  1
  O  O255  1  0.57950984  0.86574641  0.17979683  1
  O  O256  1  0.57961431  0.86729432  0.51191822  1
  O  O257  1  0.58429031  0.86069562  0.84631851  1
  O  O258  1  0.14025365  0.41820036  0.32219647  1
  O  O259  1  0.13818155  0.42188744  0.65048340  1
  O  O260  1  0.14464591  0.41224721  0.98910271  1
  O  O261  1  0.12978297  0.93043584  0.31802569  1
  O  O262  1  0.12764127  0.92286611  0.64989225  1
  O  O263  1  0.13127959  0.91891955  0.98494209  1
  O  O264  1  0.62956442  0.40729139  0.31521829  1
  O  O265  1  0.62791526  0.41596842  0.65009556  1
  O  O266  1  0.63142156  0.41972607  0.98268688  1
  O  O267  1  0.63149133  0.91971109  0.31506937  1
  O  O268  1  0.62639416  0.91771958  0.64882941  1
  O  O269  1  0.62679256  0.91847900  0.98281480  1
  O  O270  1  0.03643033  0.20191553  0.10075653  1
  O  O271  1  0.03501469  0.19611515  0.43144802  1
  O  O272  1  0.04992099  0.19110014  0.77961841  1
  O  O273  1  0.03726569  0.66496530  0.09445920  1
  O  O274  1  0.03783641  0.69827962  0.44727267  1
  O  O275  1  0.03017781  0.69804520  0.77111664  1
  O  O276  1  0.52618090  0.19943907  0.10224398  1
  O  O277  1  0.52917264  0.19797786  0.43661159  1
  O  O278  1  0.53037994  0.20529654  0.77371619  1
  O  O279  1  0.52933397  0.70021344  0.10480369  1
  O  O280  1  0.52596849  0.70680453  0.43591951  1
  O  O281  1  0.52851214  0.70052048  0.77049618  1
  O  O282  1  0.30755013  0.47026183  0.06497355  1
  O  O283  1  0.30382991  0.46810131  0.39357887  1
  O  O284  1  0.30358842  0.47035093  0.72862838  1
  O  O285  1  0.30233167  0.96764802  0.05833573  1
  O  O286  1  0.29660132  0.97036311  0.39703097  1
  O  O287  1  0.29621356  0.96795893  0.72978297  1
  O  O288  1  0.79691773  0.45824434  0.06660909  1
  O  O289  1  0.80737992  0.46319058  0.39329428  1
  O  O290  1  0.78968917  0.47063816  0.71842975  1
  O  O291  1  0.78943035  0.97447528  0.06139445  1
  O  O292  1  0.79902716  0.97298017  0.40263347  1
  O  O293  1  0.80481987  0.96126021  0.72890533  1
  O  O294  1  0.47021656  0.30114136  0.22868112  1
  O  O295  1  0.46827461  0.30092802  0.56218288  1
  O  O296  1  0.45734264  0.30639138  0.89245784  1
  O  O297  1  0.47272769  0.79362278  0.22613662  1
  O  O298  1  0.46710080  0.79591419  0.56104293  1
  O  O299  1  0.46748693  0.79770190  0.89293502  1
  O  O300  1  0.97064337  0.29935143  0.23194671  1
  O  O301  1  0.97294565  0.31964768  0.56504216  1
  O  O302  1  0.98676068  0.29596922  0.90505476  1
  O  O303  1  0.92685183  0.80120829  0.23175636  1
  O  O304  1  0.96393664  0.80083268  0.56303176  1
  O  O305  1  0.96549607  0.79607843  0.88877253  1
  O  O306  1  0.20020910  0.04470306  0.27501177  1
  O  O307  1  0.20720941  0.02330124  0.59833570  1
  O  O308  1  0.20369340  0.03150475  0.93762961  1
  O  O309  1  0.20469688  0.52866595  0.27207018  1
  O  O310  1  0.20258143  0.53335032  0.60547660  1
  O  O311  1  0.20279067  0.53023441  0.93499619  1
  O  O312  1  0.69807238  0.02909392  0.26885810  1
  O  O313  1  0.70177955  0.03436538  0.60002116  1
  O  O314  1  0.70471141  0.02901375  0.94329417  1
  O  O315  1  0.69335894  0.52356141  0.26417635  1
  O  O316  1  0.69035419  0.53157824  0.60785416  1
  O  O317  1  0.68327463  0.53318454  0.93339537  1
  O  O318  1  0.09319566  0.09193465  0.03494630  1
  O  O319  1  0.10242323  0.09339385  0.37411635  1
  O  O320  1  0.09518493  0.08781194  0.69509270  1
  O  O321  1  0.08633789  0.56660222  0.01062302  1
  O  O322  1  0.07819626  0.57980104  0.37341835  1
  O  O323  1  0.08170126  0.58424649  0.70441521  1
  O  O324  1  0.58329013  0.08824321  0.04268463  1
  O  O325  1  0.58497379  0.08819612  0.36891475  1
  O  O326  1  0.59127892  0.09642078  0.71497737  1
  O  O327  1  0.57800101  0.58534222  0.03712318  1
  O  O328  1  0.57173776  0.58841578  0.37517004  1
  O  O329  1  0.57701551  0.58556053  0.70284829  1
  O  O330  1  0.42239555  0.42114064  0.13304778  1
  O  O331  1  0.41663354  0.41681036  0.46136092  1
  O  O332  1  0.41670171  0.41864782  0.79462943  1
  O  O333  1  0.42064216  0.91742475  0.12084757  1
  O  O334  1  0.40478736  0.90879946  0.45236636  1
  O  O335  1  0.40143103  0.90372955  0.78937300  1
  O  O336  1  0.91267142  0.41491773  0.13738799  1
  O  O337  1  0.91669618  0.41482848  0.46667684  1
  O  O338  1  0.91109926  0.43817700  0.79224366  1
  O  O339  1  0.90335876  0.91735215  0.11642127  1
  O  O340  1  0.91089739  0.92045796  0.47222774  1
  O  O341  1  0.91403865  0.91264449  0.80414564  1
  O  O342  1  0.41714291  0.41279409  0.29639588  1
  O  O343  1  0.41830316  0.41658318  0.62659672  1
  O  O344  1  0.41660559  0.41910285  0.96940952  1
  O  O345  1  0.43177639  0.91350802  0.29326515  1
  O  O346  1  0.40790674  0.90403925  0.62406382  1
  O  O347  1  0.41344045  0.90894407  0.95979172  1
  O  O348  1  0.91180966  0.40656036  0.29888308  1
  O  O349  1  0.91797551  0.43003494  0.63058646  1
  O  O350  1  0.93750340  0.41306165  0.96445326  1
  O  O351  1  0.91204057  0.92479002  0.31931426  1
  O  O352  1  0.89826647  0.90553663  0.62417027  1
  O  O353  1  0.90875705  0.90643772  0.95415981  1
  O  O354  1  0.09549783  0.09511163  0.19665336  1
  O  O355  1  0.09025235  0.06963041  0.53195662  1
  O  O356  1  0.10098151  0.10078320  0.88176784  1
  O  O357  1  0.08618741  0.56965885  0.20211965  1
  O  O358  1  0.08519236  0.57925687  0.53864044  1
  O  O359  1  0.09140777  0.58550623  0.86641204  1
  O  O360  1  0.58345814  0.08005116  0.20380716  1
  O  O361  1  0.58821906  0.08545440  0.53280925  1
  O  O362  1  0.58336199  0.06941556  0.87679688  1
  O  O363  1  0.58690815  0.58371080  0.20194929  1
  O  O364  1  0.57639107  0.58277606  0.54051882  1
  O  O365  1  0.57479431  0.58470280  0.86366835  1
  O  O366  1  0.14627492  0.22724320  0.06042769  1
  O  O367  1  0.14417153  0.22913788  0.39265502  1
  O  O368  1  0.14217051  0.22513638  0.72492814  1
  O  O369  1  0.14153394  0.70437431  0.05189687  1
  O  O370  1  0.13561486  0.70961964  0.38867526  1
  O  O371  1  0.13792189  0.71700769  0.72535436  1
  O  O372  1  0.63984599  0.22046501  0.06478059  1
  O  O373  1  0.63828758  0.22348026  0.39469776  1
  O  O374  1  0.63827080  0.23118988  0.73011833  1
  O  O375  1  0.63743646  0.71791442  0.05871614  1
  O  O376  1  0.63251982  0.71603308  0.38511099  1
  O  O377  1  0.63534322  0.71731090  0.72225869  1
  O  O378  1  0.29026725  0.36336744  0.11299734  1
  O  O379  1  0.28352403  0.36295276  0.44223150  1
  O  O380  1  0.28402476  0.36225323  0.77480490  1
  O  O381  1  0.29131595  0.86567853  0.11338488  1
  O  O382  1  0.27274601  0.86290542  0.44307628  1
  O  O383  1  0.26635043  0.86029082  0.77182302  1
  O  O384  1  0.78147855  0.35787845  0.12163590  1
  O  O385  1  0.78228183  0.35582683  0.43748878  1
  O  O386  1  0.78529448  0.37290426  0.77915207  1
  O  O387  1  0.77153334  0.86315758  0.10193454  1
  O  O388  1  0.77644124  0.86273640  0.44371643  1
  O  O389  1  0.77809985  0.85907767  0.77671499  1
  O  O390  1  0.36382235  0.27914733  0.27569893  1
  O  O391  1  0.36058330  0.28510424  0.60972287  1
  O  O392  1  0.36147793  0.28471570  0.95009077  1
  O  O393  1  0.36199606  0.78495273  0.27072421  1
  O  O394  1  0.36291139  0.77020616  0.60859666  1
  O  O395  1  0.36148854  0.77556910  0.93963042  1
  O  O396  1  0.86358435  0.26986993  0.27449649  1
  O  O397  1  0.86538023  0.29650644  0.60924058  1
  O  O398  1  0.86963417  0.28377060  0.93991389  1
  O  O399  1  0.84621149  0.79970978  0.30843799  1
  O  O400  1  0.85774516  0.76906921  0.60578615  1
  O  O401  1  0.86090429  0.77245797  0.93587713  1
  O  O402  1  0.23196472  0.14479883  0.22704692  1
  O  O403  1  0.22152029  0.13716743  0.56059341  1
  O  O404  1  0.23697932  0.13890184  0.89718016  1
  O  O405  1  0.21591878  0.63881429  0.22780953  1
  O  O406  1  0.21594472  0.64054669  0.55798946  1
  O  O407  1  0.22574979  0.64037485  0.89377979  1
  O  O408  1  0.71660907  0.13411662  0.21987293  1
  O  O409  1  0.72073131  0.13597382  0.54672687  1
  O  O410  1  0.70691793  0.13907511  0.89547603  1
  O  O411  1  0.72200450  0.63721043  0.22917085  1
  O  O412  1  0.70858040  0.63341354  0.55527668  1
  O  O413  1  0.70933685  0.63982847  0.88728643  1
  O  O414  1  0.49536084  0.33572694  0.02894333  1
  O  O415  1  0.49453826  0.33275392  0.36280562  1
  O  O416  1  0.49243895  0.33806538  0.69647172  1
  O  O417  1  0.49282800  0.83029641  0.02672869  1
  O  O418  1  0.49351000  0.82737506  0.36037764  1
  O  O419  1  0.49160031  0.83118324  0.69512975  1
  O  O420  1  0.99732994  0.33076638  0.03675942  1
  O  O421  1  0.99247750  0.32786892  0.36497109  1
  O  O422  1  0.99649467  0.35236004  0.69829184  1
  O  O423  1  0.99233792  0.82917518  0.02230905  1
  O  O424  1  0.98731014  0.83291145  0.36841223  1
  O  O425  1  0.98481406  0.83279463  0.69511559  1
  O  O426  1  0.18019857  0.01287250  0.14177480  1
  O  O427  1  0.17797258  0.00919920  0.46542513  1
  O  O428  1  0.16864101  0.01436146  0.80493144  1
  O  O429  1  0.17565646  0.50716818  0.13860695  1
  O  O430  1  0.16905241  0.50837373  0.47149380  1
  O  O431  1  0.17421195  0.50934961  0.80310466  1
  O  O432  1  0.65969404  0.00373006  0.13334253  1
  O  O433  1  0.66285667  0.00384451  0.46471143  1
  O  O434  1  0.66977237  0.00376514  0.80966426  1
  O  O435  1  0.66565855  0.50883214  0.13261771  1
  O  O436  1  0.65125226  0.50020293  0.47256754  1
  O  O437  1  0.65591634  0.50838087  0.79987513  1
  O  O438  1  0.01820978  0.16425516  0.29932893  1
  O  O439  1  0.00705950  0.17033173  0.64547755  1
  O  O440  1  0.01703058  0.17141855  0.96798991  1
  O  O441  1  -0.00111740  0.66117659  0.31159087  1
  O  O442  1  0.00642247  0.66519483  0.63758980  1
  O  O443  1  0.00926715  0.66005353  0.96409634  1
  O  O444  1  0.50847081  0.16909914  0.30386998  1
  O  O445  1  0.51091900  0.17173494  0.64126542  1
  O  O446  1  0.51228284  0.16885368  0.97056816  1
  O  O447  1  0.50158380  0.66437250  0.30001258  1
  O  O448  1  0.50300693  0.66756043  0.63632596  1
  O  O449  1  0.50553251  0.66815326  0.97098907  1
  O  O450  1  0.33945742  0.49555653  0.19869687  1
  O  O451  1  0.33698408  0.49490308  0.52777430  1
  O  O452  1  0.33663603  0.49348184  0.86254046  1
  O  O453  1  0.35019452  0.99956517  0.19414555  1
  O  O454  1  0.33694657  0.99025776  0.53103507  1
  O  O455  1  0.32992204  0.98737877  0.86254942  1
  O  O456  1  0.83302150  0.49182822  0.20266919  1
  O  O457  1  0.82602691  0.48796676  0.52423621  1
  O  O458  1  0.82424536  0.51046049  0.85409011  1
  O  O459  1  0.82776982  0.98979389  0.19457641  1
  O  O460  1  0.82759865  0.99295349  0.53597783  1
  O  O461  1  0.83207941  0.99130173  0.86371063  1
