# generated using pymatgen
data_Na31Fe20(SO4)36
_symmetry_space_group_name_H-M   'P 1'
_cell_length_a   18.07271238
_cell_length_b   18.07496437
_cell_length_c   19.70231889
_cell_angle_alpha   107.60202594
_cell_angle_beta   107.57152892
_cell_angle_gamma   90.72513792
_symmetry_Int_Tables_number   1
_chemical_formula_structural   Na31Fe20(SO4)36
_chemical_formula_sum   'Na62 Fe40 S72 O288'
_cell_volume   5810.06368314
_cell_formula_units_Z   2
loop_
 _symmetry_equiv_pos_site_id
 _symmetry_equiv_pos_as_xyz
  1  'x, y, z'
loop_
 _atom_site_type_symbol
 _atom_site_label
 _atom_site_symmetry_multiplicity
 _atom_site_fract_x
 _atom_site_fract_y
 _atom_site_fract_z
 _atom_site_occupancy
  Na  Na0  1  0.13212513  0.36677443  0.08534705  1
  Na  Na1  1  0.13545530  0.37158395  0.42267473  1
  Na  Na2  1  0.12848135  0.33270923  0.71581715  1
  Na  Na3  1  0.14770034  0.87316869  0.08990511  1
  Na  Na4  1  0.13848022  0.86768276  0.41941808  1
  Na  Na5  1  0.13917772  0.86953834  0.75699619  1
  Na  Na6  1  0.64048790  0.36255773  0.08859814  1
  Na  Na7  1  0.62522724  0.34995648  0.40310783  1
  Na  Na8  1  0.63023672  0.35457196  0.74384840  1
  Na  Na9  1  0.63312033  0.86545601  0.08433011  1
  Na  Na10  1  0.63803901  0.87373713  0.42368735  1
  Na  Na11  1  0.63487736  0.86678850  0.74730982  1
  Na  Na12  1  0.37518181  0.15422537  0.26298136  1
  Na  Na13  1  0.35342974  0.13871607  0.58372918  1
  Na  Na14  1  0.34457068  0.13028861  0.90736087  1
  Na  Na15  1  0.36535810  0.63463884  0.25035197  1
  Na  Na16  1  0.36517704  0.63377080  0.58177278  1
  Na  Na17  1  0.36727106  0.63021042  0.91443768  1
  Na  Na18  1  0.86109023  0.13710737  0.24619878  1
  Na  Na19  1  0.86617676  0.13497215  0.57918401  1
  Na  Na20  1  0.86691030  0.13282289  0.91825171  1
  Na  Na21  1  0.86257506  0.63929399  0.25552878  1
  Na  Na22  1  0.86967971  0.62662821  0.57831570  1
  Na  Na23  1  0.86779042  0.63721367  0.91925360  1
  Na  Na24  1  1.01093497  0.00106155  0.10214602  1
  Na  Na25  1  1.00602016  0.03867295  0.41881419  1
  Na  Na26  1  0.50532276  0.48688679  0.42314185  1
  Na  Na27  1  0.45382911  0.02164432  0.09245096  1
  Na  Na28  1  0.96404590  0.00950930  0.73968058  1
  Na  Na29  1  0.51077754  0.45780767  0.80245286  1
  Na  Na30  1  0.49791248  0.50485737  0.06980353  1
  Na  Na31  1  0.48742621  0.01890838  0.74379442  1
  Na  Na32  1  1.02093634  0.49178540  0.73161546  1
  Na  Na33  1  0.50654450  0.48798994  0.24966073  1
  Na  Na34  1  0.47306223  1.01265017  0.92849012  1
  Na  Na35  1  0.49058386  1.00882764  0.27133761  1
  Na  Na36  1  0.00675867  0.48691126  0.92705135  1
  Na  Na37  1  0.50239254  0.45480361  0.58014884  1
  Na  Na38  1  0.50966332  1.01254637  0.55315529  1
  Na  Na39  1  -0.00973208  1.00723282  0.57729315  1
  Na  Na40  1  0.00684279  0.49185821  0.25448941  1
  Na  Na41  1  0.05666796  0.99544126  0.93765288  1
  Na  Na42  1  0.74189823  0.24410048  0.32013888  1
  Na  Na43  1  0.24234894  0.74454887  0.34377470  1
  Na  Na44  1  0.76183086  0.76458988  0.65304085  1
  Na  Na45  1  0.75013714  0.74836283  0.00314152  1
  Na  Na46  1  0.24710605  0.23759139  0.34962400  1
  Na  Na47  1  0.74240576  0.24561148  0.00938224  1
  Na  Na48  1  0.26008592  0.76038483  0.65392324  1
  Na  Na49  1  0.26132072  0.76495663  -0.00769944  1
  Na  Na50  1  0.75149563  0.25193223  0.66763283  1
  Na  Na51  1  0.24145015  0.23842484  0.00268038  1
  Na  Na52  1  0.76491917  0.76716921  0.48411433  1
  Na  Na53  1  0.74530396  0.24413611  0.83998761  1
  Na  Na54  1  0.74964455  0.24935198  0.49550791  1
  Na  Na55  1  0.22427388  0.22960519  0.51605070  1
  Na  Na56  1  0.24565201  0.23490788  0.16954130  1
  Na  Na57  1  0.26317063  0.25527880  0.80936867  1
  Na  Na58  1  0.26077568  0.76275817  0.82738993  1
  Na  Na59  1  0.75646584  0.75839759  0.82744896  1
  Na  Na60  1  0.74516305  0.74335822  0.17667730  1
  Na  Na61  1  0.24847633  0.75176794  0.16864766  1
  Fe  Fe62  1  0.96707647  0.80780244  0.78516506  1
  Fe  Fe63  1  0.96406467  0.80710396  0.45072299  1
  Fe  Fe64  1  0.47252615  0.29861021  0.12080520  1
  Fe  Fe65  1  0.96865716  0.81050295  0.12328421  1
  Fe  Fe66  1  0.96704053  0.30518288  0.45545664  1
  Fe  Fe67  1  0.96715838  0.30339238  0.78320653  1
  Fe  Fe68  1  0.46582761  0.80894596  0.78701375  1
  Fe  Fe69  1  0.95998130  0.30972032  0.12149709  1
  Fe  Fe70  1  0.46437552  0.80751370  0.45435955  1
  Fe  Fe71  1  0.46741801  0.80907507  0.12426636  1
  Fe  Fe72  1  0.19448032  0.53828610  0.38570868  1
  Fe  Fe73  1  0.69342188  0.53386394  0.04872077  1
  Fe  Fe74  1  0.19510064  0.53498256  0.04842200  1
  Fe  Fe75  1  0.18470250  0.03310253  0.71070914  1
  Fe  Fe76  1  0.69553507  0.03297763  0.37821439  1
  Fe  Fe77  1  0.69519423  0.53761336  0.38389752  1
  Fe  Fe78  1  0.69855821  0.03119459  0.70687560  1
  Fe  Fe79  1  0.19358892  0.53537217  0.71259118  1
  Fe  Fe80  1  0.68845610  0.03618277  0.04952293  1
  Fe  Fe81  1  0.69396131  0.53609674  0.71644965  1
  Fe  Fe82  1  0.53665383  0.69148660  0.88115167  1
  Fe  Fe83  1  0.52984997  0.20205704  0.53911389  1
  Fe  Fe84  1  0.03705041  0.68868552  0.54519252  1
  Fe  Fe85  1  0.03693667  0.19310201  0.21577056  1
  Fe  Fe86  1  0.53586552  0.69421492  0.21852494  1
  Fe  Fe87  1  0.53292921  0.69234988  0.54899722  1
  Fe  Fe88  1  0.03660786  0.69204439  0.21363541  1
  Fe  Fe89  1  0.03324999  0.68911411  0.87883772  1
  Fe  Fe90  1  0.52862207  0.19910087  0.87354678  1
  Fe  Fe91  1  0.03431168  0.19076422  0.88195079  1
  Fe  Fe92  1  0.81245970  0.46631141  0.95693687  1
  Fe  Fe93  1  0.30660682  0.46645582  0.28557319  1
  Fe  Fe94  1  0.30278762  0.96306915  0.61326278  1
  Fe  Fe95  1  0.30599179  0.46171084  0.94798873  1
  Fe  Fe96  1  0.30868567  0.46181334  0.61830470  1
  Fe  Fe97  1  0.29947423  0.97384495  0.29425921  1
  Fe  Fe98  1  0.81136884  0.46355138  0.28946271  1
  Fe  Fe99  1  0.80741481  0.46593773  0.62049354  1
  Fe  Fe100  1  0.80752091  0.96683187  0.95445241  1
  Fe  Fe101  1  0.80941296  0.96391905  0.28404909  1
  S  S102  1  0.35723215  0.14821427  0.07790216  1
  S  S103  1  0.36476042  0.14159171  0.41811075  1
  S  S104  1  0.35825633  0.13429743  0.75001072  1
  S  S105  1  0.36258016  0.63949314  0.08276081  1
  S  S106  1  0.35985847  0.64128796  0.41585014  1
  S  S107  1  0.36177267  0.63922190  0.75122649  1
  S  S108  1  0.85716865  0.13926207  0.08444385  1
  S  S109  1  0.85986569  0.14011954  0.41390565  1
  S  S110  1  0.85895771  0.14399550  0.75162298  1
  S  S111  1  0.86034879  0.64272962  0.08387930  1
  S  S112  1  0.86129317  0.63887151  0.41809859  1
  S  S113  1  0.85874189  0.64243980  0.74886165  1
  S  S114  1  0.13932564  0.36292791  0.25058572  1
  S  S115  1  0.13667270  0.36463877  0.58057921  1
  S  S116  1  0.13874607  0.35921249  0.91744181  1
  S  S117  1  0.14149019  0.85815627  0.24871680  1
  S  S118  1  0.13954147  0.85512974  0.58147005  1
  S  S119  1  0.13985710  0.85134802  0.91705270  1
  S  S120  1  0.63849830  0.36821329  0.25022345  1
  S  S121  1  0.64319229  0.36241791  0.58649050  1
  S  S122  1  0.64552631  0.36214085  0.91747420  1
  S  S123  1  0.64260539  0.85597153  0.25244939  1
  S  S124  1  0.64001833  0.85686328  0.58222865  1
  S  S125  1  0.64228730  0.85885111  0.91579024  1
  S  S126  1  0.05949187  0.17228670  0.04761487  1
  S  S127  1  0.06532529  0.17716064  0.37621792  1
  S  S128  1  0.05965209  0.16341125  0.70880970  1
  S  S129  1  0.06757341  0.66909844  0.04247029  1
  S  S130  1  0.06645161  0.66916455  0.37210851  1
  S  S131  1  0.06741082  0.67105206  0.71034513  1
  S  S132  1  0.56822461  0.17276703  0.03715720  1
  S  S133  1  0.57274381  0.16784556  0.37666011  1
  S  S134  1  0.57040503  0.16592080  0.70358180  1
  S  S135  1  0.56851825  0.66863210  0.04362533  1
  S  S136  1  0.56678306  0.66808295  0.37855642  1
  S  S137  1  0.56851788  0.66936875  0.71048130  1
  S  S138  1  0.32906492  0.43366408  0.12133395  1
  S  S139  1  0.33218373  0.43868403  0.45575137  1
  S  S140  1  0.32012120  0.43114577  0.78852421  1
  S  S141  1  0.33597925  0.93001862  0.13306849  1
  S  S142  1  0.33200318  0.93037883  0.45661743  1
  S  S143  1  0.33232243  0.93191880  0.78877002  1
  S  S144  1  0.83123610  0.43706639  0.12622321  1
  S  S145  1  0.82362111  0.42507323  0.45464812  1
  S  S146  1  0.83314822  0.43534022  0.79332987  1
  S  S147  1  0.83046061  0.93195395  0.12198519  1
  S  S148  1  0.83290520  0.93743102  0.45576502  1
  S  S149  1  0.83196085  0.93387725  0.79201907  1
  S  S150  1  0.43338258  0.34194989  0.28731057  1
  S  S151  1  0.43429224  0.32803850  0.62510262  1
  S  S152  1  0.43020553  0.32648168  0.95720094  1
  S  S153  1  0.42890635  0.82782362  0.29213660  1
  S  S154  1  0.43342950  0.83050040  0.62614944  1
  S  S155  1  0.43977961  0.83127746  0.95942415  1
  S  S156  1  0.92998635  0.32949822  0.29090154  1
  S  S157  1  0.92937413  0.33204104  0.62371391  1
  S  S158  1  0.93386736  0.33018465  0.95888212  1
  S  S159  1  0.93556288  0.82927203  0.28927214  1
  S  S160  1  0.93834781  0.82970736  0.62083239  1
  S  S161  1  0.93199592  0.83094835  0.95896952  1
  S  S162  1  0.17550611  0.06826533  0.21028895  1
  S  S163  1  0.16337891  0.05691646  0.54470518  1
  S  S164  1  0.15690269  0.06342832  0.86975912  1
  S  S165  1  0.17082710  0.56741331  0.20984824  1
  S  S166  1  0.17509157  0.57142678  0.54633099  1
  S  S167  1  0.16900981  0.56617588  0.87654827  1
  S  S168  1  0.65927961  0.05415927  0.20559260  1
  S  S169  1  0.67158531  0.07576303  0.54216264  1
  S  S170  1  0.67020224  0.06916925  0.87361542  1
  S  S171  1  0.66745357  0.56877178  0.20751016  1
  S  S172  1  0.67072722  0.56740118  0.54490588  1
  S  S173  1  0.67364783  0.56750111  0.87857565  1
  O  O174  1  0.37650278  0.23072282  0.07193957  1
  O  O175  1  0.37831631  0.21172486  0.39941802  1
  O  O176  1  0.36299704  0.21251175  0.74535708  1
  O  O177  1  0.37190795  0.71699991  0.07201698  1
  O  O178  1  0.37099951  0.71983184  0.40744130  1
  O  O179  1  0.37139662  0.71899506  0.74389976  1
  O  O180  1  0.86456738  0.21901169  0.07754526  1
  O  O181  1  0.86729384  0.22111979  0.40766433  1
  O  O182  1  0.86693380  0.22672581  0.74990599  1
  O  O183  1  0.87089960  0.72144082  0.07513426  1
  O  O184  1  0.86882470  0.71801317  0.41052502  1
  O  O185  1  0.86674745  0.72197193  0.74139396  1
  O  O186  1  0.27399893  0.14665739  0.07023562  1
  O  O187  1  0.29150863  0.13730140  0.43459355  1
  O  O188  1  0.28303437  0.11808323  0.76402463  1
  O  O189  1  0.28364519  0.63158624  0.09146162  1
  O  O190  1  0.28021378  0.63392269  0.42143181  1
  O  O191  1  0.28366272  0.63249022  0.76223554  1
  O  O192  1  0.77926646  0.12739977  0.09304082  1
  O  O193  1  0.77958413  0.13129522  0.42040397  1
  O  O194  1  0.77905280  0.13310496  0.75782965  1
  O  O195  1  0.77948704  0.63446530  0.08881956  1
  O  O196  1  0.78373646  0.63002594  0.43038351  1
  O  O197  1  0.77992495  0.63297213  0.75761181  1
  O  O198  1  0.13285266  0.28348702  0.25757132  1
  O  O199  1  0.13114433  0.28814227  0.59009938  1
  O  O200  1  0.12858031  0.28322912  0.93084934  1
  O  O201  1  0.13772264  0.77347292  0.24620325  1
  O  O202  1  0.13153649  0.77576866  0.58952255  1
  O  O203  1  0.12597530  0.76963859  0.92105024  1
  O  O204  1  0.63165571  0.29489630  0.26454516  1
  O  O205  1  0.62944093  0.28355508  0.59552563  1
  O  O206  1  0.63327276  0.27992954  0.91786278  1
  O  O207  1  0.63109689  0.77681285  0.25915118  1
  O  O208  1  0.62543405  0.77941522  0.59338056  1
  O  O209  1  0.63575163  0.77981291  0.92500356  1
  O  O210  1  0.21557429  0.37279163  0.23735891  1
  O  O211  1  0.21314076  0.37700062  0.56706498  1
  O  O212  1  0.21810743  0.36687957  0.91116970  1
  O  O213  1  0.22215495  0.87379464  0.24227116  1
  O  O214  1  0.21815873  0.86446663  0.57371812  1
  O  O215  1  0.21721804  0.85726147  0.90892937  1
  O  O216  1  0.71473311  0.38221896  0.23895996  1
  O  O217  1  0.72564439  0.36681893  0.58534358  1
  O  O218  1  0.72852245  0.37077542  0.91637484  1
  O  O219  1  0.72173919  0.86414663  0.24470015  1
  O  O220  1  0.71596029  0.85953221  0.57071641  1
  O  O221  1  0.72142612  0.86931436  0.90776464  1
  O  O222  1  0.40575497  0.14241057  0.15047727  1
  O  O223  1  0.42986722  0.13438602  0.48608069  1
  O  O224  1  0.42246920  0.12323884  0.81525907  1
  O  O225  1  0.42167182  0.63314434  0.15187497  1
  O  O226  1  0.41787752  0.63320501  0.48474864  1
  O  O227  1  0.42177879  0.63141204  0.81887468  1
  O  O228  1  0.91846597  0.12925769  0.14988764  1
  O  O229  1  0.91849157  0.12890108  0.47830925  1
  O  O230  1  0.91586349  0.13551090  0.82124558  1
  O  O231  1  0.91697407  0.63601492  0.15314442  1
  O  O232  1  0.92194281  0.62948008  0.48401052  1
  O  O233  1  0.91735551  0.63488006  0.81741368  1
  O  O234  1  0.37576982  0.09119583  0.01535128  1
  O  O235  1  0.36974411  0.07258032  0.35246895  1
  O  O236  1  0.36663911  0.07529246  0.68066108  1
  O  O237  1  0.37128750  0.57807423  0.01632915  1
  O  O238  1  0.36940188  0.58219933  0.34843063  1
  O  O239  1  0.36740065  0.58058286  0.68252050  1
  O  O240  1  0.86413274  0.08214154  0.01432726  1
  O  O241  1  0.86506777  0.08347973  0.34243376  1
  O  O242  1  0.87003569  0.08909676  0.68502287  1
  O  O243  1  0.86834809  0.58332622  0.01599761  1
  O  O244  1  0.86502343  0.58014382  0.34815111  1
  O  O245  1  0.86652613  0.58386709  0.68081072  1
  O  O246  1  0.07629754  0.37298289  0.18556381  1
  O  O247  1  0.07442168  0.37275746  0.51374739  1
  O  O248  1  0.08028112  0.36454319  0.84760133  1
  O  O249  1  0.08445294  0.86537341  0.17834106  1
  O  O250  1  0.07988906  0.86229581  0.51334762  1
  O  O251  1  0.07991058  0.86143645  0.84840547  1
  O  O252  1  0.57695433  0.37138740  0.17887295  1
  O  O253  1  0.58907631  0.37370295  0.51955013  1
  O  O254  1  0.59229551  0.37580314  0.85149378  1
  O  O255  1  0.58466455  0.86293344  0.18317037  1
  O  O256  1  0.57814103  0.86775565  0.51658565  1
  O  O257  1  0.58372562  0.86380830  0.84636853  1
  O  O258  1  0.13364443  0.42154325  0.32022245  1
  O  O259  1  0.12951071  0.42591211  0.64901142  1
  O  O260  1  0.12806735  0.42219297  0.98275342  1
  O  O261  1  0.13104516  0.90869287  0.31634895  1
  O  O262  1  0.13030957  0.91273311  0.64979416  1
  O  O263  1  0.13016112  0.90734049  0.98417535  1
  O  O264  1  0.62531418  0.43339293  0.31314176  1
  O  O265  1  0.63481643  0.42142484  0.65548274  1
  O  O266  1  0.63817719  0.41656734  0.98874332  1
  O  O267  1  0.63369271  0.91515663  0.31973680  1
  O  O268  1  0.63659706  0.91778694  0.65169705  1
  O  O269  1  0.63340606  0.91789212  0.98288588  1
  O  O270  1  0.02295330  0.21035874  0.10800997  1
  O  O271  1  0.02563517  0.21073460  0.43392174  1
  O  O272  1  0.02942009  0.19946796  0.77530769  1
  O  O273  1  0.02946329  0.69659980  0.10224769  1
  O  O274  1  0.03025267  0.69860007  0.43301123  1
  O  O275  1  0.02716287  0.69943362  0.76912030  1
  O  O276  1  0.53499658  0.20574608  0.09958182  1
  O  O277  1  0.55111661  0.20131803  0.44693435  1
  O  O278  1  0.53304361  0.18571178  0.76256785  1
  O  O279  1  0.53253251  0.69946354  0.10459149  1
  O  O280  1  0.52978190  0.69857139  0.43897608  1
  O  O281  1  0.53269336  0.69917924  0.77203227  1
  O  O282  1  0.29804363  0.46986606  0.05962575  1
  O  O283  1  0.29559093  0.47563450  0.39484436  1
  O  O284  1  0.29257676  0.47015009  0.72783578  1
  O  O285  1  0.31991160  0.96681449  0.07556430  1
  O  O286  1  0.30649896  0.96257691  0.39356530  1
  O  O287  1  0.30049345  0.95833801  0.72159956  1
  O  O288  1  0.80353801  0.47657244  0.06707318  1
  O  O289  1  0.79593831  0.46496951  0.39538511  1
  O  O290  1  0.80385693  0.47395224  0.73389191  1
  O  O291  1  0.79713726  0.96745955  0.06060442  1
  O  O292  1  0.80079800  0.96917586  0.39025453  1
  O  O293  1  0.80427247  0.97178065  0.73378508  1
  O  O294  1  0.46348001  0.31873057  0.22168465  1
  O  O295  1  0.47225426  0.29855861  0.56408459  1
  O  O296  1  0.47362564  0.30210989  0.90346888  1
  O  O297  1  0.46714747  0.79844387  0.23161623  1
  O  O298  1  0.46730396  0.79829922  0.56340761  1
  O  O299  1  0.47661915  0.79657138  0.89820685  1
  O  O300  1  0.96818488  0.29770835  0.23093270  1
  O  O301  1  0.96057573  0.30780971  0.56087979  1
  O  O302  1  0.97105834  0.29933543  0.89879842  1
  O  O303  1  0.97510635  0.79994793  0.22954108  1
  O  O304  1  0.97327015  0.79132458  0.55953072  1
  O  O305  1  0.96473872  0.80046249  0.89569044  1
  O  O306  1  0.20755280  0.03470142  0.27359793  1
  O  O307  1  0.20244132  0.02477660  0.61048777  1
  O  O308  1  0.17654725  0.02770292  0.92832715  1
  O  O309  1  0.20210938  0.53184171  0.27133431  1
  O  O310  1  0.20672244  0.53531111  0.60730936  1
  O  O311  1  0.20081120  0.52913676  0.93698285  1
  O  O312  1  0.70234317  0.02033511  0.26710837  1
  O  O313  1  0.69168274  0.03908011  0.60169969  1
  O  O314  1  0.69642703  0.03086099  0.93367884  1
  O  O315  1  0.70105079  0.54123074  0.27324295  1
  O  O316  1  0.70094769  0.53021819  0.60563932  1
  O  O317  1  0.70413152  0.53178533  0.93995183  1
  O  O318  1  0.06840426  0.09183507  0.04756318  1
  O  O319  1  0.08412283  0.09959477  0.37719940  1
  O  O320  1  0.07256117  0.07998565  0.70426873  1
  O  O321  1  0.08830345  0.58807419  0.03702033  1
  O  O322  1  0.08772942  0.58861183  0.36872714  1
  O  O323  1  0.08868322  0.59143624  0.71001683  1
  O  O324  1  0.58443643  0.09064865  0.03468056  1
  O  O325  1  0.59461022  0.08665824  0.37169569  1
  O  O326  1  0.58518858  0.08128435  0.68731975  1
  O  O327  1  0.58686391  0.58750154  0.04104317  1
  O  O328  1  0.58315097  0.58559117  0.37411491  1
  O  O329  1  0.58740949  0.58809477  0.70468771  1
  O  O330  1  0.41108026  0.41757524  0.12596691  1
  O  O331  1  0.41430409  0.43162264  0.45999903  1
  O  O332  1  0.39582679  0.40520082  0.79044369  1
  O  O333  1  0.42140797  0.91354724  0.15194959  1
  O  O334  1  0.41506232  0.91243835  0.46744221  1
  O  O335  1  0.41611479  0.91456399  0.79506275  1
  O  O336  1  0.91304061  0.41877849  0.13225498  1
  O  O337  1  0.90105808  0.40014140  0.45566412  1
  O  O338  1  0.91414668  0.41512450  0.79748802  1
  O  O339  1  0.91112698  0.91421429  0.12299652  1
  O  O340  1  0.91114513  0.91031436  0.45351043  1
  O  O341  1  0.91396086  0.91520766  0.79695982  1
  O  O342  1  0.41527031  0.42647044  0.29688244  1
  O  O343  1  0.40960708  0.40696377  0.62032332  1
  O  O344  1  0.41175308  0.40894311  0.96543648  1
  O  O345  1  0.40616967  0.90717600  0.29603890  1
  O  O346  1  0.41418294  0.91128574  0.62919427  1
  O  O347  1  0.43010451  0.91302457  0.96564283  1
  O  O348  1  0.91457156  0.41103762  0.29103443  1
  O  O349  1  0.91049017  0.41513706  0.63686977  1
  O  O350  1  0.91611845  0.41125358  0.96003832  1
  O  O351  1  0.91674311  0.91005869  0.29386400  1
  O  O352  1  0.92871842  0.91061077  0.62276603  1
  O  O353  1  0.91605381  0.91367058  0.96758344  1
  O  O354  1  0.09727190  0.09444770  0.21329571  1
  O  O355  1  0.08311449  0.06932520  0.54622990  1
  O  O356  1  0.07113302  0.07992020  0.85491275  1
  O  O357  1  0.09026202  0.58579400  0.20746809  1
  O  O358  1  0.09625113  0.59250557  0.54588738  1
  O  O359  1  0.08669757  0.58188089  0.87353778  1
  O  O360  1  0.57664507  0.05343471  0.20054072  1
  O  O361  1  0.59079237  0.10097889  0.53351051  1
  O  O362  1  0.58880121  0.08872958  0.86570415  1
  O  O363  1  0.58371475  0.58310934  0.20143763  1
  O  O364  1  0.58918522  0.58565954  0.54079474  1
  O  O365  1  0.59232184  0.58568719  0.87396994  1
  O  O366  1  0.13307395  0.22110660  0.06399969  1
  O  O367  1  0.13633389  0.23135234  0.39267328  1
  O  O368  1  0.13426429  0.20895598  0.72399008  1
  O  O369  1  0.13746014  0.72269985  0.05865970  1
  O  O370  1  0.13403201  0.72265372  0.38341060  1
  O  O371  1  0.13761941  0.72479075  0.72773626  1
  O  O372  1  0.63908267  0.22234522  0.04916918  1
  O  O373  1  0.64189597  0.21891858  0.38455348  1
  O  O374  1  0.64379914  0.21819960  0.72589681  1
  O  O375  1  0.64016162  0.72021216  0.05881614  1
  O  O376  1  0.63761104  0.71884811  0.39367499  1
  O  O377  1  0.63887675  0.72239079  0.72579318  1
  O  O378  1  0.27689672  0.36298947  0.10575795  1
  O  O379  1  0.28493850  0.36449627  0.43810202  1
  O  O380  1  0.26064303  0.36741602  0.77536815  1
  O  O381  1  0.28484845  0.85583667  0.11225689  1
  O  O382  1  0.28022877  0.86027574  0.44235509  1
  O  O383  1  0.28350935  0.85877459  0.77582284  1
  O  O384  1  0.77863304  0.36617643  0.10724257  1
  O  O385  1  0.76585448  0.35794776  0.43829561  1
  O  O386  1  0.77892109  0.36574774  0.77714384  1
  O  O387  1  0.77956462  0.86034185  0.10790037  1
  O  O388  1  0.77739820  0.87180458  0.44547773  1
  O  O389  1  0.77984915  0.86121160  0.77433617  1
  O  O390  1  0.36188552  0.29134155  0.27182796  1
  O  O391  1  0.36549422  0.27453781  0.61021420  1
  O  O392  1  0.35791626  0.27385886  0.93539569  1
  O  O393  1  0.35981824  0.77211983  0.27516499  1
  O  O394  1  0.36523220  0.77791253  0.61482613  1
  O  O395  1  0.36571753  0.78117018  0.94009098  1
  O  O396  1  0.85787382  0.27989218  0.27503667  1
  O  O397  1  0.85992260  0.27894587  0.61094754  1
  O  O398  1  0.86238850  0.27881630  0.94373040  1
  O  O399  1  0.86524094  0.77530438  0.27035198  1
  O  O400  1  0.86384693  0.78131865  0.60423947  1
  O  O401  1  0.85961737  0.77993449  0.94343297  1
  O  O402  1  0.22997535  0.13781485  0.22412274  1
  O  O403  1  0.21218670  0.12963582  0.56017510  1
  O  O404  1  0.20610358  0.13735930  0.88705480  1
  O  O405  1  0.22347175  0.63811547  0.22481857  1
  O  O406  1  0.22917077  0.63970183  0.55931178  1
  O  O407  1  0.22050282  0.63749110  0.89262062  1
  O  O408  1  0.70067762  0.13095431  0.22092104  1
  O  O409  1  0.72766957  0.14490904  0.55967297  1
  O  O410  1  0.72510865  0.14019649  0.89388864  1
  O  O411  1  0.71516141  0.63864767  0.21453061  1
  O  O412  1  0.72362545  0.63751192  0.56062310  1
  O  O413  1  0.72565824  0.63850826  0.89339967  1
  O  O414  1  0.48521741  0.32949392  0.03419062  1
  O  O415  1  0.49539010  0.34428779  0.35564009  1
  O  O416  1  0.49467548  0.34213222  0.69831410  1
  O  O417  1  0.49506077  0.82698100  0.03196119  1
  O  O418  1  0.48964709  0.83025095  0.36388785  1
  O  O419  1  0.49609651  0.83567551  0.69822252  1
  O  O420  1  0.99133864  0.33475621  0.03274270  1
  O  O421  1  0.98800611  0.33434230  0.36476312  1
  O  O422  1  0.99216860  0.33398076  0.69528865  1
  O  O423  1  0.99226363  0.83053937  0.02997322  1
  O  O424  1  0.99382808  0.82956158  0.36143031  1
  O  O425  1  0.99406245  0.82904034  0.69463665  1
  O  O426  1  0.16260969  0.00739525  0.13801963  1
  O  O427  1  0.16150957  -0.00292544  0.47483726  1
  O  O428  1  0.16149925  0.00640077  0.79745166  1
  O  O429  1  0.16780866  0.50809148  0.13702342  1
  O  O430  1  0.16837539  0.51100289  0.47276712  1
  O  O431  1  0.16304257  0.50792183  0.80237209  1
  O  O432  1  0.66575548  -0.00041242  0.13287288  1
  O  O433  1  0.67114030  0.01486311  0.47130852  1
  O  O434  1  0.67024159  0.01166783  0.80074993  1
  O  O435  1  0.66363652  0.50459328  0.13651343  1
  O  O436  1  0.66588775  0.50756508  0.47164883  1
  O  O437  1  0.67057362  0.50762637  0.80602571  1
  O  O438  1  0.00729366  0.17368511  0.30130563  1
  O  O439  1  -0.00126952  0.16365386  0.64074438  1
  O  O440  1  0.00428919  0.17134110  0.97299201  1
  O  O441  1  0.00437696  0.66125243  0.29857160  1
  O  O442  1  0.00921566  0.66592732  0.63687214  1
  O  O443  1  0.00726746  0.66464123  0.96934066  1
  O  O444  1  0.50625070  0.16173007  0.31059626  1
  O  O445  1  0.51463866  0.17338860  0.63218131  1
  O  O446  1  0.50750419  0.16606940  0.96366825  1
  O  O447  1  0.50724915  0.66365950  0.30492639  1
  O  O448  1  0.50789905  0.66737379  0.63860177  1
  O  O449  1  0.51005440  0.66517726  0.97051351  1
  O  O450  1  0.33074875  0.49399268  0.19335642  1
  O  O451  1  0.33017198  0.49488823  0.52891989  1
  O  O452  1  0.32622864  0.49410354  0.86209026  1
  O  O453  1  0.33000166  0.98576852  0.20611442  1
  O  O454  1  0.33311005  0.99235673  0.52756652  1
  O  O455  1  0.33529101  0.99367261  0.85766203  1
  O  O456  1  0.83320519  0.49548061  0.19919104  1
  O  O457  1  0.82939286  0.48560389  0.52792829  1
  O  O458  1  0.83824821  0.49471583  0.86714262  1
  O  O459  1  0.83381415  0.99101742  0.19456835  1
  O  O460  1  0.84651423  1.00168877  0.52591017  1
  O  O461  1  0.83436302  0.99002302  0.86660105  1
