# generated using pymatgen
data_Na31Fe20(SO4)36
_symmetry_space_group_name_H-M   'P 1'
_cell_length_a   18.08799899
_cell_length_b   18.07861251
_cell_length_c   19.71853708
_cell_angle_alpha   107.57385645
_cell_angle_beta   107.58462340
_cell_angle_gamma   90.74561327
_symmetry_Int_Tables_number   1
_chemical_formula_structural   Na31Fe20(SO4)36
_chemical_formula_sum   'Na62 Fe40 S72 O288'
_cell_volume   5821.22216969
_cell_formula_units_Z   2
loop_
 _symmetry_equiv_pos_site_id
 _symmetry_equiv_pos_as_xyz
  1  'x, y, z'
loop_
 _atom_site_type_symbol
 _atom_site_label
 _atom_site_symmetry_multiplicity
 _atom_site_fract_x
 _atom_site_fract_y
 _atom_site_fract_z
 _atom_site_occupancy
  Na  Na0  1  0.12837768  0.36136895  0.07675982  1
  Na  Na1  1  0.13611210  0.36325439  0.41730767  1
  Na  Na2  1  0.13808520  0.36711475  0.75417383  1
  Na  Na3  1  0.12124227  0.85143034  0.06911290  1
  Na  Na4  1  0.14188651  0.87371198  0.43288399  1
  Na  Na5  1  0.15362894  0.85106980  0.75362538  1
  Na  Na6  1  0.63796194  0.36000538  0.08277147  1
  Na  Na7  1  0.62456601  0.33061590  0.37869517  1
  Na  Na8  1  0.64027319  0.37526198  0.75078183  1
  Na  Na9  1  0.63022623  0.87003519  0.07995956  1
  Na  Na10  1  0.62782570  0.87761448  0.41894686  1
  Na  Na11  1  0.63386028  0.87539380  0.75662243  1
  Na  Na12  1  0.36645944  0.13166570  0.24754444  1
  Na  Na13  1  0.38160603  0.11357215  0.58724370  1
  Na  Na14  1  0.36981599  0.14313589  0.92409551  1
  Na  Na15  1  0.36667882  0.62677737  0.24493082  1
  Na  Na16  1  0.36345186  0.64152944  0.58849682  1
  Na  Na17  1  0.36122392  0.64064878  0.91261273  1
  Na  Na18  1  0.86222225  0.13935971  0.25815209  1
  Na  Na19  1  0.86284537  0.12852395  0.57608815  1
  Na  Na20  1  0.86441150  0.12421164  0.91522681  1
  Na  Na21  1  0.86782304  0.63628337  0.24837294  1
  Na  Na22  1  0.85987144  0.63160848  0.58064117  1
  Na  Na23  1  0.87487540  0.64672079  0.92158891  1
  Na  Na24  1  0.95290424  -0.00231569  0.06856467  1
  Na  Na25  1  0.99342313  0.52200636  0.06187853  1
  Na  Na26  1  0.97968178  0.53495581  0.80486411  1
  Na  Na27  1  0.49383991  0.05972682  0.10070445  1
  Na  Na28  1  0.98165216  0.01302454  0.42120480  1
  Na  Na29  1  0.51702989  0.49269573  0.39255890  1
  Na  Na30  1  0.99064106  0.50735420  0.42086993  1
  Na  Na31  1  0.51256163  0.46319008  0.13488522  1
  Na  Na32  1  0.49896267  0.51474506  0.75179330  1
  Na  Na33  1  0.00848647  0.94946814  0.23373816  1
  Na  Na34  1  0.50301946  0.49454061  0.92454522  1
  Na  Na35  1  0.01122088  0.49280402  0.24432618  1
  Na  Na36  1  -0.00606755  0.49183310  0.59831276  1
  Na  Na37  1  0.00185053  0.98469660  0.90633064  1
  Na  Na38  1  0.01488737  0.97987599  0.61042077  1
  Na  Na39  1  0.51380158  1.00441188  0.89256818  1
  Na  Na40  1  0.54885033  0.49470244  0.59451448  1
  Na  Na41  1  0.56134407  1.00509775  0.27951965  1
  Na  Na42  1  0.26764485  0.26511432  -0.01505442  1
  Na  Na43  1  0.75889454  0.75871156  0.32877036  1
  Na  Na44  1  0.76999378  0.77281190  -0.00637998  1
  Na  Na45  1  0.74371064  0.24465734  0.00655887  1
  Na  Na46  1  0.25119067  0.24995119  0.32906548  1
  Na  Na47  1  0.74392757  0.74324693  0.66964385  1
  Na  Na48  1  0.25588698  0.75294456  0.33140470  1
  Na  Na49  1  0.24739423  0.74988142  -0.01164383  1
  Na  Na50  1  0.24322312  0.23841726  0.68605380  1
  Na  Na51  1  0.75021640  0.25080431  0.66367663  1
  Na  Na52  1  0.76123413  0.76051426  0.15674504  1
  Na  Na53  1  0.26814367  0.26096500  0.15559278  1
  Na  Na54  1  0.24920232  0.75211137  0.16091422  1
  Na  Na55  1  0.25412028  0.75840259  0.51143908  1
  Na  Na56  1  0.74278267  0.24191927  0.48802854  1
  Na  Na57  1  0.74576098  0.74774227  0.49617024  1
  Na  Na58  1  0.75055694  0.24770181  0.83470021  1
  Na  Na59  1  0.74938943  0.75256031  0.82916163  1
  Na  Na60  1  0.72305011  0.23732355  0.18832640  1
  Na  Na61  1  0.24842012  0.24408889  0.51070230  1
  Fe  Fe62  1  0.96282468  0.30764601  0.45070441  1
  Fe  Fe63  1  0.46553440  0.80877074  0.12082432  1
  Fe  Fe64  1  0.46405791  0.30901864  0.78148140  1
  Fe  Fe65  1  0.96895604  0.79560383  0.78863216  1
  Fe  Fe66  1  0.45792125  0.81004062  0.77960252  1
  Fe  Fe67  1  0.46360129  0.81567510  0.45986738  1
  Fe  Fe68  1  0.96618287  0.30788781  0.78882240  1
  Fe  Fe69  1  0.96326468  0.30609996  0.11720072  1
  Fe  Fe70  1  0.46287998  0.30860234  0.45127415  1
  Fe  Fe71  1  0.96941093  0.80316819  0.45707411  1
  Fe  Fe72  1  0.19185820  0.03222561  0.38199875  1
  Fe  Fe73  1  0.69110502  0.03363570  0.70876169  1
  Fe  Fe74  1  0.69358866  0.53844061  0.04723355  1
  Fe  Fe75  1  0.18960002  0.03165007  0.04733304  1
  Fe  Fe76  1  0.19269870  0.54009692  0.71875267  1
  Fe  Fe77  1  0.19306252  0.53620021  0.38380116  1
  Fe  Fe78  1  0.20387152  0.03392079  0.71658178  1
  Fe  Fe79  1  0.69394229  0.53352089  0.37635705  1
  Fe  Fe80  1  0.69786749  0.03238845  0.04086043  1
  Fe  Fe81  1  0.19041194  0.53273724  0.04185574  1
  Fe  Fe82  1  0.03390145  0.18883333  0.21259187  1
  Fe  Fe83  1  0.03912846  0.69271165  0.55847171  1
  Fe  Fe84  1  0.53089822  0.69731037  0.88189074  1
  Fe  Fe85  1  0.53317331  0.19555379  0.87462125  1
  Fe  Fe86  1  0.53411506  0.69170384  0.54689933  1
  Fe  Fe87  1  0.03291447  0.69987250  0.21086853  1
  Fe  Fe88  1  0.03918974  0.18602602  0.87862986  1
  Fe  Fe89  1  0.53697148  0.17916007  0.53801507  1
  Fe  Fe90  1  0.03432502  0.19850396  0.55205734  1
  Fe  Fe91  1  0.53375558  0.69030861  0.21275872  1
  Fe  Fe92  1  0.30369288  0.46724976  0.28532406  1
  Fe  Fe93  1  0.80746136  0.46349877  0.28194922  1
  Fe  Fe94  1  0.80415097  0.47036756  0.94914005  1
  Fe  Fe95  1  0.31031490  0.46128997  0.95202841  1
  Fe  Fe96  1  0.79765997  0.46680734  0.62029188  1
  Fe  Fe97  1  0.81153495  0.96377059  0.62163702  1
  Fe  Fe98  1  0.31304698  0.96500900  0.29312371  1
  Fe  Fe99  1  0.30741261  0.46789578  0.61953273  1
  Fe  Fe100  1  0.80327956  0.96693986  0.29051846  1
  Fe  Fe101  1  0.30702172  0.96574059  0.95029934  1
  S  S102  1  0.35167346  0.13967445  0.08462799  1
  S  S103  1  0.35381465  0.14262822  0.41984269  1
  S  S104  1  0.36161148  0.14333747  0.75002468  1
  S  S105  1  0.36084861  0.63864560  0.08263814  1
  S  S106  1  0.35877450  0.64139018  0.41684871  1
  S  S107  1  0.35902985  0.64165398  0.75004277  1
  S  S108  1  0.85839686  0.14539728  0.08747891  1
  S  S109  1  0.86313793  0.14023527  0.41760743  1
  S  S110  1  0.86341172  0.14009685  0.75134028  1
  S  S111  1  0.85953521  0.64269557  0.08390521  1
  S  S112  1  0.86382205  0.63615236  0.41539911  1
  S  S113  1  0.85137968  0.64080682  0.74212817  1
  S  S114  1  0.13755503  0.35976341  0.24906270  1
  S  S115  1  0.13784551  0.36448245  0.58380106  1
  S  S116  1  0.14001728  0.35585190  0.91674590  1
  S  S117  1  0.14577013  0.85769297  0.25314910  1
  S  S118  1  0.14010706  0.86021501  0.58737507  1
  S  S119  1  0.13787525  0.86263987  0.91470685  1
  S  S120  1  0.63872688  0.36553170  0.24532132  1
  S  S121  1  0.63971675  0.35385908  0.57826367  1
  S  S122  1  0.63964957  0.36433041  0.91480029  1
  S  S123  1  0.64271306  0.85225443  0.25001436  1
  S  S124  1  0.64319013  0.85709566  0.58141905  1
  S  S125  1  0.63469763  0.86070895  0.91487645  1
  S  S126  1  0.06594631  0.16898580  0.04401997  1
  S  S127  1  0.06941354  0.17199273  0.37753495  1
  S  S128  1  0.06860804  0.17090006  0.71013251  1
  S  S129  1  0.06788398  0.66385633  0.04052607  1
  S  S130  1  0.06861317  0.66944451  0.37561806  1
  S  S131  1  0.06142470  0.66204441  0.70540953  1
  S  S132  1  0.57367920  0.16651213  0.03659110  1
  S  S133  1  0.55433930  0.16352747  0.38038359  1
  S  S134  1  0.57418505  0.17843955  0.70991829  1
  S  S135  1  0.56629574  0.67039978  0.04319530  1
  S  S136  1  0.56743515  0.67167167  0.37552981  1
  S  S137  1  0.56118085  0.67168244  0.70986964  1
  S  S138  1  0.32081376  0.43104101  0.11883751  1
  S  S139  1  0.32813772  0.43493514  0.45811454  1
  S  S140  1  0.33286231  0.43661050  0.78977706  1
  S  S141  1  0.32478878  0.92681854  0.12524598  1
  S  S142  1  0.32534259  0.93198754  0.45607803  1
  S  S143  1  0.33502177  0.93847499  0.79726620  1
  S  S144  1  0.83217801  0.43503975  0.12228735  1
  S  S145  1  0.82873955  0.43045069  0.45690242  1
  S  S146  1  0.83353060  0.43172485  0.79167866  1
  S  S147  1  0.82704328  0.93723401  0.12651182  1
  S  S148  1  0.84103493  0.92918767  0.46309229  1
  S  S149  1  0.83399244  0.92631876  0.78748178  1
  S  S150  1  0.42302531  0.33288591  0.29160591  1
  S  S151  1  0.43416975  0.33865329  0.62485384  1
  S  S152  1  0.44099562  0.33713411  0.95728858  1
  S  S153  1  0.43157290  0.82410769  0.28917181  1
  S  S154  1  0.43738711  0.82989565  0.62083315  1
  S  S155  1  0.42888721  0.83128358  0.96121671  1
  S  S156  1  0.93491469  0.33517192  0.29068437  1
  S  S157  1  0.92873118  0.32971821  0.62384665  1
  S  S158  1  0.92967955  0.33064446  0.95752291  1
  S  S159  1  0.93629217  0.83125536  0.29556388  1
  S  S160  1  0.92870617  0.82002045  0.62326626  1
  S  S161  1  0.93463222  0.83306382  0.95033783  1
  S  S162  1  0.16144429  0.06218091  0.20767576  1
  S  S163  1  0.16426072  0.07197549  0.54403085  1
  S  S164  1  0.17375724  0.06938037  0.87805528  1
  S  S165  1  0.16537831  0.56488177  0.20769612  1
  S  S166  1  0.16786471  0.56660028  0.54046630  1
  S  S167  1  0.17605378  0.56183753  0.87847167  1
  S  S168  1  0.67173912  0.06204471  0.20703724  1
  S  S169  1  0.67738759  0.06498452  0.54610726  1
  S  S170  1  0.67359372  0.07252429  0.87414129  1
  S  S171  1  0.67539443  0.57126814  0.20968762  1
  S  S172  1  0.66646933  0.56354021  0.53575027  1
  S  S173  1  0.66844505  0.57163739  0.87726952  1
  O  O174  1  0.34979404  0.21374329  0.06854702  1
  O  O175  1  0.36045591  0.22331845  0.41503540  1
  O  O176  1  0.37169326  0.22409672  0.74251347  1
  O  O177  1  0.37024324  0.71900556  0.07731462  1
  O  O178  1  0.36870799  0.72135289  0.41176207  1
  O  O179  1  0.36714418  0.71929580  0.74158294  1
  O  O180  1  0.86627721  0.22666336  0.08279027  1
  O  O181  1  0.87620604  0.21727119  0.40630584  1
  O  O182  1  0.87015316  0.21950589  0.74252301  1
  O  O183  1  0.86367532  0.71950957  0.07489171  1
  O  O184  1  0.87263118  0.71422549  0.40552387  1
  O  O185  1  0.87441086  0.71786207  0.73145407  1
  O  O186  1  0.27310677  0.12295518  0.09411107  1
  O  O187  1  0.27477259  0.13086318  0.42788057  1
  O  O188  1  0.28085087  0.13664337  0.75538024  1
  O  O189  1  0.28277610  0.63025842  0.09266622  1
  O  O190  1  0.27934971  0.63217614  0.42486819  1
  O  O191  1  0.28253085  0.62945355  0.76041120  1
  O  O192  1  0.77725869  0.13412450  0.09073753  1
  O  O193  1  0.78757272  0.13133694  0.42717158  1
  O  O194  1  0.78479710  0.12918875  0.75944100  1
  O  O195  1  0.78250108  0.62856235  0.09571616  1
  O  O196  1  0.78537009  0.62859415  0.42496844  1
  O  O197  1  0.77016944  0.64323347  0.74019617  1
  O  O198  1  0.12792656  0.28154643  0.25832725  1
  O  O199  1  0.13095162  0.28665172  0.59484180  1
  O  O200  1  0.12797863  0.27810374  0.92739706  1
  O  O201  1  0.13465240  0.77857142  0.26129113  1
  O  O202  1  0.12775734  0.78083578  0.59384416  1
  O  O203  1  0.13370611  0.79133803  0.93340233  1
  O  O204  1  0.62998872  0.28872546  0.25342390  1
  O  O205  1  0.63096009  0.27235528  0.58102506  1
  O  O206  1  0.63198700  0.28519822  0.92271288  1
  O  O207  1  0.63214879  0.77094015  0.25348885  1
  O  O208  1  0.63583170  0.77632977  0.58694708  1
  O  O209  1  0.62097221  0.78452033  0.92841990  1
  O  O210  1  0.21583324  0.36848936  0.24057947  1
  O  O211  1  0.21527822  0.37329132  0.57272624  1
  O  O212  1  0.22060835  0.36282841  0.91262788  1
  O  O213  1  0.22841780  0.86541420  0.25300530  1
  O  O214  1  0.21336867  0.86962283  0.57338993  1
  O  O215  1  0.21502698  0.87770639  0.90593809  1
  O  O216  1  0.72124057  0.37649925  0.24075589  1
  O  O217  1  0.72069996  0.36411030  0.57337529  1
  O  O218  1  0.71769973  0.37346494  0.90470598  1
  O  O219  1  0.72378647  0.86029959  0.24547451  1
  O  O220  1  0.72029640  0.86682141  0.56968077  1
  O  O221  1  0.70997751  0.86261027  0.90230193  1
  O  O222  1  0.41206106  0.13926577  0.15316069  1
  O  O223  1  0.41335400  0.13418464  0.48687679  1
  O  O224  1  0.41803740  0.14121260  0.82269608  1
  O  O225  1  0.42058785  0.62875764  0.14972427  1
  O  O226  1  0.41741204  0.62954426  0.48261031  1
  O  O227  1  0.42101735  0.63174759  0.81673877  1
  O  O228  1  0.91422419  0.13987652  0.15897501  1
  O  O229  1  0.92577175  0.13324896  0.48574040  1
  O  O230  1  0.92219659  0.13621658  0.82135059  1
  O  O231  1  0.92028697  0.63549328  0.15219026  1
  O  O232  1  0.92375188  0.62703137  0.48205020  1
  O  O233  1  0.90304966  0.63183628  0.81139985  1
  O  O234  1  0.36438412  0.07709101  0.01952321  1
  O  O235  1  0.35846032  0.08602470  0.34916641  1
  O  O236  1  0.37217329  0.08488174  0.68632172  1
  O  O237  1  0.36778195  0.58133921  0.01367423  1
  O  O238  1  0.36349099  0.58413554  0.34627756  1
  O  O239  1  0.36773799  0.58195321  0.68192914  1
  O  O240  1  0.87232919  0.08922501  0.02304065  1
  O  O241  1  0.87355725  0.07843348  0.35155066  1
  O  O242  1  0.87354918  0.08166558  0.68461544  1
  O  O243  1  0.86898574  0.58136649  0.01705220  1
  O  O244  1  0.87105015  0.57601535  0.34721588  1
  O  O245  1  0.86134444  0.57866091  0.67569821  1
  O  O246  1  0.07785472  0.36815025  0.18121057  1
  O  O247  1  0.07672667  0.36990238  0.51551726  1
  O  O248  1  0.08368109  0.36067251  0.84590303  1
  O  O249  1  0.09198636  0.86582763  0.18455778  1
  O  O250  1  0.07484710  0.87081218  0.52275083  1
  O  O251  1  0.07766266  0.85987737  0.84069611  1
  O  O252  1  0.58469279  0.37647657  0.17813956  1
  O  O253  1  0.58296243  0.36546292  0.51024566  1
  O  O254  1  0.57915133  0.37389092  0.84851986  1
  O  O255  1  0.58585658  0.86111254  0.18067914  1
  O  O256  1  0.58216107  0.86562684  0.51524259  1
  O  O257  1  0.57184483  0.87121329  0.85001324  1
  O  O258  1  0.12922836  0.42020143  0.31661816  1
  O  O259  1  0.12974818  0.42516595  0.65071691  1
  O  O260  1  0.12865780  0.41606328  0.98202912  1
  O  O261  1  0.13296513  0.91620858  0.32030089  1
  O  O262  1  0.13392319  0.91918085  0.65723424  1
  O  O263  1  0.12077614  0.92912753  0.97387693  1
  O  O264  1  0.63098277  0.42604466  0.31453793  1
  O  O265  1  0.63041921  0.40993429  0.64571740  1
  O  O266  1  0.63356098  0.42342003  0.98391914  1
  O  O267  1  0.63353246  0.90901616  0.31667679  1
  O  O268  1  0.63897867  0.91397654  0.65186211  1
  O  O269  1  0.63212160  0.92327365  0.98387022  1
  O  O270  1  0.02646044  0.19857433  0.10362884  1
  O  O271  1  0.03596483  0.20522191  0.44008491  1
  O  O272  1  0.03179903  0.19960839  0.77131145  1
  O  O273  1  0.03826032  0.68702227  0.10595949  1
  O  O274  1  0.03312077  0.69833924  0.43712372  1
  O  O275  1  0.02889079  0.69686366  0.76704278  1
  O  O276  1  0.54018216  0.17901252  0.09645973  1
  O  O277  1  0.51780680  0.20656094  0.44167782  1
  O  O278  1  0.53486308  0.20824635  0.76917582  1
  O  O279  1  0.52972253  0.69940503  0.10395994  1
  O  O280  1  0.52993328  0.69909735  0.43545883  1
  O  O281  1  0.52460005  0.70878787  0.77002782  1
  O  O282  1  0.29025596  0.47170662  0.06005409  1
  O  O283  1  0.29649718  0.47116208  0.39685947  1
  O  O284  1  0.30008114  0.47045136  0.72704504  1
  O  O285  1  0.29396113  0.96180588  0.06364580  1
  O  O286  1  0.29499382  0.96966555  0.39366142  1
  O  O287  1  0.30202778  0.97279380  0.73723879  1
  O  O288  1  0.80209156  0.46981738  0.06051961  1
  O  O289  1  0.80145690  0.46741298  0.39592743  1
  O  O290  1  0.80904269  0.46443803  0.72953731  1
  O  O291  1  0.79553040  0.97601970  0.06811329  1
  O  O292  1  0.81978739  0.96287876  0.40167662  1
  O  O293  1  0.80558209  0.95717604  0.72178001  1
  O  O294  1  0.45087184  0.31216961  0.22838427  1
  O  O295  1  0.46795999  0.30883020  0.56308152  1
  O  O296  1  0.47166573  0.30440245  0.89175864  1
  O  O297  1  0.47133648  0.79607273  0.22983008  1
  O  O298  1  0.47688224  0.79189929  0.56077146  1
  O  O299  1  0.46076880  0.79936040  0.89730329  1
  O  O300  1  0.97224681  0.30419121  0.23102017  1
  O  O301  1  0.96785815  0.30193593  0.56405324  1
  O  O302  1  0.96610191  0.30224912  0.89706597  1
  O  O303  1  0.97370518  0.80506249  0.23668664  1
  O  O304  1  0.96629432  0.78899567  0.56281921  1
  O  O305  1  0.96570040  0.79622765  0.88543358  1
  O  O306  1  0.19122242  0.02684398  0.26934039  1
  O  O307  1  0.18311791  0.03633863  0.60383264  1
  O  O308  1  0.20500630  0.03416979  0.93969527  1
  O  O309  1  0.19621355  0.53002873  0.27040450  1
  O  O310  1  0.20022968  0.53414316  0.60365203  1
  O  O311  1  0.21066902  0.52140618  0.93690793  1
  O  O312  1  0.70157036  0.01683863  0.25997922  1
  O  O313  1  0.71072392  0.03073294  0.61082466  1
  O  O314  1  0.69780873  0.03568170  0.93363381  1
  O  O315  1  0.70768685  0.53722565  0.27198338  1
  O  O316  1  0.69244009  0.52571889  0.59411216  1
  O  O317  1  0.70258256  0.53961719  0.94271557  1
  O  O318  1  0.08146430  0.08692157  0.03835816  1
  O  O319  1  0.08317770  0.08936125  0.37118752  1
  O  O320  1  0.09261002  0.09217154  0.70757463  1
  O  O321  1  0.09114588  0.58168027  0.03475078  1
  O  O322  1  0.08186289  0.58510301  0.36806373  1
  O  O323  1  0.08249894  0.58221791  0.70798722  1
  O  O324  1  0.59564256  0.08333736  0.01602829  1
  O  O325  1  0.57059644  0.08848276  0.39244430  1
  O  O326  1  0.59679774  0.10054873  0.70946013  1
  O  O327  1  0.58566443  0.58895058  0.03858139  1
  O  O328  1  0.59044309  0.59210837  0.37285031  1
  O  O329  1  0.57335156  0.59146564  0.71019974  1
  O  O330  1  0.39644760  0.40765629  0.11671493  1
  O  O331  1  0.40994879  0.41875985  0.46505315  1
  O  O332  1  0.41546308  0.42115502  0.79348998  1
  O  O333  1  0.40649254  0.90977242  0.13105633  1
  O  O334  1  0.40318924  0.90869188  0.45256336  1
  O  O335  1  0.41557347  0.91769817  0.79689629  1
  O  O336  1  0.91431558  0.41714294  0.12811378  1
  O  O337  1  0.91378974  0.41807750  0.46566345  1
  O  O338  1  0.91692255  0.41472433  0.80383377  1
  O  O339  1  0.90644258  0.92014869  0.12669338  1
  O  O340  1  0.92560623  0.91391409  0.47846674  1
  O  O341  1  0.91148353  0.89464260  0.78748989  1
  O  O342  1  0.40294480  0.41691381  0.30917892  1
  O  O343  1  0.41851284  0.42225736  0.63223070  1
  O  O344  1  0.41381651  0.41538079  0.95272289  1
  O  O345  1  0.41057827  0.90327291  0.29105377  1
  O  O346  1  0.42001527  0.90565705  0.61595249  1
  O  O347  1  0.41338773  0.91344508  0.96801519  1
  O  O348  1  0.92052370  0.41865582  0.29492015  1
  O  O349  1  0.90899628  0.41026310  0.62724592  1
  O  O350  1  0.90933545  0.41168497  0.96397476  1
  O  O351  1  0.91673172  0.91314745  0.30114195  1
  O  O352  1  0.91726687  0.90285492  0.63011766  1
  O  O353  1  0.92124768  0.91383784  0.95119030  1
  O  O354  1  0.07804918  0.07763361  0.20093645  1
  O  O355  1  0.08134048  0.09237482  0.52982938  1
  O  O356  1  0.09086366  0.08279271  0.87410797  1
  O  O357  1  0.08340745  0.58179047  0.20373449  1
  O  O358  1  0.08554361  0.58291664  0.53682707  1
  O  O359  1  0.09849091  0.57884472  0.87994544  1
  O  O360  1  0.59204956  0.07648076  0.20739364  1
  O  O361  1  0.59949645  0.08714788  0.54992828  1
  O  O362  1  0.59154681  0.09194165  0.86316356  1
  O  O363  1  0.59395407  0.58757927  0.20547701  1
  O  O364  1  0.58385844  0.58252689  0.53021641  1
  O  O365  1  0.58721988  0.59116400  0.87766087  1
  O  O366  1  0.13718651  0.22155700  0.06352835  1
  O  O367  1  0.14240508  0.22157424  0.39269895  1
  O  O368  1  0.13448556  0.22761468  0.72295377  1
  O  O369  1  0.13878745  0.71676377  0.05610326  1
  O  O370  1  0.14202349  0.71809318  0.39302572  1
  O  O371  1  0.12789687  0.71110462  0.70838756  1
  O  O372  1  0.64414391  0.22268304  0.05700911  1
  O  O373  1  0.62656178  0.21312208  0.39451329  1
  O  O374  1  0.64340909  0.23462554  0.72730734  1
  O  O375  1  0.63654040  0.72281736  0.05837261  1
  O  O376  1  0.63666309  0.72635164  0.39062713  1
  O  O377  1  0.63314676  0.72169662  0.72414321  1
  O  O378  1  0.26326565  0.36300615  0.10145659  1
  O  O379  1  0.27641342  0.36306340  0.44147372  1
  O  O380  1  0.28293874  0.36557534  0.77621990  1
  O  O381  1  0.27314924  0.85486775  0.10917192  1
  O  O382  1  0.27084540  0.86063513  0.43657086  1
  O  O383  1  0.28659234  0.86972369  0.79081778  1
  O  O384  1  0.78043927  0.36482059  0.10804023  1
  O  O385  1  0.78074084  0.35767546  0.44005893  1
  O  O386  1  0.78227855  0.35985194  0.77661629  1
  O  O387  1  0.77425042  0.86497486  0.10846229  1
  O  O388  1  0.78988683  0.85667749  0.44529587  1
  O  O389  1  0.77574519  0.86143101  0.77599846  1
  O  O390  1  0.35296119  0.28042806  0.28147587  1
  O  O391  1  0.36232382  0.28975008  0.61205527  1
  O  O392  1  0.37527375  0.28378950  0.94958261  1
  O  O393  1  0.36165806  0.76801006  0.26967867  1
  O  O394  1  0.36858149  0.77436360  0.60553383  1
  O  O395  1  0.35892545  0.78109815  0.95058347  1
  O  O396  1  0.86310371  0.28638813  0.27584710  1
  O  O397  1  0.85882915  0.27528503  0.60580481  1
  O  O398  1  0.86013016  0.27697750  0.94302703  1
  O  O399  1  0.86458209  0.77817322  0.27773329  1
  O  O400  1  0.85407239  0.77154931  0.60263145  1
  O  O401  1  0.86013625  0.78396360  0.93398606  1
  O  O402  1  0.21102122  0.13525534  0.22467664  1
  O  O403  1  0.21875988  0.14262052  0.56291718  1
  O  O404  1  0.22210971  0.14234970  0.89380616  1
  O  O405  1  0.21704510  0.63604577  0.22317964  1
  O  O406  1  0.21702360  0.63575860  0.54893418  1
  O  O407  1  0.22906345  0.63206301  0.89486266  1
  O  O408  1  0.72514259  0.13332652  0.22814009  1
  O  O409  1  0.73082783  0.13619018  0.56294766  1
  O  O410  1  0.72708895  0.14434788  0.89315666  1
  O  O411  1  0.72684571  0.64193249  0.22366665  1
  O  O412  1  0.71831031  0.63519222  0.55180398  1
  O  O413  1  0.71921989  0.64274354  0.89060542  1
  O  O414  1  0.50580278  0.35279943  0.02723041  1
  O  O415  1  0.48643593  0.33438530  0.36352694  1
  O  O416  1  0.49458320  0.34093257  0.69725364  1
  O  O417  1  0.49192483  0.83256852  0.03221264  1
  O  O418  1  0.48868701  0.82671692  0.36238826  1
  O  O419  1  0.49563112  0.83257845  0.69479090  1
  O  O420  1  0.99023473  0.33350428  0.03005831  1
  O  O421  1  0.99363765  0.34010287  0.36493577  1
  O  O422  1  0.98788352  0.33212313  0.69638870  1
  O  O423  1  0.99173036  0.83260075  0.02044365  1
  O  O424  1  0.99344524  0.83434410  0.36979938  1
  O  O425  1  0.98562620  0.81445598  0.69371791  1
  O  O426  1  0.16124288  0.00371454  0.13577430  1
  O  O427  1  0.16470027  0.01243603  0.47202965  1
  O  O428  1  0.17364695  0.01096889  0.80629673  1
  O  O429  1  0.16252714  0.50490952  0.13594556  1
  O  O430  1  0.16059771  0.50345759  0.46763243  1
  O  O431  1  0.17336129  0.50395827  0.80419623  1
  O  O432  1  0.66647222  0.01109568  0.12817887  1
  O  O433  1  0.67375612  0.00525019  0.47682812  1
  O  O434  1  0.67662647  0.01414915  0.80283430  1
  O  O435  1  0.67218046  0.51036170  0.13761510  1
  O  O436  1  0.66154071  0.50576692  0.46127892  1
  O  O437  1  0.66115364  0.50914442  0.80785961  1
  O  O438  1  0.01007107  0.17350669  0.30644792  1
  O  O439  1  0.00620392  0.16442712  0.63744516  1
  O  O440  1  0.00854369  0.16825113  0.97103715  1
  O  O441  1  0.01060825  0.66957531  0.30332868  1
  O  O442  1  -0.00236138  0.64688049  0.63038393  1
  O  O443  1  0.00639256  0.65946956  0.97177715  1
  O  O444  1  0.49705599  0.15532378  0.30745635  1
  O  O445  1  0.51527575  0.17493931  0.63691917  1
  O  O446  1  0.51430251  0.17128909  0.96594313  1
  O  O447  1  0.50809562  0.66566395  0.30190809  1
  O  O448  1  0.50450902  0.66702216  0.63463737  1
  O  O449  1  0.50558768  0.66587527  0.97063494  1
  O  O450  1  0.32547699  0.48936501  0.19321447  1
  O  O451  1  0.32723240  0.49442271  0.52942245  1
  O  O452  1  0.33718101  0.49699682  0.86202109  1
  O  O453  1  0.32558489  0.98615362  0.19753375  1
  O  O454  1  0.32864478  0.98958777  0.52618453  1
  O  O455  1  0.34734632  1.00093197  0.87243836  1
  O  O456  1  0.83625987  0.49553847  0.19498089  1
  O  O457  1  0.82882728  0.48966418  0.52896660  1
  O  O458  1  0.83107770  0.49284916  0.86189564  1
  O  O459  1  0.83120681  0.99218998  0.20193931  1
  O  O460  1  0.83797930  0.98841895  0.53403430  1
  O  O461  1  0.84716672  0.99196431  0.85599140  1
