# generated using pymatgen
data_Na31Fe20(SO4)36
_symmetry_space_group_name_H-M   'P 1'
_cell_length_a   18.08455459
_cell_length_b   18.08052507
_cell_length_c   19.72472933
_cell_angle_alpha   107.60111835
_cell_angle_beta   107.57637672
_cell_angle_gamma   90.73094605
_symmetry_Int_Tables_number   1
_chemical_formula_structural   Na31Fe20(SO4)36
_chemical_formula_sum   'Na62 Fe40 S72 O288'
_cell_volume   5822.05589376
_cell_formula_units_Z   2
loop_
 _symmetry_equiv_pos_site_id
 _symmetry_equiv_pos_as_xyz
  1  'x, y, z'
loop_
 _atom_site_type_symbol
 _atom_site_label
 _atom_site_symmetry_multiplicity
 _atom_site_fract_x
 _atom_site_fract_y
 _atom_site_fract_z
 _atom_site_occupancy
  Na  Na0  1  0.12688199  0.37263432  0.08212805  1
  Na  Na1  1  0.13920708  0.36276120  0.42397463  1
  Na  Na2  1  0.13223401  0.35977820  0.73618246  1
  Na  Na3  1  0.13161519  0.86331328  0.08185018  1
  Na  Na4  1  0.13758266  0.87284489  0.42610745  1
  Na  Na5  1  0.13411664  0.85779695  0.74550701  1
  Na  Na6  1  0.64213926  0.36758410  0.09150830  1
  Na  Na7  1  0.62951215  0.36840003  0.41895205  1
  Na  Na8  1  0.64313667  0.36727385  0.76212892  1
  Na  Na9  1  0.63517407  0.86185192  0.07795647  1
  Na  Na10  1  0.63511470  0.85183252  0.40908241  1
  Na  Na11  1  0.63009716  0.87143019  0.74229109  1
  Na  Na12  1  0.36710086  0.13664848  0.25323469  1
  Na  Na13  1  0.36289539  0.12593523  0.58195431  1
  Na  Na14  1  0.36987250  0.12383449  0.91548834  1
  Na  Na15  1  0.37650526  0.63667093  0.25992585  1
  Na  Na16  1  0.37763243  0.63935949  0.58821488  1
  Na  Na17  1  0.35872786  0.62372340  0.90150413  1
  Na  Na18  1  0.85753397  0.13495637  0.23988594  1
  Na  Na19  1  0.87245480  0.14040683  0.58602050  1
  Na  Na20  1  0.85639028  0.12789540  0.90442262  1
  Na  Na21  1  0.85848755  0.65151881  0.25556281  1
  Na  Na22  1  0.86696516  0.63201533  0.58615821  1
  Na  Na23  1  0.85964489  0.65575041  0.93964462  1
  Na  Na24  1  0.49423591  0.51636315  0.72295541  1
  Na  Na25  1  0.99968287  0.50366307  0.75970889  1
  Na  Na26  1  0.99099165  0.00983179  0.74557654  1
  Na  Na27  1  0.49741389  0.56129538  0.44575157  1
  Na  Na28  1  0.98374590  0.00379000  0.08465584  1
  Na  Na29  1  0.99396805  0.50971524  0.40959197  1
  Na  Na30  1  0.99116580  0.04885723  0.42129550  1
  Na  Na31  1  0.48105880  0.01234892  0.74556610  1
  Na  Na32  1  0.48550722  0.49975037  0.10111891  1
  Na  Na33  1  0.02379548  1.00406810  0.57901445  1
  Na  Na34  1  0.49595243  0.92658395  0.54893858  1
  Na  Na35  1  -0.04400100  0.51644706  0.96825148  1
  Na  Na36  1  -0.01267805  0.53132584  0.21578803  1
  Na  Na37  1  0.01069487  0.98896889  0.91804612  1
  Na  Na38  1  0.00917723  0.95161517  0.23716020  1
  Na  Na39  1  0.03974879  0.49057765  0.59264687  1
  Na  Na40  1  0.51344624  0.98594511  0.25079396  1
  Na  Na41  1  0.52522395  0.49373158  0.91267931  1
  Na  Na42  1  0.26308343  0.76089294  0.65618335  1
  Na  Na43  1  0.25275436  0.25445081  0.64885199  1
  Na  Na44  1  0.25014583  0.74456418  -0.00513968  1
  Na  Na45  1  0.27396382  0.77044982  0.33192983  1
  Na  Na46  1  0.25502919  0.25143746  -0.00279281  1
  Na  Na47  1  0.74415247  0.24044667  0.67554793  1
  Na  Na48  1  0.73344243  0.74073394  0.66785224  1
  Na  Na49  1  0.75775272  0.25702937  0.32249276  1
  Na  Na50  1  0.73880248  0.24084597  0.01359112  1
  Na  Na51  1  0.24099047  0.24156775  0.34502907  1
  Na  Na52  1  0.74156045  0.23860654  0.84037043  1
  Na  Na53  1  0.73789398  0.74054476  0.49861290  1
  Na  Na54  1  0.75064395  0.24951054  0.49927385  1
  Na  Na55  1  0.25477425  0.25531883  0.82422440  1
  Na  Na56  1  0.25337682  0.75168405  0.16518783  1
  Na  Na57  1  0.24856406  0.74239406  0.82582000  1
  Na  Na58  1  0.27757562  0.77704656  0.49747852  1
  Na  Na59  1  0.74088025  0.74370363  0.84616715  1
  Na  Na60  1  0.24697770  0.25060894  0.16951270  1
  Na  Na61  1  0.76814919  0.76127860  0.15077104  1
  Fe  Fe62  1  0.96028093  0.80983208  0.78346135  1
  Fe  Fe63  1  0.95838299  0.81048614  0.45320531  1
  Fe  Fe64  1  0.97177436  0.29995754  0.45489483  1
  Fe  Fe65  1  0.96344299  0.30757391  0.11693530  1
  Fe  Fe66  1  0.46051284  0.31703463  0.45955964  1
  Fe  Fe67  1  0.46292836  0.30629642  0.78375190  1
  Fe  Fe68  1  0.46612880  0.31030264  0.12696572  1
  Fe  Fe69  1  0.46816730  0.80607387  0.78532246  1
  Fe  Fe70  1  0.96693117  0.30872103  0.78767529  1
  Fe  Fe71  1  0.46913670  0.80160130  0.11759493  1
  Fe  Fe72  1  0.18503230  0.53631655  0.37690840  1
  Fe  Fe73  1  0.70579664  0.53062516  0.04749639  1
  Fe  Fe74  1  0.69458424  0.53123440  0.71353637  1
  Fe  Fe75  1  0.19395539  0.03916322  0.38475260  1
  Fe  Fe76  1  0.18726603  0.53726013  0.04455394  1
  Fe  Fe77  1  0.20076578  0.02871615  0.71172041  1
  Fe  Fe78  1  0.69333974  0.03433593  0.38015381  1
  Fe  Fe79  1  0.19704449  0.03388567  0.05050291  1
  Fe  Fe80  1  0.68658228  0.03788825  0.04647071  1
  Fe  Fe81  1  0.69185946  0.53199068  0.37802034  1
  Fe  Fe82  1  0.03072943  0.69822542  0.88373815  1
  Fe  Fe83  1  0.03900435  0.18930346  0.88124061  1
  Fe  Fe84  1  0.53923157  0.69215991  0.88138298  1
  Fe  Fe85  1  0.03305586  0.70822585  0.21363588  1
  Fe  Fe86  1  0.03084205  0.69302560  0.54949080  1
  Fe  Fe87  1  0.53344101  0.19418441  0.88359547  1
  Fe  Fe88  1  0.54295998  0.68921734  0.21515008  1
  Fe  Fe89  1  0.03344807  0.19262359  0.21257261  1
  Fe  Fe90  1  0.53182301  0.19004165  0.54720623  1
  Fe  Fe91  1  0.53701509  0.18883456  0.21356382  1
  Fe  Fe92  1  0.80730447  0.46188043  0.28278643  1
  Fe  Fe93  1  0.79776475  0.97253135  0.62016928  1
  Fe  Fe94  1  0.32459266  0.96456360  0.29770364  1
  Fe  Fe95  1  0.81122599  0.46149008  0.62106442  1
  Fe  Fe96  1  0.31341190  0.96263543  0.95836148  1
  Fe  Fe97  1  0.30559687  0.46881741  0.28904582  1
  Fe  Fe98  1  0.80048127  0.96652276  0.94687996  1
  Fe  Fe99  1  0.29715761  0.46794215  0.61850416  1
  Fe  Fe100  1  0.80739524  0.96722595  0.28450178  1
  Fe  Fe101  1  0.30107245  0.46661492  0.95016312  1
  S  S102  1  0.35981160  0.14184087  0.08677967  1
  S  S103  1  0.35873838  0.14551536  0.41609961  1
  S  S104  1  0.35946994  0.14217058  0.75446149  1
  S  S105  1  0.35956734  0.63675181  0.08087820  1
  S  S106  1  0.34767703  0.64121625  0.41581642  1
  S  S107  1  0.36332570  0.63772708  0.74917827  1
  S  S108  1  0.85889924  0.13920843  0.07830117  1
  S  S109  1  0.85437076  0.14269520  0.41297045  1
  S  S110  1  0.86480881  0.13922310  0.74951939  1
  S  S111  1  0.86584806  0.64170509  0.09127589  1
  S  S112  1  0.86024744  0.63846935  0.41529314  1
  S  S113  1  0.85864693  0.64190794  0.75312124  1
  S  S114  1  0.13832657  0.36062495  0.24881666  1
  S  S115  1  0.14001422  0.35894951  0.58296130  1
  S  S116  1  0.14050845  0.35846961  0.91693638  1
  S  S117  1  0.14999577  0.86293514  0.25304514  1
  S  S118  1  0.13523428  0.85654548  0.58592245  1
  S  S119  1  0.14136616  0.86068088  0.91662725  1
  S  S120  1  0.64165345  0.35783920  0.25161593  1
  S  S121  1  0.63951043  0.35628832  0.58485466  1
  S  S122  1  0.63892978  0.35883500  0.91738554  1
  S  S123  1  0.64422407  0.85803376  0.24781367  1
  S  S124  1  0.64913358  0.85464354  0.57458606  1
  S  S125  1  0.63936394  0.86133830  0.91860420  1
  S  S126  1  0.06791229  0.16485595  0.04130699  1
  S  S127  1  0.06195507  0.16541315  0.36569484  1
  S  S128  1  0.06965497  0.16309468  0.71110968  1
  S  S129  1  0.06949747  0.67454099  0.04388436  1
  S  S130  1  0.06554904  0.67618460  0.37727599  1
  S  S131  1  0.05740237  0.66912574  0.71228873  1
  S  S132  1  0.56683298  0.17603834  0.04727876  1
  S  S133  1  0.56713972  0.17161015  0.37648087  1
  S  S134  1  0.56044950  0.16946230  0.71089631  1
  S  S135  1  0.57147730  0.66477541  0.04289151  1
  S  S136  1  0.56586291  0.65631578  0.36772534  1
  S  S137  1  0.57167803  0.67171665  0.71146595  1
  S  S138  1  0.32337983  0.43166493  0.12282176  1
  S  S139  1  0.32327000  0.43444793  0.45532174  1
  S  S140  1  0.33006807  0.42846748  0.79032663  1
  S  S141  1  0.33172438  0.92931741  0.12600369  1
  S  S142  1  0.33117975  0.93741226  0.45142418  1
  S  S143  1  0.32874674  0.92754291  0.79416098  1
  S  S144  1  0.83314331  0.43026071  0.12583899  1
  S  S145  1  0.83590271  0.43119086  0.45876379  1
  S  S146  1  0.83461747  0.43477482  0.79186420  1
  S  S147  1  0.82725112  0.94058689  0.12182078  1
  S  S148  1  0.82971186  0.93515739  0.45963914  1
  S  S149  1  0.83159000  0.93384807  0.78647822  1
  S  S150  1  0.42891668  0.33055613  0.29213096  1
  S  S151  1  0.43097969  0.33308666  0.62700194  1
  S  S152  1  0.42975865  0.33229480  0.96280911  1
  S  S153  1  0.44119590  0.82491155  0.28527283  1
  S  S154  1  0.43756315  0.83317067  0.62805700  1
  S  S155  1  0.42960882  0.82070245  0.95516799  1
  S  S156  1  0.93308758  0.32670490  0.29086428  1
  S  S157  1  0.93325143  0.33167196  0.62493246  1
  S  S158  1  0.93263691  0.31922365  0.95167443  1
  S  S159  1  0.93817894  0.84115861  0.29741061  1
  S  S160  1  0.92504242  0.83366420  0.62409070  1
  S  S161  1  0.93594232  0.84111687  0.95762655  1
  S  S162  1  0.16947570  0.06744197  0.20852724  1
  S  S163  1  0.16824972  0.06499836  0.54384592  1
  S  S164  1  0.17162639  0.06222143  0.87743285  1
  S  S165  1  0.17050091  0.57521510  0.20990658  1
  S  S166  1  0.16367161  0.56967652  0.53953199  1
  S  S167  1  0.16352161  0.56560191  0.87467245  1
  S  S168  1  0.66684264  0.06488151  0.20952654  1
  S  S169  1  0.67475189  0.07344711  0.54240766  1
  S  S170  1  0.66448102  0.06655737  0.87584587  1
  S  S171  1  0.67537366  0.56493120  0.20760761  1
  S  S172  1  0.67889020  0.56236151  0.54666350  1
  S  S173  1  0.66721087  0.56633589  0.87404031  1
  O  O174  1  0.36712651  0.22180383  0.08011926  1
  O  O175  1  0.37167167  0.22387171  0.40712454  1
  O  O176  1  0.36315042  0.22514336  0.75336329  1
  O  O177  1  0.36886846  0.71651744  0.07488852  1
  O  O178  1  0.35748869  0.71959271  0.41085278  1
  O  O179  1  0.37412776  0.71573905  0.73876790  1
  O  O180  1  0.87152276  0.21764377  0.07048433  1
  O  O181  1  0.86718786  0.22228374  0.40702516  1
  O  O182  1  0.88004540  0.21507200  0.73699992  1
  O  O183  1  0.87082482  0.72181471  0.08979676  1
  O  O184  1  0.86987107  0.71536123  0.40451355  1
  O  O185  1  0.86489255  0.71923694  0.74085752  1
  O  O186  1  0.28093108  0.13195511  0.09605201  1
  O  O187  1  0.27754915  0.13851204  0.41835522  1
  O  O188  1  0.28228745  0.12851352  0.76547089  1
  O  O189  1  0.28162868  0.62949697  0.09155524  1
  O  O190  1  0.26559817  0.62956236  0.41851026  1
  O  O191  1  0.28898861  0.62981032  0.76220989  1
  O  O192  1  0.78107716  0.13381641  0.08791606  1
  O  O193  1  0.77194287  0.13523044  0.41384990  1
  O  O194  1  0.78948258  0.13711124  0.76174503  1
  O  O195  1  0.78852039  0.62528285  0.10269948  1
  O  O196  1  0.78185978  0.62786177  0.42285680  1
  O  O197  1  0.77836582  0.63083336  0.75757661  1
  O  O198  1  0.13068971  0.28070419  0.25562104  1
  O  O199  1  0.13145520  0.28184331  0.59036957  1
  O  O200  1  0.13421813  0.28073672  0.92853569  1
  O  O201  1  0.13940365  0.78290916  0.25911515  1
  O  O202  1  0.11910507  0.78088373  0.59989822  1
  O  O203  1  0.12983535  0.78190093  0.92437927  1
  O  O204  1  0.63033138  0.27783205  0.25700926  1
  O  O205  1  0.63032513  0.27772303  0.59414065  1
  O  O206  1  0.62611779  0.28033186  0.92728967  1
  O  O207  1  0.63493506  0.78002584  0.25543378  1
  O  O208  1  0.65234879  0.77275336  0.57212637  1
  O  O209  1  0.63127005  0.78261044  0.92738964  1
  O  O210  1  0.21732525  0.37130692  0.24120644  1
  O  O211  1  0.21753653  0.37104568  0.57129620  1
  O  O212  1  0.22032987  0.36781604  0.90980700  1
  O  O213  1  0.23261821  0.87093172  0.25148272  1
  O  O214  1  0.21149270  0.85694885  0.57545534  1
  O  O215  1  0.22154328  0.86705091  0.91101931  1
  O  O216  1  0.72066551  0.36655435  0.24418608  1
  O  O217  1  0.71725621  0.36424579  0.57409396  1
  O  O218  1  0.71215082  0.36286275  0.90166492  1
  O  O219  1  0.72299650  0.86925810  0.23990252  1
  O  O220  1  0.73137113  0.87675675  0.56885272  1
  O  O221  1  0.71861848  0.87041495  0.90974983  1
  O  O222  1  0.41910169  0.13407732  0.15419282  1
  O  O223  1  0.41429693  0.13908588  0.48606967  1
  O  O224  1  0.42054087  0.13473707  0.82291970  1
  O  O225  1  0.42028339  0.62352936  0.14485799  1
  O  O226  1  0.40242341  0.62766000  0.48133845  1
  O  O227  1  0.42768239  0.62845343  0.81429881  1
  O  O228  1  0.91937670  0.12845335  0.14439784  1
  O  O229  1  0.90872398  0.13167581  0.47994638  1
  O  O230  1  0.92677012  0.12539367  0.81335324  1
  O  O231  1  0.92730834  0.63272943  0.15988171  1
  O  O232  1  0.91904479  0.63265440  0.48539047  1
  O  O233  1  0.91539020  0.63998967  0.82504698  1
  O  O234  1  0.36486627  0.08377652  0.01757467  1
  O  O235  1  0.36885325  0.08590192  0.34898226  1
  O  O236  1  0.36912831  0.08811100  0.68737585  1
  O  O237  1  0.36350053  0.57934408  0.00981775  1
  O  O238  1  0.35666331  0.58258553  0.34591326  1
  O  O239  1  0.36891229  0.57716524  0.67975774  1
  O  O240  1  0.86576206  0.07935278  0.00955749  1
  O  O241  1  0.86365420  0.08435617  0.34420962  1
  O  O242  1  0.86832243  0.07669769  0.67949485  1
  O  O243  1  0.87289440  0.58514362  0.02301220  1
  O  O244  1  0.87180917  0.57679605  0.35010097  1
  O  O245  1  0.87278239  0.58100706  0.68957670  1
  O  O246  1  0.07947526  0.36665620  0.17980313  1
  O  O247  1  0.07946784  0.36689764  0.51309992  1
  O  O248  1  0.08304074  0.36269740  0.84697964  1
  O  O249  1  0.09584518  0.87276021  0.18512385  1
  O  O250  1  0.07425039  0.86639667  0.51947526  1
  O  O251  1  0.08396354  0.87100556  0.84897388  1
  O  O252  1  0.58261510  0.36848383  0.18494926  1
  O  O253  1  0.57928680  0.36281303  0.51676394  1
  O  O254  1  0.57404087  0.37068969  0.85401446  1
  O  O255  1  0.58454968  0.86712741  0.17986838  1
  O  O256  1  0.59232014  0.86576283  0.50855112  1
  O  O257  1  0.58098993  0.86838491  0.85065534  1
  O  O258  1  0.12910562  0.41869364  0.31637888  1
  O  O259  1  0.13182005  0.42072152  0.64806740  1
  O  O260  1  0.13127806  0.41858170  0.98330743  1
  O  O261  1  0.13775899  0.92036682  0.32021956  1
  O  O262  1  0.12989665  0.91918186  0.65383237  1
  O  O263  1  0.13300543  0.92037327  0.98457568  1
  O  O264  1  0.63620964  0.41458748  0.32160825  1
  O  O265  1  0.63353375  0.41595715  0.65321959  1
  O  O266  1  0.63624566  0.41873687  0.98785636  1
  O  O267  1  0.63511686  0.91801590  0.31540403  1
  O  O268  1  0.64108510  0.90592583  0.64455483  1
  O  O269  1  0.63238128  0.92014315  0.98667454  1
  O  O270  1  0.03263049  0.19696710  0.10238681  1
  O  O271  1  0.02640579  0.19310310  0.42589417  1
  O  O272  1  0.04135061  0.19764725  0.77799816  1
  O  O273  1  0.04129546  0.70252092  0.10824012  1
  O  O274  1  0.02874570  0.70182951  0.43851197  1
  O  O275  1  0.02403064  0.70950161  0.77463205  1
  O  O276  1  0.52862252  0.20563479  0.10797553  1
  O  O277  1  0.53082991  0.19684913  0.43734662  1
  O  O278  1  0.52516060  0.20898045  0.77300371  1
  O  O279  1  0.53177415  0.69298223  0.10206216  1
  O  O280  1  0.52433660  0.67411515  0.42194353  1
  O  O281  1  0.53895610  0.70327352  0.77640935  1
  O  O282  1  0.29518471  0.46827407  0.06178114  1
  O  O283  1  0.29205591  0.47089965  0.39405519  1
  O  O284  1  0.31390336  0.46226467  0.72955319  1
  O  O285  1  0.30249237  0.96837515  0.06636127  1
  O  O286  1  0.29522003  0.97975568  0.39336649  1
  O  O287  1  0.29882702  0.96554809  0.73635374  1
  O  O288  1  0.80273346  0.46344795  0.06505712  1
  O  O289  1  0.80460185  0.46824632  0.39839003  1
  O  O290  1  0.79893307  0.46618461  0.72662412  1
  O  O291  1  0.79169753  0.97670391  0.06078621  1
  O  O292  1  0.80296908  0.97440079  0.40003995  1
  O  O293  1  0.80857309  0.96832901  0.72502156  1
  O  O294  1  0.46959746  0.30240046  0.23392475  1
  O  O295  1  0.46707838  0.30148925  0.56555701  1
  O  O296  1  0.46676457  0.30292597  0.90316674  1
  O  O297  1  0.47315891  0.79065796  0.21961579  1
  O  O298  1  0.47187028  0.80637930  0.56832159  1
  O  O299  1  0.46646375  0.79358179  0.89449520  1
  O  O300  1  0.96793053  0.29776147  0.22799861  1
  O  O301  1  0.96456453  0.30831778  0.56220715  1
  O  O302  1  0.97300583  0.28797152  0.89229474  1
  O  O303  1  0.98098234  0.81724302  0.24227114  1
  O  O304  1  0.95863472  0.80430613  0.56140145  1
  O  O305  1  0.96882388  0.80768512  0.89305915  1
  O  O306  1  0.19702928  0.03413748  0.27060429  1
  O  O307  1  0.19168236  0.02589884  0.60220703  1
  O  O308  1  0.20243931  0.02879924  0.94071063  1
  O  O309  1  0.19469945  0.53204652  0.26608192  1
  O  O310  1  0.19574779  0.53382403  0.59841773  1
  O  O311  1  0.19799979  0.53480906  0.94084136  1
  O  O312  1  0.69915253  0.02636427  0.26895746  1
  O  O313  1  0.70699151  0.03689591  0.60239249  1
  O  O314  1  0.69756680  0.03400524  0.94085105  1
  O  O315  1  0.70338576  0.52694910  0.26841697  1
  O  O316  1  0.71257195  0.52342668  0.60652765  1
  O  O317  1  0.68823669  0.53427399  0.93669909  1
  O  O318  1  0.08520143  0.08287984  0.03845101  1
  O  O319  1  0.08153360  0.08334916  0.36102246  1
  O  O320  1  0.09218195  0.08260415  0.71220819  1
  O  O321  1  0.08266898  0.59004281  0.02960400  1
  O  O322  1  0.07736657  0.59122698  0.36490689  1
  O  O323  1  0.06135428  0.58711762  0.70841887  1
  O  O324  1  0.58881264  0.09760066  0.04678316  1
  O  O325  1  0.58737974  0.09005588  0.36647685  1
  O  O326  1  0.56638306  0.08864161  0.70789537  1
  O  O327  1  0.59187321  0.58415141  0.03934146  1
  O  O328  1  0.58799813  0.57389418  0.35692414  1
  O  O329  1  0.59665836  0.59293293  0.71414624  1
  O  O330  1  0.40410053  0.41158240  0.12677933  1
  O  O331  1  0.40506171  0.41901334  0.46038219  1
  O  O332  1  0.41374166  0.41047738  0.81048299  1
  O  O333  1  0.41207773  0.90951188  0.12976596  1
  O  O334  1  0.39970182  0.90600875  0.43345212  1
  O  O335  1  0.40912164  0.90875517  0.79778228  1
  O  O336  1  0.91532766  0.41182230  0.13028502  1
  O  O337  1  0.91717984  0.41366109  0.46137987  1
  O  O338  1  0.91458965  0.41349271  0.78939876  1
  O  O339  1  0.90923642  0.93182681  0.12597364  1
  O  O340  1  0.91430916  0.92361244  0.47110495  1
  O  O341  1  0.91720099  0.92042350  0.79966644  1
  O  O342  1  0.40670106  0.40956607  0.29429795  1
  O  O343  1  0.40580112  0.41064783  0.62466631  1
  O  O344  1  0.41036107  0.41396777  0.96821489  1
  O  O345  1  0.42263510  0.90564595  0.28411031  1
  O  O346  1  0.41990726  0.91466797  0.63887638  1
  O  O347  1  0.40945873  0.90077644  0.96295011  1
  O  O348  1  0.91569702  0.40907601  0.29808316  1
  O  O349  1  0.91837560  0.41669242  0.63964377  1
  O  O350  1  0.91234999  0.39645486  0.95242548  1
  O  O351  1  0.92045632  0.92439382  0.30353067  1
  O  O352  1  0.90447053  0.91520240  0.62912500  1
  O  O353  1  0.91351160  0.92158609  0.95576434  1
  O  O354  1  0.08600832  0.08350125  0.19713931  1
  O  O355  1  0.08632252  0.08137822  0.53283730  1
  O  O356  1  0.08808833  0.07670315  0.87165137  1
  O  O357  1  0.09290808  0.60152410  0.20956937  1
  O  O358  1  0.08002204  0.58445313  0.53697172  1
  O  O359  1  0.08636570  0.59360280  0.87779990  1
  O  O360  1  0.58601505  0.08163602  0.20971413  1
  O  O361  1  0.59690249  0.09572847  0.54448652  1
  O  O362  1  0.58493134  0.08946520  0.87566748  1
  O  O363  1  0.59212217  0.57957073  0.19748993  1
  O  O364  1  0.60144814  0.58044197  0.54813130  1
  O  O365  1  0.58176507  0.58069099  0.85835783  1
  O  O366  1  0.13930834  0.21547559  0.05542621  1
  O  O367  1  0.13089188  0.21735577  0.37717415  1
  O  O368  1  0.13848601  0.21463980  0.72021082  1
  O  O369  1  0.14283448  0.72228825  0.05563071  1
  O  O370  1  0.13793958  0.72661331  0.39649712  1
  O  O371  1  0.13325725  0.71297807  0.72756818  1
  O  O372  1  0.63480084  0.23109465  0.06205199  1
  O  O373  1  0.63663770  0.22676331  0.39358797  1
  O  O374  1  0.63621386  0.21656048  0.72884545  1
  O  O375  1  0.63994392  0.71987829  0.05990197  1
  O  O376  1  0.63607760  0.71107043  0.38686020  1
  O  O377  1  0.64169252  0.72617131  0.72707785  1
  O  O378  1  0.26995757  0.36063315  0.10568907  1
  O  O379  1  0.27269987  0.36179534  0.43680115  1
  O  O380  1  0.27576471  0.35728243  0.77035907  1
  O  O381  1  0.27715970  0.85871904  0.10701993  1
  O  O382  1  0.27095117  0.87251873  0.43784989  1
  O  O383  1  0.27606852  0.85545843  0.77778642  1
  O  O384  1  0.78323135  0.36031088  0.11633697  1
  O  O385  1  0.78342632  0.36013160  0.44289039  1
  O  O386  1  0.78404492  0.36332397  0.77898513  1
  O  O387  1  0.77973440  0.86752891  0.10686954  1
  O  O388  1  0.78142713  0.86187780  0.43969618  1
  O  O389  1  0.78292993  0.86092978  0.76997547  1
  O  O390  1  0.35920289  0.27467956  0.27298924  1
  O  O391  1  0.36649206  0.27716015  0.61825466  1
  O  O392  1  0.35900649  0.27904731  0.94670332  1
  O  O393  1  0.36763246  0.77461212  0.26788434  1
  O  O394  1  0.36529845  0.77991012  0.61284047  1
  O  O395  1  0.35938038  0.76574174  0.93789416  1
  O  O396  1  0.86253872  0.27510602  0.27517552  1
  O  O397  1  0.86029142  0.28221380  0.60941687  1
  O  O398  1  0.86393051  0.26340336  0.93477407  1
  O  O399  1  0.86600330  0.78913196  0.27538362  1
  O  O400  1  0.85780692  0.77951864  0.61262110  1
  O  O401  1  0.86663357  0.78929838  0.94527853  1
  O  O402  1  0.21994347  0.14004132  0.22405529  1
  O  O403  1  0.22296912  0.13473835  0.56264828  1
  O  O404  1  0.22015863  0.13566754  0.89360336  1
  O  O405  1  0.22908857  0.64147315  0.22686306  1
  O  O406  1  0.21060532  0.64233792  0.55174898  1
  O  O407  1  0.21891851  0.63256633  0.88512280  1
  O  O408  1  0.71755733  0.13656810  0.22595278  1
  O  O409  1  0.72914655  0.14320845  0.55641903  1
  O  O410  1  0.71804770  0.13783243  0.89231949  1
  O  O411  1  0.72515351  0.63689031  0.22583694  1
  O  O412  1  0.73388674  0.63206130  0.56335627  1
  O  O413  1  0.71713061  0.63843938  0.89002369  1
  O  O414  1  0.48891447  0.33746267  0.03682932  1
  O  O415  1  0.48633141  0.33407585  0.36586318  1
  O  O416  1  0.49407637  0.34592203  0.70105027  1
  O  O417  1  0.48981477  0.82056147  0.02663686  1
  O  O418  1  0.50066775  0.82627602  0.35364053  1
  O  O419  1  0.49555031  0.83115150  0.70204229  1
  O  O420  1  0.99182633  0.32146631  0.02520007  1
  O  O421  1  0.99431005  0.32805644  0.36195318  1
  O  O422  1  0.99333372  0.32749610  0.69480783  1
  O  O423  1  0.99850422  0.85241257  0.02823718  1
  O  O424  1  0.99198577  0.84308434  0.37274477  1
  O  O425  1  0.98844923  0.84051390  0.69634789  1
  O  O426  1  0.17127040  0.00736803  0.13738428  1
  O  O427  1  0.17082566  0.00793452  0.47044965  1
  O  O428  1  0.17131099  0.00312835  0.80644238  1
  O  O429  1  0.16255660  0.51627671  0.13477773  1
  O  O430  1  0.15478318  0.51076985  0.46367322  1
  O  O431  1  0.15059579  0.50086075  0.80545047  1
  O  O432  1  0.66255002  0.00771383  0.13586336  1
  O  O433  1  0.66703125  0.01424829  0.46818059  1
  O  O434  1  0.65889525  0.00585095  0.80626817  1
  O  O435  1  0.67686812  0.50481434  0.13667618  1
  O  O436  1  0.67611736  0.50485665  0.47254827  1
  O  O437  1  0.67113777  0.50520208  0.80446147  1
  O  O438  1  0.00085220  0.15929408  0.29188961  1
  O  O439  1  0.00506256  0.15223950  0.64198163  1
  O  O440  1  0.00888778  0.15891477  0.96763816  1
  O  O441  1  0.00732285  0.67926340  0.30589649  1
  O  O442  1  0.00131193  0.67351061  0.64019291  1
  O  O443  1  0.00701726  0.67936986  0.97539406  1
  O  O444  1  0.50733635  0.17100564  0.30434912  1
  O  O445  1  0.50506547  0.17573672  0.63938466  1
  O  O446  1  0.50601353  0.17110904  0.97481483  1
  O  O447  1  0.51059474  0.65554359  0.29193716  1
  O  O448  1  0.51082070  0.66299759  0.64150789  1
  O  O449  1  0.51229871  0.65895585  0.96859790  1
  O  O450  1  0.32554712  0.49049965  0.19478162  1
  O  O451  1  0.32200712  0.49234722  0.52680497  1
  O  O452  1  0.32310877  0.48814133  0.85937774  1
  O  O453  1  0.33422534  0.98798162  0.19885304  1
  O  O454  1  0.34973720  0.99449035  0.52596313  1
  O  O455  1  0.33229608  0.98509927  0.86906569  1
  O  O456  1  0.84201420  0.49188463  0.20077264  1
  O  O457  1  0.83998556  0.48925958  0.53265019  1
  O  O458  1  0.84308267  0.49731572  0.86176296  1
  O  O459  1  0.82668965  0.99814013  0.19522268  1
  O  O460  1  0.82665944  0.99330526  0.53195748  1
  O  O461  1  0.82777622  0.99292374  0.85671956  1
