# generated using pymatgen
data_Na31Fe20(SO4)36
_symmetry_space_group_name_H-M   'P 1'
_cell_length_a   18.08464420
_cell_length_b   18.08572948
_cell_length_c   19.72111430
_cell_angle_alpha   107.59087684
_cell_angle_beta   107.56239935
_cell_angle_gamma   90.75947246
_symmetry_Int_Tables_number   1
_chemical_formula_structural   Na31Fe20(SO4)36
_chemical_formula_sum   'Na62 Fe40 S72 O288'
_cell_volume   5823.20336614
_cell_formula_units_Z   2
loop_
 _symmetry_equiv_pos_site_id
 _symmetry_equiv_pos_as_xyz
  1  'x, y, z'
loop_
 _atom_site_type_symbol
 _atom_site_label
 _atom_site_symmetry_multiplicity
 _atom_site_fract_x
 _atom_site_fract_y
 _atom_site_fract_z
 _atom_site_occupancy
  Na  Na0  1  0.12787995  0.35281849  0.06819060  1
  Na  Na1  1  0.13151788  0.36825155  0.41376975  1
  Na  Na2  1  0.13487078  0.36827233  0.75021672  1
  Na  Na3  1  0.15340775  0.87384788  0.09632239  1
  Na  Na4  1  0.14046111  0.86482082  0.42337718  1
  Na  Na5  1  0.13351219  0.86386208  0.74664372  1
  Na  Na6  1  0.63507902  0.36562250  0.08678750  1
  Na  Na7  1  0.63912727  0.37371906  0.42973920  1
  Na  Na8  1  0.63943227  0.35905764  0.74118187  1
  Na  Na9  1  0.63002321  0.86537071  0.08180270  1
  Na  Na10  1  0.63561962  0.87019904  0.42266155  1
  Na  Na11  1  0.62966246  0.85521145  0.73943482  1
  Na  Na12  1  0.35207566  0.12801808  0.24076718  1
  Na  Na13  1  0.37273873  0.12530229  0.58481568  1
  Na  Na14  1  0.36861542  0.13124759  0.91835823  1
  Na  Na15  1  0.36618342  0.63767402  0.25434306  1
  Na  Na16  1  0.36143366  0.66956072  0.60677806  1
  Na  Na17  1  0.35016894  0.62585604  0.89610538  1
  Na  Na18  1  0.86341162  0.13395923  0.24750755  1
  Na  Na19  1  0.89938387  0.21002531  0.65807186  1
  Na  Na20  1  0.86239707  0.14522303  0.91847711  1
  Na  Na21  1  0.86489332  0.63536363  0.25320175  1
  Na  Na22  1  0.86930825  0.62067075  0.58343400  1
  Na  Na23  1  0.86928169  0.63430459  0.91842746  1
  Na  Na24  1  0.50110453  -0.00253795  0.74435142  1
  Na  Na25  1  0.99948585  0.01087341  0.40472854  1
  Na  Na26  1  0.99419756  0.51350437  0.08455064  1
  Na  Na27  1  0.49383549  0.52198962  0.73278312  1
  Na  Na28  1  1.02750502  -0.00938353  0.06913310  1
  Na  Na29  1  0.97448205  0.50989272  0.73578013  1
  Na  Na30  1  0.47832210  0.00959153  0.08446195  1
  Na  Na31  1  0.46651164  0.00360151  0.42949195  1
  Na  Na32  1  0.48051559  0.55000681  0.53011845  1
  Na  Na33  1  0.05271557  0.49400883  0.59708569  1
  Na  Na34  1  0.50205041  0.49235070  0.92668387  1
  Na  Na35  1  -0.02163708  1.01011349  0.60455349  1
  Na  Na36  1  0.47920929  1.00608403  0.26637154  1
  Na  Na37  1  0.00846275  0.43917628  0.88795646  1
  Na  Na38  1  -0.00466933  1.03739186  0.88306434  1
  Na  Na39  1  0.50410123  0.49172012  0.25646518  1
  Na  Na40  1  0.50257625  0.94218488  0.89825474  1
  Na  Na41  1  0.00603354  0.48568707  0.26561368  1
  Na  Na42  1  0.24850267  0.24558238  0.67067670  1
  Na  Na43  1  0.74174735  0.74118009  0.66714666  1
  Na  Na44  1  0.74305057  0.74297970  0.34084930  1
  Na  Na45  1  0.75353088  0.75373627  0.00013874  1
  Na  Na46  1  0.22332745  0.21504414  0.00004188  1
  Na  Na47  1  0.24047728  0.23872366  0.33653409  1
  Na  Na48  1  0.74155924  0.24613719  0.00748919  1
  Na  Na49  1  0.25683218  0.75679699  -0.01094964  1
  Na  Na50  1  0.24123976  0.74232609  0.34413039  1
  Na  Na51  1  0.75651497  0.25875387  0.32349887  1
  Na  Na52  1  0.74698453  0.74980638  0.83228080  1
  Na  Na53  1  0.23695597  0.23769507  0.16832730  1
  Na  Na54  1  0.74640307  0.74747681  0.17017084  1
  Na  Na55  1  0.77536157  0.26123010  0.81498755  1
  Na  Na56  1  0.73637920  0.74077175  0.50777782  1
  Na  Na57  1  0.26045758  0.76107011  0.16737599  1
  Na  Na58  1  0.26236710  0.75182267  0.80444246  1
  Na  Na59  1  0.75516289  0.25432426  0.50831109  1
  Na  Na60  1  0.23468343  0.23886363  0.84021183  1
  Na  Na61  1  0.24664873  0.23913227  0.50294466  1
  Fe  Fe62  1  0.96492534  0.80810517  0.45541989  1
  Fe  Fe63  1  0.96626850  0.30761709  0.44895206  1
  Fe  Fe64  1  0.46710977  0.30517595  0.78520019  1
  Fe  Fe65  1  0.96668947  0.81145384  0.12273151  1
  Fe  Fe66  1  0.96521329  0.81056573  0.78862781  1
  Fe  Fe67  1  0.46737679  0.80126157  0.45876651  1
  Fe  Fe68  1  0.96195388  0.30683456  0.11588013  1
  Fe  Fe69  1  0.46336118  0.30687183  0.11706573  1
  Fe  Fe70  1  0.46597711  0.80655492  0.12449407  1
  Fe  Fe71  1  0.46052962  0.31246612  0.45483965  1
  Fe  Fe72  1  0.19132642  0.53472447  0.04591521  1
  Fe  Fe73  1  0.19274361  0.03121012  0.71056561  1
  Fe  Fe74  1  0.69639827  0.53403961  0.38477013  1
  Fe  Fe75  1  0.68948809  0.03643564  0.04891543  1
  Fe  Fe76  1  0.20091068  0.02592296  0.37279639  1
  Fe  Fe77  1  0.19304297  0.54081764  0.38679894  1
  Fe  Fe78  1  0.69723065  0.53150995  0.70278807  1
  Fe  Fe79  1  0.68887331  0.03495134  0.71197425  1
  Fe  Fe80  1  0.69462185  0.53490343  0.04682660  1
  Fe  Fe81  1  0.69296379  0.03621315  0.38353209  1
  Fe  Fe82  1  0.03699378  0.68865084  0.87980695  1
  Fe  Fe83  1  0.53476870  0.19243749  0.88277972  1
  Fe  Fe84  1  0.03710430  0.19152426  0.54452285  1
  Fe  Fe85  1  0.03713972  0.68884767  0.54872391  1
  Fe  Fe86  1  0.03475523  0.69462520  0.21724074  1
  Fe  Fe87  1  0.03120452  0.19049566  0.20990269  1
  Fe  Fe88  1  0.53208148  0.69729591  0.87695109  1
  Fe  Fe89  1  0.53477705  0.19570503  0.21716065  1
  Fe  Fe90  1  0.53520930  0.68798270  0.21203288  1
  Fe  Fe91  1  0.53536597  0.19496489  0.55074672  1
  Fe  Fe92  1  0.30998996  0.46746826  0.95464847  1
  Fe  Fe93  1  0.80500466  0.97004276  0.61986810  1
  Fe  Fe94  1  0.29988440  0.46935593  0.62268303  1
  Fe  Fe95  1  0.30118888  0.96469142  0.95022747  1
  Fe  Fe96  1  0.30963086  0.95537375  0.61797209  1
  Fe  Fe97  1  0.80544871  0.46818533  0.94806364  1
  Fe  Fe98  1  0.80681202  0.96763548  0.95515755  1
  Fe  Fe99  1  0.80955855  0.46296346  0.28852604  1
  Fe  Fe100  1  0.80495190  0.96517977  0.28547364  1
  Fe  Fe101  1  0.30753079  0.46588349  0.28912314  1
  S  S102  1  0.36267936  0.14032840  0.08283336  1
  S  S103  1  0.36403012  0.14098387  0.41584983  1
  S  S104  1  0.36106240  0.13827191  0.74852807  1
  S  S105  1  0.35908625  0.64006519  0.08335980  1
  S  S106  1  0.35440032  0.64074875  0.41503630  1
  S  S107  1  0.36630937  0.63538843  0.75160110  1
  S  S108  1  0.85395206  0.14157441  0.08188440  1
  S  S109  1  0.86001465  0.13865144  0.41384762  1
  S  S110  1  0.86036648  0.12976834  0.75743336  1
  S  S111  1  0.85996373  0.64298648  0.08487449  1
  S  S112  1  0.86100925  0.64122191  0.41649296  1
  S  S113  1  0.86024889  0.64498455  0.75395915  1
  S  S114  1  0.13844227  0.36177936  0.25022232  1
  S  S115  1  0.14535459  0.35282325  0.57650449  1
  S  S116  1  0.15029886  0.35796913  0.92003643  1
  S  S117  1  0.14060660  0.85674719  0.24854769  1
  S  S118  1  0.13691204  0.85731603  0.58181452  1
  S  S119  1  0.13898141  0.85605809  0.91743816  1
  S  S120  1  0.63731747  0.36193339  0.24992822  1
  S  S121  1  0.63387203  0.36138770  0.58207423  1
  S  S122  1  0.64147211  0.36020908  0.91587731  1
  S  S123  1  0.64212210  0.85786282  0.25107861  1
  S  S124  1  0.64121923  0.86397789  0.58046756  1
  S  S125  1  0.64482787  0.85935159  0.92034111  1
  S  S126  1  0.05440130  0.16943216  0.04056955  1
  S  S127  1  0.06781560  0.16696912  0.37315554  1
  S  S128  1  0.07291777  0.16713732  0.70252563  1
  S  S129  1  0.06781689  0.67234079  0.04643663  1
  S  S130  1  0.06417348  0.67095659  0.37416771  1
  S  S131  1  0.06030689  0.67039672  0.71219856  1
  S  S132  1  0.56720288  0.16943762  0.04262743  1
  S  S133  1  0.56831653  0.17129986  0.37746786  1
  S  S134  1  0.56941897  0.17070429  0.71431069  1
  S  S135  1  0.56886687  0.67079241  0.04184206  1
  S  S136  1  0.56757411  0.66982225  0.37448321  1
  S  S137  1  0.57312575  0.66398814  0.70676980  1
  S  S138  1  0.32833024  0.43108908  0.12544855  1
  S  S139  1  0.32348678  0.43194365  0.45499254  1
  S  S140  1  0.33541933  0.42649834  0.79249316  1
  S  S141  1  0.34047878  0.93315186  0.12634184  1
  S  S142  1  0.32830575  0.92839372  0.45544516  1
  S  S143  1  0.33067415  0.93581387  0.78877007  1
  S  S144  1  0.83005681  0.43724109  0.12617027  1
  S  S145  1  0.82932314  0.43003089  0.45298087  1
  S  S146  1  0.82961802  0.44079495  0.78839471  1
  S  S147  1  0.82612461  0.93259290  0.12326718  1
  S  S148  1  0.83130167  0.93367324  0.45640538  1
  S  S149  1  0.82476185  0.92863708  0.79145845  1
  S  S150  1  0.42940880  0.32808172  0.28885245  1
  S  S151  1  0.42779504  0.32937526  0.62474180  1
  S  S152  1  0.43384400  0.32911045  0.95590374  1
  S  S153  1  0.44040364  0.82789282  0.29530503  1
  S  S154  1  0.43729495  0.84177807  0.62600335  1
  S  S155  1  0.43277370  0.82767424  0.95834768  1
  S  S156  1  0.93117329  0.32726568  0.28668609  1
  S  S157  1  0.95001230  0.34113028  0.61720988  1
  S  S158  1  0.93129890  0.34176875  0.96229905  1
  S  S159  1  0.93039443  0.82941032  0.29128587  1
  S  S160  1  0.92732020  0.83011965  0.62320678  1
  S  S161  1  0.93193744  0.83120281  0.95917584  1
  S  S162  1  0.16504999  0.06877487  0.20696560  1
  S  S163  1  0.17476435  0.06508651  0.53776969  1
  S  S164  1  0.17560280  0.06497604  0.87347896  1
  S  S165  1  0.16803911  0.56579250  0.20856403  1
  S  S166  1  0.16966758  0.56630122  0.54011468  1
  S  S167  1  0.16706783  0.56352179  0.87618401  1
  S  S168  1  0.66568816  0.06588943  0.21052502  1
  S  S169  1  0.66835700  0.07451461  0.54084310  1
  S  S170  1  0.66638936  0.06465390  0.87622707  1
  S  S171  1  0.67113908  0.56620101  0.20908831  1
  S  S172  1  0.67517622  0.57154652  0.54437665  1
  S  S173  1  0.67120276  0.56912351  0.87399855  1
  O  O174  1  0.37446059  0.21737999  0.07050722  1
  O  O175  1  0.37073271  0.22225301  0.41046868  1
  O  O176  1  0.37321425  0.21558386  0.73772748  1
  O  O177  1  0.36882776  0.72050286  0.07795635  1
  O  O178  1  0.37193999  0.71821031  0.40511975  1
  O  O179  1  0.37897832  0.71195095  0.74429669  1
  O  O180  1  0.86338695  0.22038977  0.07344965  1
  O  O181  1  0.86871746  0.21624460  0.40304805  1
  O  O182  1  0.87251564  0.21131597  0.76133883  1
  O  O183  1  0.86908426  0.72317630  0.07962586  1
  O  O184  1  0.87031699  0.71924201  0.40530979  1
  O  O185  1  0.86379621  0.72635987  0.75001333  1
  O  O186  1  0.28540940  0.13415177  0.09097277  1
  O  O187  1  0.28404854  0.13037140  0.42148224  1
  O  O188  1  0.28092713  0.13269884  0.75399758  1
  O  O189  1  0.28070137  0.63167617  0.09303343  1
  O  O190  1  0.26923374  0.63664275  0.40731799  1
  O  O191  1  0.29329723  0.62444639  0.76720068  1
  O  O192  1  0.77396613  0.13110931  0.08670183  1
  O  O193  1  0.78115855  0.13067926  0.42215722  1
  O  O194  1  0.77803775  0.11966780  0.76197409  1
  O  O195  1  0.78039033  0.63352060  0.09191523  1
  O  O196  1  0.78021332  0.63422699  0.42168156  1
  O  O197  1  0.77887156  0.63104907  0.75879099  1
  O  O198  1  0.12898647  0.28408220  0.26072048  1
  O  O199  1  0.14011676  0.26918636  0.57549896  1
  O  O200  1  0.14523673  0.28355722  0.93421800  1
  O  O201  1  0.12913678  0.77685019  0.25643881  1
  O  O202  1  0.12586145  0.77976643  0.59083878  1
  O  O203  1  0.12851458  0.77363616  0.92025951  1
  O  O204  1  0.62849314  0.28328800  0.25903864  1
  O  O205  1  0.61989661  0.28750210  0.59815185  1
  O  O206  1  0.63165341  0.28277322  0.92675751  1
  O  O207  1  0.63516750  0.77716937  0.25599817  1
  O  O208  1  0.64289872  0.78761338  0.59125441  1
  O  O209  1  0.63317935  0.78214755  0.93146761  1
  O  O210  1  0.21839272  0.36992580  0.24411360  1
  O  O211  1  0.22354328  0.36586433  0.56729294  1
  O  O212  1  0.23224459  0.37258342  0.91783775  1
  O  O213  1  0.21559180  0.86561348  0.23695956  1
  O  O214  1  0.21440680  0.86829093  0.57334198  1
  O  O215  1  0.21901520  0.86246199  0.90947364  1
  O  O216  1  0.71504594  0.37095564  0.24093360  1
  O  O217  1  0.70671014  0.36442313  0.56597736  1
  O  O218  1  0.72108314  0.36999246  0.91044177  1
  O  O219  1  0.72111699  0.86865869  0.24266425  1
  O  O220  1  0.71583054  0.88124114  0.56508600  1
  O  O221  1  0.72831090  0.86665655  0.92175614  1
  O  O222  1  0.42332687  0.13413640  0.15218720  1
  O  O223  1  0.42121619  0.13448264  0.48673399  1
  O  O224  1  0.41844947  0.13315248  0.81892552  1
  O  O225  1  0.41848849  0.63094764  0.15022044  1
  O  O226  1  0.40098386  0.63378473  0.48657506  1
  O  O227  1  0.43159587  0.62122773  0.81536181  1
  O  O228  1  0.91126036  0.13423180  0.15050246  1
  O  O229  1  0.92053780  0.12889318  0.47916441  1
  O  O230  1  0.91396701  0.10867663  0.81862640  1
  O  O231  1  0.91854104  0.63243174  0.15194619  1
  O  O232  1  0.91780046  0.63659572  0.48636295  1
  O  O233  1  0.91692617  0.63970288  0.82498097  1
  O  O234  1  0.37381948  0.07851553  0.01767640  1
  O  O235  1  0.37733051  0.08466230  0.35098777  1
  O  O236  1  0.37043683  0.07630409  0.68326511  1
  O  O237  1  0.36517277  0.58335256  0.01339846  1
  O  O238  1  0.36757355  0.57972740  0.34982959  1
  O  O239  1  0.37096947  0.57369041  0.68139983  1
  O  O240  1  0.86311434  0.08288529  0.01380826  1
  O  O241  1  0.86595068  0.07799717  0.34458007  1
  O  O242  1  0.86489766  0.07824148  0.68263287  1
  O  O243  1  0.86815772  0.58556808  0.01644434  1
  O  O244  1  0.86926178  0.58075736  0.34976574  1
  O  O245  1  0.87354129  0.58875786  0.68959474  1
  O  O246  1  0.08032587  0.36810268  0.18100664  1
  O  O247  1  0.08523929  0.36377551  0.50988132  1
  O  O248  1  0.09551352  0.36091810  0.84949537  1
  O  O249  1  0.07784942  0.86496497  0.18216517  1
  O  O250  1  0.07741262  0.86406529  0.51226479  1
  O  O251  1  0.08172038  0.86499295  0.84834088  1
  O  O252  1  0.57673226  0.36924090  0.18200216  1
  O  O253  1  0.56937045  0.37073855  0.51743868  1
  O  O254  1  0.58385854  0.36621385  0.84632312  1
  O  O255  1  0.58316098  0.86574390  0.18339166  1
  O  O256  1  0.57727063  0.86644266  0.51270932  1
  O  O257  1  0.59238663  0.86571214  0.85039618  1
  O  O258  1  0.12779785  0.42306923  0.31591879  1
  O  O259  1  0.13767085  0.40534099  0.64563236  1
  O  O260  1  0.13542639  0.42087998  0.98432729  1
  O  O261  1  0.13408873  0.91411110  0.31830516  1
  O  O262  1  0.12631633  0.91763209  0.64781439  1
  O  O263  1  0.13159960  0.91094304  0.98565214  1
  O  O264  1  0.62757870  0.42167781  0.31697186  1
  O  O265  1  0.63232947  0.42543284  0.65176229  1
  O  O266  1  0.63067047  0.42150760  0.98207621  1
  O  O267  1  0.63514343  0.91506640  0.32012113  1
  O  O268  1  0.63345221  0.92423243  0.64800946  1
  O  O269  1  0.63169313  0.92023758  0.98595373  1
  O  O270  1  0.02389833  0.20555772  0.10745801  1
  O  O271  1  0.02934119  0.19771710  0.43251980  1
  O  O272  1  0.03955295  0.18994021  0.76219586  1
  O  O273  1  0.02846102  0.70138977  0.10575619  1
  O  O274  1  0.02910709  0.69893631  0.43606618  1
  O  O275  1  0.02074018  0.70524142  0.77125017  1
  O  O276  1  0.53436509  0.20247504  0.10570573  1
  O  O277  1  0.53360486  0.20115725  0.43914608  1
  O  O278  1  0.53195192  0.20195225  0.77508491  1
  O  O279  1  0.53173638  0.69776242  0.10266436  1
  O  O280  1  0.53024228  0.69915911  0.43275710  1
  O  O281  1  0.55362939  0.68627531  0.77724742  1
  O  O282  1  0.30244095  0.47065042  0.06689010  1
  O  O283  1  0.29323379  0.47183409  0.39597506  1
  O  O284  1  0.30915994  0.45516693  0.72840171  1
  O  O285  1  0.32068341  0.95991886  0.06004546  1
  O  O286  1  0.30560819  0.96895687  0.39831637  1
  O  O287  1  0.29249955  0.97127524  0.72716145  1
  O  O288  1  0.80125135  0.47569975  0.06647856  1
  O  O289  1  0.79611937  0.46678172  0.38982318  1
  O  O290  1  0.78937384  0.47605962  0.72926433  1
  O  O291  1  0.79630418  0.97237687  0.06480234  1
  O  O292  1  0.79924154  0.96993957  0.39535058  1
  O  O293  1  0.79415930  0.95915398  0.72702528  1
  O  O294  1  0.46771121  0.29814948  0.22883900  1
  O  O295  1  0.46080889  0.29824310  0.56162029  1
  O  O296  1  0.47308680  0.29914851  0.89639654  1
  O  O297  1  0.47742025  0.79374164  0.23404437  1
  O  O298  1  0.46470136  0.80794352  0.55923452  1
  O  O299  1  0.47326878  0.80169463  0.90168766  1
  O  O300  1  0.96622973  0.29689639  0.22443729  1
  O  O301  1  0.97702248  0.29238242  0.55115892  1
  O  O302  1  0.96709302  0.32514589  0.90390625  1
  O  O303  1  0.96636952  0.79924729  0.23011455  1
  O  O304  1  0.96401651  0.79901296  0.56248344  1
  O  O305  1  0.96794032  0.80262617  0.89867939  1
  O  O306  1  0.19006428  0.04273299  0.27372043  1
  O  O307  1  0.20128110  0.02761633  0.59755301  1
  O  O308  1  0.20706799  0.02607463  0.93132363  1
  O  O309  1  0.19667363  0.52749102  0.26753233  1
  O  O310  1  0.19730447  0.52765244  0.59845224  1
  O  O311  1  0.20147655  0.53368105  0.94294086  1
  O  O312  1  0.69435807  0.02808866  0.27078244  1
  O  O313  1  0.69956812  0.04253454  0.60443964  1
  O  O314  1  0.69544221  0.02618716  0.93594410  1
  O  O315  1  0.70253719  0.53105904  0.27044981  1
  O  O316  1  0.70379740  0.53543427  0.60565440  1
  O  O317  1  0.70304791  0.53131902  0.93451765  1
  O  O318  1  0.06379325  0.08711844  0.03254216  1
  O  O319  1  0.08735983  0.08722524  0.37159528  1
  O  O320  1  0.09421225  0.08433716  0.68840885  1
  O  O321  1  0.08381755  0.59038030  0.04246849  1
  O  O322  1  0.08502035  0.59016934  0.36815249  1
  O  O323  1  0.07048261  0.58965131  0.71057736  1
  O  O324  1  0.58156642  0.08685092  0.03867262  1
  O  O325  1  0.58563135  0.08876741  0.37092130  1
  O  O326  1  0.58418334  0.08915933  0.71094311  1
  O  O327  1  0.58943016  0.58962451  0.03578613  1
  O  O328  1  0.59109028  0.59001206  0.37089774  1
  O  O329  1  0.59880032  0.58139993  0.69599273  1
  O  O330  1  0.41031991  0.41230685  0.13308849  1
  O  O331  1  0.40542791  0.41714002  0.45871038  1
  O  O332  1  0.42029786  0.41154041  0.80587655  1
  O  O333  1  0.42558316  0.91484618  0.14175086  1
  O  O334  1  0.40839224  0.90384730  0.45815654  1
  O  O335  1  0.41119498  0.92728825  0.78835349  1
  O  O336  1  0.91300188  0.42169489  0.13362636  1
  O  O337  1  0.90566048  0.40437410  0.44650242  1
  O  O338  1  0.90869005  0.43024348  0.78419957  1
  O  O339  1  0.90488510  0.91112409  0.12413504  1
  O  O340  1  0.91331959  0.91747813  0.45996828  1
  O  O341  1  0.90719377  0.91223335  0.79944349  1
  O  O342  1  0.41184604  0.40906557  0.29134482  1
  O  O343  1  0.40789205  0.40970081  0.62923773  1
  O  O344  1  0.41670060  0.41034216  0.95953599  1
  O  O345  1  0.43421700  0.91082409  0.30394237  1
  O  O346  1  0.41895655  0.92435348  0.62902896  1
  O  O347  1  0.41432019  0.90968213  0.96216476  1
  O  O348  1  0.91407462  0.40876557  0.28962011  1
  O  O349  1  0.95516374  0.42263670  0.61764833  1
  O  O350  1  0.90977220  0.42548799  0.97731295  1
  O  O351  1  0.91155061  0.91057074  0.29634030  1
  O  O352  1  0.90855049  0.91068597  0.62479665  1
  O  O353  1  0.91108087  0.91202425  0.96428671  1
  O  O354  1  0.08242306  0.08955397  0.19493951  1
  O  O355  1  0.09305503  0.08478352  0.52938622  1
  O  O356  1  0.10197580  0.09320434  0.87854846  1
  O  O357  1  0.08599171  0.58443857  0.20453124  1
  O  O358  1  0.08924330  0.58695161  0.54065326  1
  O  O359  1  0.08499617  0.58157462  0.87433220  1
  O  O360  1  0.58361431  0.08383236  0.20469187  1
  O  O361  1  0.58458331  0.08765116  0.53258673  1
  O  O362  1  0.58425275  0.08228436  0.87147280  1
  O  O363  1  0.59006526  0.58338924  0.20535565  1
  O  O364  1  0.59858069  0.59662449  0.53964615  1
  O  O365  1  0.58929339  0.58249903  0.87034934  1
  O  O366  1  0.13055901  0.21712225  0.06036939  1
  O  O367  1  0.13892493  0.22046566  0.39027100  1
  O  O368  1  0.14269904  0.22037191  0.71415225  1
  O  O369  1  0.14014412  0.72351482  0.06481326  1
  O  O370  1  0.13116839  0.72501990  0.38581764  1
  O  O371  1  0.13298299  0.72020578  0.73010211  1
  O  O372  1  0.63789780  0.21882782  0.05419709  1
  O  O373  1  0.63903794  0.22243339  0.39095547  1
  O  O374  1  0.64112232  0.22137278  0.73137326  1
  O  O375  1  0.63987192  0.72479484  0.06074057  1
  O  O376  1  0.63739558  0.72429580  0.38864095  1
  O  O377  1  0.64050260  0.71835581  0.71617554  1
  O  O378  1  0.27505815  0.36054921  0.10812960  1
  O  O379  1  0.27281923  0.35846960  0.43392670  1
  O  O380  1  0.28637754  0.35478294  0.78089874  1
  O  O381  1  0.28901114  0.86074496  0.11016804  1
  O  O382  1  0.27273861  0.85981490  0.43778817  1
  O  O383  1  0.28302626  0.86316326  0.77487089  1
  O  O384  1  0.77844087  0.36583594  0.10784117  1
  O  O385  1  0.77345046  0.36078950  0.43617103  1
  O  O386  1  0.78277271  0.36842381  0.77764278  1
  O  O387  1  0.77134873  0.86270262  0.10673013  1
  O  O388  1  0.78070799  0.86136138  0.43982158  1
  O  O389  1  0.77357836  0.85776340  0.77903849  1
  O  O390  1  0.35771638  0.27596101  0.27135222  1
  O  O391  1  0.35918234  0.27538662  0.61239752  1
  O  O392  1  0.36366622  0.27608353  0.93846146  1
  O  O393  1  0.36495917  0.78058658  0.27465306  1
  O  O394  1  0.36644093  0.79566820  0.61738927  1
  O  O395  1  0.36107961  0.77478500  0.93902257  1
  O  O396  1  0.86062670  0.27675040  0.27317339  1
  O  O397  1  0.86982021  0.30698294  0.60205700  1
  O  O398  1  0.86083322  0.28764022  0.94521994  1
  O  O399  1  0.85929070  0.77684696  0.27509609  1
  O  O400  1  0.85626747  0.77855882  0.60839261  1
  O  O401  1  0.86248007  0.77681934  0.94458456  1
  O  O402  1  0.21793614  0.14045085  0.22187501  1
  O  O403  1  0.22958036  0.13547144  0.55646796  1
  O  O404  1  0.23388545  0.13193342  0.88668762  1
  O  O405  1  0.22008934  0.63718743  0.22530905  1
  O  O406  1  0.22186488  0.63374691  0.55044604  1
  O  O407  1  0.21674283  0.63587583  0.89053426  1
  O  O408  1  0.71824280  0.13619806  0.22724853  1
  O  O409  1  0.71589625  0.14536573  0.55100493  1
  O  O410  1  0.71800888  0.13662458  0.89507428  1
  O  O411  1  0.72253533  0.63850156  0.22475259  1
  O  O412  1  0.73417723  0.63799881  0.55936526  1
  O  O413  1  0.72204159  0.64233150  0.89337036  1
  O  O414  1  0.49259949  0.33185764  0.02904982  1
  O  O415  1  0.48718058  0.33034569  0.36167329  1
  O  O416  1  0.49069266  0.33317769  0.69607512  1
  O  O417  1  0.48870419  0.83204590  0.03371592  1
  O  O418  1  0.49451256  0.82128319  0.36723505  1
  O  O419  1  0.50228027  0.84934814  0.69430381  1
  O  O420  1  0.98992847  0.34364505  0.03646184  1
  O  O421  1  0.99276187  0.32965172  0.35782279  1
  O  O422  1  1.00273901  0.33207083  0.68638002  1
  O  O423  1  0.99223224  0.83686647  0.03248726  1
  O  O424  1  0.98987936  0.83194921  0.36339853  1
  O  O425  1  0.98646445  0.83437172  0.69618349  1
  O  O426  1  0.16475545  0.00649474  0.13935083  1
  O  O427  1  0.17259923  0.00693436  0.46455818  1
  O  O428  1  0.16541198  0.00613744  0.79756567  1
  O  O429  1  0.16342427  0.50788295  0.13447118  1
  O  O430  1  0.15905156  0.50574216  0.46440764  1
  O  O431  1  0.16398607  0.50190766  0.80791742  1
  O  O432  1  0.66302784  0.00667148  0.13755123  1
  O  O433  1  0.66762022  0.01047399  0.47021044  1
  O  O434  1  0.66298265  0.00659132  0.80292565  1
  O  O435  1  0.66955404  0.50804396  0.13631971  1
  O  O436  1  0.67335478  0.50970950  0.47256817  1
  O  O437  1  0.67157797  0.51309097  0.80085861  1
  O  O438  1  0.00916598  0.16509299  0.30050720  1
  O  O439  1  0.01082321  0.16218503  0.62810081  1
  O  O440  1  -0.00325854  0.17687235  0.97344031  1
  O  O441  1  0.00155644  0.66494260  0.30138410  1
  O  O442  1  0.00473614  0.67056723  0.63805134  1
  O  O443  1  0.01054180  0.67185552  0.97387938  1
  O  O444  1  0.50721295  0.16706054  0.30477823  1
  O  O445  1  0.51092337  0.16967624  0.64189359  1
  O  O446  1  0.50612982  0.16688852  0.97071748  1
  O  O447  1  0.50892513  0.66078803  0.29860910  1
  O  O448  1  0.50498162  0.65808665  0.64202130  1
  O  O449  1  0.51054112  0.66860351  0.96951932  1
  O  O450  1  0.33073143  0.49066967  0.19858261  1
  O  O451  1  0.32456717  0.48765446  0.52779451  1
  O  O452  1  0.33487819  0.48898952  0.86287486  1
  O  O453  1  0.33959417  0.99506598  0.19379537  1
  O  O454  1  0.33285770  0.98651883  0.52949528  1
  O  O455  1  0.33312354  0.99291415  0.86314606  1
  O  O456  1  0.83152368  0.49498206  0.19962302  1
  O  O457  1  0.83807914  0.48966622  0.52368660  1
  O  O458  1  0.83598315  0.49836761  0.86455360  1
  O  O459  1  0.83002947  0.99077667  0.19677122  1
  O  O460  1  0.83486656  0.99231082  0.52906672  1
  O  O461  1  0.82598147  0.99052561  0.86232128  1
