# generated using pymatgen
data_Na31Fe20(SO4)36
_symmetry_space_group_name_H-M   'P 1'
_cell_length_a   18.06967429
_cell_length_b   18.06771197
_cell_length_c   19.69765205
_cell_angle_alpha   107.58311957
_cell_angle_beta   107.59036296
_cell_angle_gamma   90.69827284
_symmetry_Int_Tables_number   1
_chemical_formula_structural   Na31Fe20(SO4)36
_chemical_formula_sum   'Na62 Fe40 S72 O288'
_cell_volume   5805.73011719
_cell_formula_units_Z   2
loop_
 _symmetry_equiv_pos_site_id
 _symmetry_equiv_pos_as_xyz
  1  'x, y, z'
loop_
 _atom_site_type_symbol
 _atom_site_label
 _atom_site_symmetry_multiplicity
 _atom_site_fract_x
 _atom_site_fract_y
 _atom_site_fract_z
 _atom_site_occupancy
  Na  Na0  1  0.15838142  0.36618778  0.09143460  1
  Na  Na1  1  0.13430009  0.37345533  0.42169247  1
  Na  Na2  1  0.12982086  0.36971271  0.74354263  1
  Na  Na3  1  0.13812001  0.86411450  0.08677082  1
  Na  Na4  1  0.13069259  0.86375454  0.41014861  1
  Na  Na5  1  0.13769711  0.86398444  0.75165010  1
  Na  Na6  1  0.63192359  0.36732175  0.08358307  1
  Na  Na7  1  0.63300744  0.37222096  0.42125053  1
  Na  Na8  1  0.62641497  0.36904938  0.74523219  1
  Na  Na9  1  0.63241677  0.85330680  0.08175055  1
  Na  Na10  1  0.63530556  0.86782713  0.42152947  1
  Na  Na11  1  0.63525458  0.85457856  0.73561359  1
  Na  Na12  1  0.36690129  0.13288969  0.25225216  1
  Na  Na13  1  0.35636486  0.13674627  0.58029285  1
  Na  Na14  1  0.36342217  0.14305153  0.92509278  1
  Na  Na15  1  0.35294052  0.63335665  0.22801302  1
  Na  Na16  1  0.36284970  0.63024064  0.57955023  1
  Na  Na17  1  0.37076658  0.64829284  0.93085909  1
  Na  Na18  1  0.88183354  0.13026488  0.24716557  1
  Na  Na19  1  0.86894348  0.14232279  0.58180915  1
  Na  Na20  1  0.87411855  0.12781393  0.91431984  1
  Na  Na21  1  0.86488487  0.63713236  0.25316988  1
  Na  Na22  1  0.79732216  0.62328243  0.55171160  1
  Na  Na23  1  0.87789098  0.63539522  0.92671087  1
  Na  Na24  1  0.99623728  0.03769509  0.41177880  1
  Na  Na25  1  0.50405962  -0.01307031  0.08923929  1
  Na  Na26  1  0.49090397  0.00917034  0.74397163  1
  Na  Na27  1  0.99454466  -0.00081276  0.76391118  1
  Na  Na28  1  1.00919222  -0.02287373  0.12673649  1
  Na  Na29  1  1.04375783  0.48540742  0.03203131  1
  Na  Na30  1  0.97136045  0.50521800  0.76972848  1
  Na  Na31  1  0.97372068  0.50382173  0.42464524  1
  Na  Na32  1  0.48574785  0.51466947  0.08692933  1
  Na  Na33  1  0.50916487  0.98749759  0.91583112  1
  Na  Na34  1  0.50339358  0.95608450  0.24892714  1
  Na  Na35  1  0.51353564  0.99741758  0.56133326  1
  Na  Na36  1  -0.00204658  1.00793969  0.58054585  1
  Na  Na37  1  0.52298979  0.48654132  0.28584016  1
  Na  Na38  1  0.49215325  0.51644261  0.89291087  1
  Na  Na39  1  -0.03407500  0.51822742  0.60865658  1
  Na  Na40  1  0.01776960  0.49344049  0.23591146  1
  Na  Na41  1  0.48295755  0.49986735  0.59576461  1
  Na  Na42  1  0.24772486  0.74294176  0.66987681  1
  Na  Na43  1  0.75650400  0.24797182  -0.00448531  1
  Na  Na44  1  0.25441313  0.75745351  0.31150349  1
  Na  Na45  1  0.23548408  0.24282115  0.33580069  1
  Na  Na46  1  0.73923203  0.73655849  0.34840312  1
  Na  Na47  1  0.75838395  0.25540102  0.32847440  1
  Na  Na48  1  0.23395870  0.24604170  0.66989573  1
  Na  Na49  1  0.76889694  0.76018876  -0.00560102  1
  Na  Na50  1  0.24671606  0.73217148  0.03108774  1
  Na  Na51  1  0.76090739  0.26728115  0.65913282  1
  Na  Na52  1  0.76976258  0.75828303  0.82062801  1
  Na  Na53  1  0.76000995  0.75157526  0.16447715  1
  Na  Na54  1  0.75457816  0.25472295  0.82507935  1
  Na  Na55  1  0.24705569  0.26809727  0.50819202  1
  Na  Na56  1  0.24352279  0.24553281  0.16790255  1
  Na  Na57  1  0.75921618  0.26574971  0.49589042  1
  Na  Na58  1  0.24884174  0.74205834  0.84493509  1
  Na  Na59  1  0.75350520  0.25205032  0.16269102  1
  Na  Na60  1  0.23749452  0.24542262  0.84561605  1
  Na  Na61  1  0.25293497  0.75232556  0.49428554  1
  Fe  Fe62  1  0.97255330  0.30306283  0.46296984  1
  Fe  Fe63  1  0.46126191  0.30649715  0.45351924  1
  Fe  Fe64  1  0.46703309  0.80468790  0.78135061  1
  Fe  Fe65  1  0.97161648  0.29663026  0.12808030  1
  Fe  Fe66  1  0.46270679  0.30906219  0.12029176  1
  Fe  Fe67  1  0.96521077  0.81000089  0.78650141  1
  Fe  Fe68  1  0.96902272  0.30488075  0.78878009  1
  Fe  Fe69  1  0.46366907  0.80563423  0.45021843  1
  Fe  Fe70  1  0.96307933  0.80759954  0.45181139  1
  Fe  Fe71  1  0.46126819  0.30999598  0.78507115  1
  Fe  Fe72  1  0.19188917  0.03531308  0.04761943  1
  Fe  Fe73  1  0.19143284  0.03516770  0.71563834  1
  Fe  Fe74  1  0.19495347  0.53612447  0.38168941  1
  Fe  Fe75  1  0.69270001  0.03265853  0.04797418  1
  Fe  Fe76  1  0.18771759  0.03763586  0.37738901  1
  Fe  Fe77  1  0.69049042  0.53122916  0.04327765  1
  Fe  Fe78  1  0.69845146  0.53181101  0.70953243  1
  Fe  Fe79  1  0.19947461  0.53402342  0.70866361  1
  Fe  Fe80  1  0.69378812  0.03503495  0.71531729  1
  Fe  Fe81  1  0.69466856  0.03748566  0.38132655  1
  Fe  Fe82  1  0.53452988  0.70103866  0.21323380  1
  Fe  Fe83  1  0.53213441  0.19364506  0.88202502  1
  Fe  Fe84  1  0.54961719  0.67345903  0.53649560  1
  Fe  Fe85  1  0.53327182  0.19151500  0.21585423  1
  Fe  Fe86  1  0.03711545  0.69528103  0.88357202  1
  Fe  Fe87  1  0.03060654  0.69615546  0.54606369  1
  Fe  Fe88  1  0.53777608  0.69260656  0.87675306  1
  Fe  Fe89  1  0.03013818  0.69975747  0.20683801  1
  Fe  Fe90  1  0.53246568  0.19243171  0.54773830  1
  Fe  Fe91  1  0.04114863  0.19100287  0.88463474  1
  Fe  Fe92  1  0.30342101  0.96546774  0.61761346  1
  Fe  Fe93  1  0.30786134  0.96208409  0.28370205  1
  Fe  Fe94  1  0.80989156  0.96558936  0.28448870  1
  Fe  Fe95  1  0.81124341  0.96497370  0.95246210  1
  Fe  Fe96  1  0.81119541  0.46191670  0.95775395  1
  Fe  Fe97  1  0.31062898  0.96403219  0.95380528  1
  Fe  Fe98  1  0.30966993  0.46981491  0.28692027  1
  Fe  Fe99  1  0.79856872  0.46898016  0.29025934  1
  Fe  Fe100  1  0.80530567  0.96169961  0.61531644  1
  Fe  Fe101  1  0.29977390  0.47164897  0.95672692  1
  S  S102  1  0.36155737  0.14000909  0.08264132  1
  S  S103  1  0.35900072  0.13793292  0.41736555  1
  S  S104  1  0.35837602  0.14109620  0.75041932  1
  S  S105  1  0.36842926  0.63834377  0.07995172  1
  S  S106  1  0.36182334  0.64310277  0.41826632  1
  S  S107  1  0.36437853  0.64124155  0.75119619  1
  S  S108  1  0.85526483  0.13585301  0.08069024  1
  S  S109  1  0.85916373  0.14108190  0.41535494  1
  S  S110  1  0.86082916  0.13752007  0.74977765  1
  S  S111  1  0.85755637  0.63555412  0.08555441  1
  S  S112  1  0.85893530  0.64011453  0.41851540  1
  S  S113  1  0.86397128  0.64062794  0.74817014  1
  S  S114  1  0.14246452  0.36290077  0.24857958  1
  S  S115  1  0.13959264  0.36927986  0.58386947  1
  S  S116  1  0.13974641  0.35731653  0.91740856  1
  S  S117  1  0.14043960  0.86471480  0.25067625  1
  S  S118  1  0.13878070  0.85977243  0.58488200  1
  S  S119  1  0.14307099  0.86027874  0.91535301  1
  S  S120  1  0.63824247  0.35323940  0.24856453  1
  S  S121  1  0.63663384  0.35708571  0.58535327  1
  S  S122  1  0.64073251  0.35594103  0.91528663  1
  S  S123  1  0.64541265  0.86194369  0.25169428  1
  S  S124  1  0.63440180  0.86472717  0.58216671  1
  S  S125  1  0.64174020  0.85919946  0.91290480  1
  S  S126  1  0.06876603  0.17041156  0.04318031  1
  S  S127  1  0.06821838  0.17777255  0.37797343  1
  S  S128  1  0.06232605  0.16227512  0.70969179  1
  S  S129  1  0.07010447  0.67450112  0.04378357  1
  S  S130  1  0.06709966  0.67155270  0.37380864  1
  S  S131  1  0.07177638  0.67440278  0.71169599  1
  S  S132  1  0.56565638  0.16565001  0.04135862  1
  S  S133  1  0.56795835  0.16850160  0.37624758  1
  S  S134  1  0.56340042  0.16433241  0.70855892  1
  S  S135  1  0.57436331  0.66566793  0.03893457  1
  S  S136  1  0.56627776  0.67597752  0.37471438  1
  S  S137  1  0.57442547  0.67125656  0.71004626  1
  S  S138  1  0.34342423  0.43254562  0.13128855  1
  S  S139  1  0.32935010  0.43289615  0.45477774  1
  S  S140  1  0.32498895  0.43057555  0.79195256  1
  S  S141  1  0.33371337  0.93826769  0.12269717  1
  S  S142  1  0.32831103  0.93315935  0.45827024  1
  S  S143  1  0.33305219  0.93531612  0.79057937  1
  S  S144  1  0.82766121  0.42419527  0.12609239  1
  S  S145  1  0.83312406  0.42950085  0.46019524  1
  S  S146  1  0.82610830  0.42878168  0.79297878  1
  S  S147  1  0.82379811  0.93084312  0.11950830  1
  S  S148  1  0.83105048  0.93624783  0.45688344  1
  S  S149  1  0.82718350  0.93263564  0.78703854  1
  S  S150  1  0.43118216  0.32766551  0.29036029  1
  S  S151  1  0.43085932  0.32753973  0.62271875  1
  S  S152  1  0.43291384  0.33117308  0.95581921  1
  S  S153  1  0.43323681  0.82896494  0.29213349  1
  S  S154  1  0.42851816  0.83258480  0.62350313  1
  S  S155  1  0.44077629  0.83627541  0.95539664  1
  S  S156  1  0.92865925  0.32997928  0.29414900  1
  S  S157  1  0.93639125  0.33245642  0.62776815  1
  S  S158  1  0.93210755  0.32216204  0.95958895  1
  S  S159  1  0.93302398  0.83277596  0.29463402  1
  S  S160  1  0.93234870  0.83456183  0.62559696  1
  S  S161  1  0.93820987  0.83460671  0.95687410  1
  S  S162  1  0.17417478  0.06673738  0.21162800  1
  S  S163  1  0.16646384  0.06144303  0.54273886  1
  S  S164  1  0.17405932  0.06460506  0.87575462  1
  S  S165  1  0.16620715  0.56758657  0.20978247  1
  S  S166  1  0.16556808  0.57720078  0.53903766  1
  S  S167  1  0.17266855  0.56993295  0.87291753  1
  S  S168  1  0.66822095  0.06572679  0.20801676  1
  S  S169  1  0.67398755  0.07309216  0.54561302  1
  S  S170  1  0.66316933  0.06448472  0.87316355  1
  S  S171  1  0.66817666  0.56704815  0.20730110  1
  S  S172  1  0.64247349  0.55273821  0.53814397  1
  S  S173  1  0.67588531  0.56818212  0.87586689  1
  O  O174  1  0.37481475  0.21651755  0.07183361  1
  O  O175  1  0.36796757  0.21670139  0.40783297  1
  O  O176  1  0.36720216  0.21940039  0.74157294  1
  O  O177  1  0.38083255  0.71062835  0.06379563  1
  O  O178  1  0.36288413  0.72236381  0.40849732  1
  O  O179  1  0.37071479  0.72406485  0.74800167  1
  O  O180  1  0.86744166  0.21841339  0.08064174  1
  O  O181  1  0.87212161  0.22336657  0.41329426  1
  O  O182  1  0.86874721  0.21834073  0.74517079  1
  O  O183  1  0.85844051  0.71203601  0.07515990  1
  O  O184  1  0.87156979  0.71919095  0.40989293  1
  O  O185  1  0.87118529  0.72478366  0.75276118  1
  O  O186  1  0.28247383  0.13379948  0.09018614  1
  O  O187  1  0.28037138  0.13165134  0.42756578  1
  O  O188  1  0.27829116  0.13145631  0.75580146  1
  O  O189  1  0.29269216  0.62930422  0.09049143  1
  O  O190  1  0.28503914  0.62978285  0.43008739  1
  O  O191  1  0.28493172  0.63186060  0.75951624  1
  O  O192  1  0.77416389  0.13037548  0.08771379  1
  O  O193  1  0.77793844  0.13596808  0.42058273  1
  O  O194  1  0.78325628  0.12897381  0.76210910  1
  O  O195  1  0.78026252  0.61826277  0.09611276  1
  O  O196  1  0.78308469  0.63174729  0.42809998  1
  O  O197  1  0.78471975  0.62663160  0.75561202  1
  O  O198  1  0.13913567  0.28469485  0.25450390  1
  O  O199  1  0.13612462  0.29464336  0.59859304  1
  O  O200  1  0.13525970  0.27342233  0.91490130  1
  O  O201  1  0.12615766  0.78612799  0.25903905  1
  O  O202  1  0.12861031  0.78242096  0.59589003  1
  O  O203  1  0.13694955  0.78021372  0.92147247  1
  O  O204  1  0.63153496  0.27157622  0.25320467  1
  O  O205  1  0.62415070  0.28185211  0.60162551  1
  O  O206  1  0.63103179  0.27704041  0.92425654  1
  O  O207  1  0.63585650  0.78279887  0.25935439  1
  O  O208  1  0.61979418  0.78889951  0.59148527  1
  O  O209  1  0.63342923  0.78036247  0.92131073  1
  O  O210  1  0.21781541  0.37844496  0.23434652  1
  O  O211  1  0.21129524  0.38596844  0.56916660  1
  O  O212  1  0.21890416  0.37297997  0.91173903  1
  O  O213  1  0.22339978  0.86828287  0.24952798  1
  O  O214  1  0.21798289  0.86613804  0.57656094  1
  O  O215  1  0.22116370  0.87098024  0.90423966  1
  O  O216  1  0.71838972  0.36431591  0.24316933  1
  O  O217  1  0.71398728  0.36103230  0.57702332  1
  O  O218  1  0.72098943  0.36418707  0.90985845  1
  O  O219  1  0.72531852  0.86973951  0.24421320  1
  O  O220  1  0.71190407  0.87330609  0.57200034  1
  O  O221  1  0.72195174  0.86940596  0.90814522  1
  O  O222  1  0.41942635  0.13204685  0.15191122  1
  O  O223  1  0.41809965  0.13031866  0.48566957  1
  O  O224  1  0.41582347  0.13369977  0.82001736  1
  O  O225  1  0.43078934  0.63070148  0.14832860  1
  O  O226  1  0.42363935  0.64145705  0.48723523  1
  O  O227  1  0.42238066  0.63497289  0.82192927  1
  O  O228  1  0.91243895  0.11694485  0.14060576  1
  O  O229  1  0.91553633  0.12548438  0.47872912  1
  O  O230  1  0.92222100  0.12545947  0.81434940  1
  O  O231  1  0.91841888  0.63199844  0.15482750  1
  O  O232  1  0.92228440  0.63034422  0.48418813  1
  O  O233  1  0.92290980  0.62763551  0.81544730  1
  O  O234  1  0.37027939  0.07845789  0.01594517  1
  O  O235  1  0.36632801  0.07890215  0.34966780  1
  O  O236  1  0.36982022  0.08128966  0.68427103  1
  O  O237  1  0.37833800  0.57156466  0.01482994  1
  O  O238  1  0.36947545  0.58493342  0.35004676  1
  O  O239  1  0.37404424  0.58699398  0.68411565  1
  O  O240  1  0.85411129  0.08354131  0.00514606  1
  O  O241  1  0.86365447  0.08602674  0.34312396  1
  O  O242  1  0.86439170  0.08059288  0.67896579  1
  O  O243  1  0.86749243  0.57485040  0.01880096  1
  O  O244  1  0.86695330  0.58129494  0.34892547  1
  O  O245  1  0.87365911  0.58958045  0.67892974  1
  O  O246  1  0.07816202  0.37204624  0.18317934  1
  O  O247  1  0.07272045  0.36974294  0.51383772  1
  O  O248  1  0.08094183  0.36697635  0.84900864  1
  O  O249  1  0.08701488  0.87704322  0.18435785  1
  O  O250  1  0.08019008  0.86709504  0.51652854  1
  O  O251  1  0.08268782  0.86868072  0.84802627  1
  O  O252  1  0.58131296  0.35819672  0.17733395  1
  O  O253  1  0.57598261  0.36004771  0.51575510  1
  O  O254  1  0.58326672  0.36246579  0.84591931  1
  O  O255  1  0.58682885  0.87340340  0.18680865  1
  O  O256  1  0.57416388  0.87789128  0.51643745  1
  O  O257  1  0.58426878  0.86677471  0.84341584  1
  O  O258  1  0.13476142  0.42174893  0.31791373  1
  O  O259  1  0.12577726  0.43180922  0.64780927  1
  O  O260  1  0.12868343  0.40733275  0.98621931  1
  O  O261  1  0.13450721  0.92339776  0.32112049  1
  O  O262  1  0.13172161  0.92049595  0.65250077  1
  O  O263  1  0.13754767  0.91753919  0.98477734  1
  O  O264  1  0.62589485  0.40927417  0.31381338  1
  O  O265  1  0.62908968  0.42146266  0.65123134  1
  O  O266  1  0.63177576  0.41531158  0.98246288  1
  O  O267  1  0.63986762  0.92053862  0.32246426  1
  O  O268  1  0.62865955  0.92688891  0.65103333  1
  O  O269  1  0.62931410  0.91825758  0.97914771  1
  O  O270  1  0.02783040  0.19617191  0.09918148  1
  O  O271  1  0.03072266  0.20804510  0.43900010  1
  O  O272  1  0.03035297  0.19712038  0.77399583  1
  O  O273  1  0.03000810  0.69626803  0.10161595  1
  O  O274  1  0.03249353  0.70227793  0.43649908  1
  O  O275  1  0.03439767  0.70475743  0.77191968  1
  O  O276  1  0.53174634  0.19484570  0.10328817  1
  O  O277  1  0.53157363  0.19595980  0.43733484  1
  O  O278  1  0.52728536  0.19381538  0.76973016  1
  O  O279  1  0.54802618  0.69297505  0.10447793  1
  O  O280  1  0.52898164  0.70771564  0.43704232  1
  O  O281  1  0.53099441  0.69871918  0.76679239  1
  O  O282  1  0.31766985  0.45982901  0.06587885  1
  O  O283  1  0.29876851  0.46566177  0.38980957  1
  O  O284  1  0.29666207  0.46575789  0.73210862  1
  O  O285  1  0.29645065  0.97478142  0.06159256  1
  O  O286  1  0.30003011  0.97012363  0.39843478  1
  O  O287  1  0.30050675  0.97141241  0.72968142  1
  O  O288  1  0.80087571  0.45827771  0.06307618  1
  O  O289  1  0.81623244  0.46000067  0.39599873  1
  O  O290  1  0.79808575  0.46811736  0.73562521  1
  O  O291  1  0.79130430  0.96883903  0.05825074  1
  O  O292  1  0.80387285  0.97581466  0.39775169  1
  O  O293  1  0.79655271  0.96852504  0.72483057  1
  O  O294  1  0.46870806  0.29677806  0.22939983  1
  O  O295  1  0.46482055  0.28955730  0.55991993  1
  O  O296  1  0.47225339  0.30090468  0.89588762  1
  O  O297  1  0.47229474  0.80266361  0.23422274  1
  O  O298  1  0.45922822  0.80858603  0.56014964  1
  O  O299  1  0.47450474  0.80472110  0.89170019  1
  O  O300  1  0.96849520  0.30641795  0.23742987  1
  O  O301  1  0.96663729  0.30103639  0.56325030  1
  O  O302  1  0.96989329  0.29380778  0.89910205  1
  O  O303  1  0.96670023  0.80256464  0.23411428  1
  O  O304  1  0.96845067  0.80383440  0.56396842  1
  O  O305  1  0.97388137  0.80078207  0.89466746  1
  O  O306  1  0.20979048  0.02987389  0.27282669  1
  O  O307  1  0.20316730  0.02691323  0.60573808  1
  O  O308  1  0.20566211  0.03170765  0.93888253  1
  O  O309  1  0.20040581  0.53770998  0.27656586  1
  O  O310  1  0.19434192  0.55422149  0.60657971  1
  O  O311  1  0.19841853  0.53222329  0.93149725  1
  O  O312  1  0.70035702  0.03032578  0.26924905  1
  O  O313  1  0.70338889  0.03618649  0.60639256  1
  O  O314  1  0.69249185  0.02960923  0.93454366  1
  O  O315  1  0.69502834  0.52640467  0.26365378  1
  O  O316  1  0.69085341  0.53649045  0.60762260  1
  O  O317  1  0.70180987  0.52659877  0.93384695  1
  O  O318  1  0.09347750  0.09178294  0.04150005  1
  O  O319  1  0.09351306  0.09995539  0.38498054  1
  O  O320  1  0.08335387  0.08160903  0.71230604  1
  O  O321  1  0.09318110  0.59595025  0.03243347  1
  O  O322  1  0.08272331  0.58861382  0.36670264  1
  O  O323  1  0.08835133  0.59272468  0.70525484  1
  O  O324  1  0.58224498  0.08259129  0.03436972  1
  O  O325  1  0.58789251  0.08716605  0.36886414  1
  O  O326  1  0.57983791  0.08125105  0.70247550  1
  O  O327  1  0.58277052  0.57898733  0.02139990  1
  O  O328  1  0.58488616  0.59768912  0.37329367  1
  O  O329  1  0.59320456  0.59022162  0.70633669  1
  O  O330  1  0.43038671  0.42285281  0.14752669  1
  O  O331  1  0.40766428  0.40642237  0.45528075  1
  O  O332  1  0.40724323  0.41016294  0.79701720  1
  O  O333  1  0.41549637  0.93029880  0.12553626  1
  O  O334  1  0.40892451  0.91236533  0.46351361  1
  O  O335  1  0.41568062  0.91986415  0.79404523  1
  O  O336  1  0.90862805  0.40355004  0.13471020  1
  O  O337  1  0.91543262  0.40350787  0.47283205  1
  O  O338  1  0.90502583  0.40444269  0.79272799  1
  O  O339  1  0.90075889  0.90995321  0.11956084  1
  O  O340  1  0.91313944  0.91814343  0.46383234  1
  O  O341  1  0.90873988  0.91603115  0.79074017  1
  O  O342  1  0.41493272  0.40910272  0.29424346  1
  O  O343  1  0.41978485  0.40735539  0.62529758  1
  O  O344  1  0.41766063  0.41292001  0.96209488  1
  O  O345  1  0.41079110  0.90920617  0.29309211  1
  O  O346  1  0.40868499  0.91546789  0.63507304  1
  O  O347  1  0.42083769  0.91833813  0.95635555  1
  O  O348  1  0.90832211  0.41179807  0.30261964  1
  O  O349  1  0.92877661  0.41628797  0.64335245  1
  O  O350  1  0.91510753  0.40414016  0.96566648  1
  O  O351  1  0.91506977  0.91562573  0.30213101  1
  O  O352  1  0.91782821  0.91836811  0.63005461  1
  O  O353  1  0.90749715  0.90895349  0.94799199  1
  O  O354  1  0.09595923  0.08330910  0.21178775  1
  O  O355  1  0.08395944  0.06695558  0.53694937  1
  O  O356  1  0.09278735  0.08299232  0.87080119  1
  O  O357  1  0.08702251  0.59134000  0.21094382  1
  O  O358  1  0.08066271  0.59017042  0.52456868  1
  O  O359  1  0.09031893  0.58940294  0.86333704  1
  O  O360  1  0.58668664  0.08362982  0.20505897  1
  O  O361  1  0.59260268  0.09070784  0.54227198  1
  O  O362  1  0.57968676  0.08064811  0.86722203  1
  O  O363  1  0.58779030  0.58917140  0.20344228  1
  O  O364  1  0.55711693  0.54609076  0.53007377  1
  O  O365  1  0.59481666  0.58789043  0.87153095  1
  O  O366  1  0.13671662  0.22682762  0.05890887  1
  O  O367  1  0.13932205  0.23188140  0.39562463  1
  O  O368  1  0.13340619  0.21266801  0.72195505  1
  O  O369  1  0.13707088  0.73325117  0.06262043  1
  O  O370  1  0.13978234  0.72189419  0.39060456  1
  O  O371  1  0.14455019  0.72638734  0.73020400  1
  O  O372  1  0.63666808  0.21633062  0.05455128  1
  O  O373  1  0.63744467  0.22269666  0.39169687  1
  O  O374  1  0.63544188  0.21453269  0.72472641  1
  O  O375  1  0.64869315  0.71123787  0.05092901  1
  O  O376  1  0.63479685  0.73149974  0.39101129  1
  O  O377  1  0.64513604  0.72557290  0.73282027  1
  O  O378  1  0.29881675  0.35892561  0.12039235  1
  O  O379  1  0.27360808  0.36485029  0.44104023  1
  O  O380  1  0.27346890  0.35932202  0.77860948  1
  O  O381  1  0.28669016  0.86457185  0.10655693  1
  O  O382  1  0.27467620  0.86308751  0.44310383  1
  O  O383  1  0.28351987  0.86284735  0.77488691  1
  O  O384  1  0.77218979  0.35407623  0.10821346  1
  O  O385  1  0.77610514  0.36051812  0.44149480  1
  O  O386  1  0.77090378  0.35880517  0.77664033  1
  O  O387  1  0.76802841  0.86172176  0.10353029  1
  O  O388  1  0.77791643  0.86640305  0.43944217  1
  O  O389  1  0.77597508  0.86220155  0.77211564  1
  O  O390  1  0.35899619  0.27633500  0.27295217  1
  O  O391  1  0.35796682  0.27798621  0.60889685  1
  O  O392  1  0.36184328  0.27855861  0.93671670  1
  O  O393  1  0.36472507  0.77517455  0.27829125  1
  O  O394  1  0.35929880  0.77935720  0.61122756  1
  O  O395  1  0.36939205  0.78608459  0.94082106  1
  O  O396  1  0.85785270  0.27447019  0.27386867  1
  O  O397  1  0.86113142  0.28429642  0.61012955  1
  O  O398  1  0.85891432  0.26974392  0.93867196  1
  O  O399  1  0.86138816  0.78230438  0.28245915  1
  O  O400  1  0.86215339  0.78581643  0.61304999  1
  O  O401  1  0.87124620  0.77753209  0.94425462  1
  O  O402  1  0.22768713  0.13729944  0.22645448  1
  O  O403  1  0.21259101  0.13730931  0.56126409  1
  O  O404  1  0.22553503  0.13338517  0.88611145  1
  O  O405  1  0.21926849  0.63514584  0.21982110  1
  O  O406  1  0.21375440  0.64922037  0.54849003  1
  O  O407  1  0.22602516  0.64261608  0.89337617  1
  O  O408  1  0.71965245  0.13555551  0.22025975  1
  O  O409  1  0.72540475  0.14456070  0.56121187  1
  O  O410  1  0.71260489  0.13650884  0.88708220  1
  O  O411  1  0.72293939  0.63724373  0.22492753  1
  O  O412  1  0.66397584  0.63751713  0.54893328  1
  O  O413  1  0.73035619  0.63854559  0.89589815  1
  O  O414  1  0.49098732  0.33038366  0.02852672  1
  O  O415  1  0.48972377  0.32734562  0.36197153  1
  O  O416  1  0.48991046  0.32438986  0.69462995  1
  O  O417  1  0.50139538  0.84419709  0.02650750  1
  O  O418  1  0.49211985  0.83849636  0.36758753  1
  O  O419  1  0.49165267  0.83465892  0.69444786  1
  O  O420  1  0.98832981  0.32240147  0.03200044  1
  O  O421  1  0.98453944  0.33062484  0.36905614  1
  O  O422  1  0.99402228  0.32129615  0.69626133  1
  O  O423  1  0.99910210  0.85164920  0.02931655  1
  O  O424  1  0.99273012  0.83650164  0.36871411  1
  O  O425  1  0.99435531  0.84051314  0.69896216  1
  O  O426  1  0.17189094  0.00725878  0.13828029  1
  O  O427  1  0.17230193  0.00594507  0.47146599  1
  O  O428  1  0.16962161  0.00151269  0.80397668  1
  O  O429  1  0.15658782  0.50219276  0.14080237  1
  O  O430  1  0.16924205  0.51340518  0.47088559  1
  O  O431  1  0.17236239  0.51322847  0.79936168  1
  O  O432  1  0.66065357  0.00454382  0.13417493  1
  O  O433  1  0.67179811  0.01390521  0.47331034  1
  O  O434  1  0.66068492  0.00493364  0.80073521  1
  O  O435  1  0.66149597  0.50952180  0.13108940  1
  O  O436  1  0.65949777  0.50145835  0.47350450  1
  O  O437  1  0.67405326  0.51146211  0.80202423  1
  O  O438  1  0.01150341  0.16706249  0.30505310  1
  O  O439  1  0.00097291  0.15099199  0.63833265  1
  O  O440  1  0.01119985  0.16219935  0.96652381  1
  O  O441  1  0.00767861  0.67249155  0.30290334  1
  O  O442  1  0.01392108  0.67398315  0.63921524  1
  O  O443  1  0.00998403  0.67700093  0.97099397  1
  O  O444  1  0.50713242  0.16622910  0.30416454  1
  O  O445  1  0.50422562  0.16096587  0.63564115  1
  O  O446  1  0.50519789  0.16321186  0.96890949  1
  O  O447  1  0.50593086  0.67443874  0.30235057  1
  O  O448  1  0.51912677  0.67023128  0.63598893  1
  O  O449  1  0.51327046  0.67204465  0.96973383  1
  O  O450  1  0.33710736  0.49514143  0.19932975  1
  O  O451  1  0.33919062  0.49609320  0.52482778  1
  O  O452  1  0.33269295  0.49007446  0.86659937  1
  O  O453  1  0.33396213  0.99484971  0.19652302  1
  O  O454  1  0.33367745  0.99318195  0.53220147  1
  O  O455  1  0.33606695  0.99420446  0.86339939  1
  O  O456  1  0.82688816  0.48507693  0.19653329  1
  O  O457  1  0.83567510  0.49212538  0.52848415  1
  O  O458  1  0.83471204  0.48544916  0.86883683  1
  O  O459  1  0.82569093  0.99088071  0.19213161  1
  O  O460  1  0.83414045  0.99543170  0.53050788  1
  O  O461  1  0.82775299  0.99348671  0.85799795  1
