# generated using pymatgen
data_Na31Fe20(SO4)36
_symmetry_space_group_name_H-M   'P 1'
_cell_length_a   18.07275254
_cell_length_b   18.07284315
_cell_length_c   19.70759190
_cell_angle_alpha   107.59314259
_cell_angle_beta   107.60022992
_cell_angle_gamma   90.73165389
_symmetry_Int_Tables_number   1
_chemical_formula_structural   Na31Fe20(SO4)36
_chemical_formula_sum   'Na62 Fe40 S72 O288'
_cell_volume   5810.14591105
_cell_formula_units_Z   2
loop_
 _symmetry_equiv_pos_site_id
 _symmetry_equiv_pos_as_xyz
  1  'x, y, z'
loop_
 _atom_site_type_symbol
 _atom_site_label
 _atom_site_symmetry_multiplicity
 _atom_site_fract_x
 _atom_site_fract_y
 _atom_site_fract_z
 _atom_site_occupancy
  Na  Na0  1  0.13105195  0.37297910  0.08677694  1
  Na  Na1  1  0.13864926  0.36552549  0.41413070  1
  Na  Na2  1  0.12929848  0.37235426  0.75337729  1
  Na  Na3  1  0.13725526  0.86049366  0.08056335  1
  Na  Na4  1  0.13152455  0.85809206  0.41080501  1
  Na  Na5  1  0.13339508  0.86852247  0.75009748  1
  Na  Na6  1  0.63637466  0.35763126  0.06693423  1
  Na  Na7  1  0.63535213  0.36530640  0.41673389  1
  Na  Na8  1  0.63071039  0.37285160  0.75192496  1
  Na  Na9  1  0.63426321  0.85543083  0.07757694  1
  Na  Na10  1  0.63077306  0.84827969  0.41140317  1
  Na  Na11  1  0.65998889  0.87169452  0.77585818  1
  Na  Na12  1  0.35985395  0.13727459  0.24470276  1
  Na  Na13  1  0.36431156  0.13226126  0.58100407  1
  Na  Na14  1  0.37149181  0.14246163  0.92319597  1
  Na  Na15  1  0.37325047  0.65083872  0.26182318  1
  Na  Na16  1  0.35761782  0.63079181  0.57070795  1
  Na  Na17  1  0.36982249  0.63780133  0.92348515  1
  Na  Na18  1  0.86651571  0.12250976  0.24615133  1
  Na  Na19  1  0.86358190  0.12329037  0.57987180  1
  Na  Na20  1  0.85323392  0.13402093  0.92428259  1
  Na  Na21  1  0.85325960  0.62625644  0.23110475  1
  Na  Na22  1  0.86312235  0.63410342  0.58190877  1
  Na  Na23  1  0.87638022  0.64337449  0.92766466  1
  Na  Na24  1  0.48574742  0.52198132  0.41668283  1
  Na  Na25  1  0.93241492  0.00179753  0.70897816  1
  Na  Na26  1  0.97711352  -0.01998199  0.08631121  1
  Na  Na27  1  0.98853862  -0.00226441  0.41769688  1
  Na  Na28  1  0.49745394  0.00631406  0.08145510  1
  Na  Na29  1  0.50022024  0.53792757  0.08850053  1
  Na  Na30  1  0.48918758  0.05026916  0.75809042  1
  Na  Na31  1  1.01867464  0.49824110  0.40412920  1
  Na  Na32  1  0.50856148  -0.02496524  0.43221561  1
  Na  Na33  1  0.03447223  0.50153307  0.23567513  1
  Na  Na34  1  -0.01457952  1.00827383  0.92171334  1
  Na  Na35  1  0.50862593  0.97739646  0.25309590  1
  Na  Na36  1  0.48761280  0.52089114  0.24249124  1
  Na  Na37  1  0.51057316  0.95162755  0.58558045  1
  Na  Na38  1  -0.00128467  0.49663898  0.60124777  1
  Na  Na39  1  0.50540840  0.49048902  0.60172181  1
  Na  Na40  1  0.54667093  0.49341740  0.91784026  1
  Na  Na41  1  0.51961401  0.99859264  0.91293460  1
  Na  Na42  1  0.73937174  0.24232261  0.67371978  1
  Na  Na43  1  0.25847656  0.26406420  0.31552064  1
  Na  Na44  1  0.24176705  0.24450934  0.01417395  1
  Na  Na45  1  0.24812016  0.74697785  0.66753351  1
  Na  Na46  1  0.26352388  0.76280261  0.32737896  1
  Na  Na47  1  0.75847691  0.25302903  0.32732596  1
  Na  Na48  1  0.24766611  0.24819451  0.66700677  1
  Na  Na49  1  0.74544086  0.75175979  0.67738767  1
  Na  Na50  1  0.74018035  0.73952373  0.32181560  1
  Na  Na51  1  0.77611476  0.77417321  -0.01494824  1
  Na  Na52  1  0.75458600  0.74643194  0.15165184  1
  Na  Na53  1  0.75770851  0.25235074  0.14546596  1
  Na  Na54  1  0.73042009  0.23766658  0.85239951  1
  Na  Na55  1  0.25487195  0.25734772  0.49441088  1
  Na  Na56  1  0.74830737  0.24690053  0.50281168  1
  Na  Na57  1  0.25453066  0.75022319  0.49049154  1
  Na  Na58  1  0.24817061  0.25006803  0.83712953  1
  Na  Na59  1  0.26290180  0.75814521  0.15343178  1
  Na  Na60  1  0.24030652  0.74055436  0.84763552  1
  Na  Na61  1  0.75689614  0.75790987  0.49819974  1
  Fe  Fe62  1  0.46405163  0.80920789  0.78782911  1
  Fe  Fe63  1  0.96519352  0.81480835  0.78577904  1
  Fe  Fe64  1  0.46736618  0.80080322  0.11722901  1
  Fe  Fe65  1  0.47184458  0.30020548  0.79235922  1
  Fe  Fe66  1  0.96195097  0.31812591  0.79361613  1
  Fe  Fe67  1  0.46576507  0.30524173  0.45067180  1
  Fe  Fe68  1  0.46744173  0.30779146  0.12072258  1
  Fe  Fe69  1  0.96238435  0.80633618  0.45327448  1
  Fe  Fe70  1  0.96255471  0.30394287  0.11738243  1
  Fe  Fe71  1  0.96515513  0.30562451  0.45427358  1
  Fe  Fe72  1  0.19289308  0.03583152  0.04774734  1
  Fe  Fe73  1  0.69941995  0.02888012  0.04358821  1
  Fe  Fe74  1  0.18722552  0.53769492  0.04238145  1
  Fe  Fe75  1  0.18739434  0.03281211  0.37766814  1
  Fe  Fe76  1  0.19644717  0.53484493  0.71781757  1
  Fe  Fe77  1  0.70189858  0.03064561  0.71483748  1
  Fe  Fe78  1  0.69553745  0.54564956  0.71840352  1
  Fe  Fe79  1  0.18359301  0.03515009  0.71068850  1
  Fe  Fe80  1  0.69547129  0.02993393  0.38184201  1
  Fe  Fe81  1  0.68993775  0.53246585  0.37864300  1
  Fe  Fe82  1  0.03065461  0.69887159  0.20427099  1
  Fe  Fe83  1  0.03056374  0.19697865  0.88271131  1
  Fe  Fe84  1  0.53652629  0.19070556  0.21406902  1
  Fe  Fe85  1  0.03387746  0.19399029  0.55073862  1
  Fe  Fe86  1  0.03620117  0.69481133  0.88173812  1
  Fe  Fe87  1  0.53152462  0.19174290  0.54493418  1
  Fe  Fe88  1  0.52945051  0.70615908  0.54750288  1
  Fe  Fe89  1  0.03599853  0.19032974  0.21545045  1
  Fe  Fe90  1  0.03835001  0.68651693  0.54268294  1
  Fe  Fe91  1  0.53782989  0.68776197  0.87737790  1
  Fe  Fe92  1  0.30344914  0.96721298  0.61974281  1
  Fe  Fe93  1  0.80507997  0.46382399  0.28028406  1
  Fe  Fe94  1  0.80630335  0.95721636  0.28433852  1
  Fe  Fe95  1  0.80420130  0.46836430  0.95875595  1
  Fe  Fe96  1  0.80837006  0.46848635  0.62602262  1
  Fe  Fe97  1  0.30666484  0.96700629  0.95228617  1
  Fe  Fe98  1  0.29620557  0.47228667  0.28765930  1
  Fe  Fe99  1  0.30841133  0.46632231  0.95565590  1
  Fe  Fe100  1  0.30914308  0.46598802  0.62339036  1
  Fe  Fe101  1  0.30487151  0.96555297  0.28502785  1
  S  S102  1  0.36125446  0.13974612  0.08381920  1
  S  S103  1  0.35452664  0.14147319  0.41287583  1
  S  S104  1  0.35114646  0.14239487  0.74953326  1
  S  S105  1  0.35957994  0.63730044  0.08656090  1
  S  S106  1  0.36004029  0.64066648  0.41671854  1
  S  S107  1  0.36047075  0.64130367  0.74896374  1
  S  S108  1  0.86520472  0.13506392  0.08629641  1
  S  S109  1  0.86068805  0.13751971  0.41708771  1
  S  S110  1  0.85602757  0.15285113  0.75602327  1
  S  S111  1  0.86025164  0.63721868  0.08129781  1
  S  S112  1  0.86014597  0.63522145  0.41689173  1
  S  S113  1  0.86251869  0.64418117  0.74733812  1
  S  S114  1  0.13388367  0.36118079  0.25213867  1
  S  S115  1  0.13974812  0.36010945  0.58409286  1
  S  S116  1  0.14067146  0.35999457  0.91770009  1
  S  S117  1  0.14108781  0.86027356  0.24960883  1
  S  S118  1  0.14129486  0.85791746  0.58067294  1
  S  S119  1  0.14284803  0.86193784  0.91391522  1
  S  S120  1  0.64322919  0.35415276  0.25088049  1
  S  S121  1  0.63909155  0.36068410  0.58460391  1
  S  S122  1  0.64289568  0.36053175  0.91440065  1
  S  S123  1  0.63721060  0.85737035  0.24913538  1
  S  S124  1  0.64512084  0.86024084  0.58509547  1
  S  S125  1  0.63636786  0.85954790  0.91906348  1
  S  S126  1  0.06751444  0.17144857  0.04301008  1
  S  S127  1  0.06734465  0.17209904  0.38029320  1
  S  S128  1  0.06405674  0.17493185  0.71274586  1
  S  S129  1  0.07220537  0.67364434  0.04375012  1
  S  S130  1  0.06279832  0.66948104  0.37059155  1
  S  S131  1  0.07088703  0.67083463  0.70906108  1
  S  S132  1  0.56715249  0.16220850  0.04274227  1
  S  S133  1  0.56715668  0.16805660  0.37533259  1
  S  S134  1  0.56323791  0.16481693  0.70381428  1
  S  S135  1  0.56286013  0.66869853  0.03875823  1
  S  S136  1  0.56988256  0.66245646  0.37751289  1
  S  S137  1  0.56747240  0.67611588  0.70823664  1
  S  S138  1  0.32783180  0.43195347  0.12565509  1
  S  S139  1  0.33617049  0.43000289  0.46074888  1
  S  S140  1  0.33024197  0.42837539  0.79136448  1
  S  S141  1  0.33364017  0.93617188  0.12446667  1
  S  S142  1  0.32900417  0.93954286  0.45932983  1
  S  S143  1  0.32898926  0.93675618  0.79095902  1
  S  S144  1  0.83558830  0.42778321  0.12488249  1
  S  S145  1  0.83217213  0.43034356  0.46015558  1
  S  S146  1  0.82162150  0.43327932  0.78929071  1
  S  S147  1  0.82541169  0.92854165  0.12494824  1
  S  S148  1  0.82788783  0.93021328  0.45483806  1
  S  S149  1  0.83908617  0.94300707  0.79068385  1
  S  S150  1  0.43401367  0.33285070  0.29107979  1
  S  S151  1  0.43072436  0.32569147  0.62423107  1
  S  S152  1  0.43277908  0.33447014  0.96156031  1
  S  S153  1  0.43467735  0.84173733  0.29248418  1
  S  S154  1  0.42805221  0.83343377  0.62867926  1
  S  S155  1  0.43039765  0.83353811  0.95728356  1
  S  S156  1  0.93112694  0.32774346  0.29170188  1
  S  S157  1  0.93076296  0.32859576  0.62498040  1
  S  S158  1  0.92653591  0.32835911  0.95632849  1
  S  S159  1  0.93219222  0.82418103  0.29065187  1
  S  S160  1  0.93704305  0.82070066  0.61666980  1
  S  S161  1  0.94568413  0.83562949  0.95421023  1
  S  S162  1  0.16919799  0.06631955  0.20896844  1
  S  S163  1  0.16466817  0.06601826  0.54064976  1
  S  S164  1  0.16967978  0.07213643  0.87752327  1
  S  S165  1  0.17405539  0.57737497  0.20883367  1
  S  S166  1  0.16838312  0.56093802  0.54348708  1
  S  S167  1  0.17437255  0.56972999  0.87626490  1
  S  S168  1  0.67022950  0.06438362  0.20879448  1
  S  S169  1  0.66647409  0.07002044  0.54099203  1
  S  S170  1  0.66915184  0.06336127  0.87752558  1
  S  S171  1  0.66524610  0.55234983  0.20765883  1
  S  S172  1  0.66865717  0.56542829  0.54428266  1
  S  S173  1  0.67823261  0.57167749  0.87699288  1
  O  O174  1  0.37221001  0.21772450  0.07438138  1
  O  O175  1  0.36584703  0.22155769  0.40674136  1
  O  O176  1  0.36456632  0.22257130  0.74524703  1
  O  O177  1  0.36936840  0.71785640  0.08263180  1
  O  O178  1  0.36799350  0.71530996  0.40318496  1
  O  O179  1  0.36883373  0.72034566  0.74063435  1
  O  O180  1  0.87095419  0.21635518  0.08211537  1
  O  O181  1  0.86920274  0.21711502  0.40958692  1
  O  O182  1  0.86333711  0.23576179  0.75649073  1
  O  O183  1  0.86496291  0.71010289  0.06450619  1
  O  O184  1  0.86457947  0.71629130  0.41231739  1
  O  O185  1  0.87507809  0.72042710  0.73478496  1
  O  O186  1  0.28181726  0.13161436  0.09000826  1
  O  O187  1  0.27535440  0.13365609  0.42097279  1
  O  O188  1  0.26780077  0.13439345  0.74856195  1
  O  O189  1  0.27810951  0.62727428  0.08893663  1
  O  O190  1  0.28767801  0.62864724  0.43277472  1
  O  O191  1  0.28132285  0.63285512  0.75741033  1
  O  O192  1  0.78546453  0.12355166  0.09422405  1
  O  O193  1  0.78116000  0.12853767  0.42436867  1
  O  O194  1  0.77642098  0.13884328  0.76180740  1
  O  O195  1  0.79038826  0.62440301  0.10078680  1
  O  O196  1  0.78400822  0.62321526  0.43012363  1
  O  O197  1  0.78085970  0.63831880  0.74902980  1
  O  O198  1  0.12708126  0.28050776  0.25917410  1
  O  O199  1  0.13104848  0.28141776  0.59312122  1
  O  O200  1  0.13197890  0.27972855  0.92409439  1
  O  O201  1  0.12737348  0.78003656  0.25735454  1
  O  O202  1  0.13494972  0.77753268  0.58659227  1
  O  O203  1  0.13658388  0.78178994  0.91830468  1
  O  O204  1  0.63256785  0.27621622  0.26177077  1
  O  O205  1  0.62906941  0.28196498  0.59308044  1
  O  O206  1  0.63818553  0.28136620  0.91714147  1
  O  O207  1  0.62424613  0.78353962  0.26118179  1
  O  O208  1  0.62846644  0.78262781  0.59582676  1
  O  O209  1  0.62004193  0.78370455  0.93113144  1
  O  O210  1  0.21543087  0.37376750  0.25134894  1
  O  O211  1  0.21954514  0.36918633  0.57759742  1
  O  O212  1  0.21921194  0.36946110  0.90834833  1
  O  O213  1  0.22551519  0.86488875  0.25085580  1
  O  O214  1  0.21972544  0.86907130  0.57109062  1
  O  O215  1  0.22125033  0.87380403  0.90404638  1
  O  O216  1  0.72357080  0.36013562  0.24482492  1
  O  O217  1  0.71951405  0.36988520  0.57963443  1
  O  O218  1  0.72191826  0.37685360  0.90358285  1
  O  O219  1  0.71706958  0.86437295  0.24131600  1
  O  O220  1  0.72305628  0.86293058  0.57816731  1
  O  O221  1  0.71287147  0.86283538  0.91000427  1
  O  O222  1  0.41951187  0.13174242  0.15260313  1
  O  O223  1  0.41330008  0.13303304  0.48064990  1
  O  O224  1  0.40460374  0.13023310  0.81636038  1
  O  O225  1  0.41543971  0.62382242  0.15217681  1
  O  O226  1  0.42646062  0.63315479  0.48291930  1
  O  O227  1  0.41924396  0.63352121  0.81661128  1
  O  O228  1  0.92331887  0.13025500  0.15766415  1
  O  O229  1  0.91937809  0.13045266  0.48588930  1
  O  O230  1  0.91527088  0.14042115  0.82225825  1
  O  O231  1  0.92915007  0.63373698  0.14793150  1
  O  O232  1  0.92289286  0.62461136  0.48154070  1
  O  O233  1  0.91757478  0.63802731  0.81759532  1
  O  O234  1  0.37113086  0.07915279  0.01715333  1
  O  O235  1  0.36117110  0.08391989  0.34388785  1
  O  O236  1  0.36132486  0.08494620  0.68053008  1
  O  O237  1  0.36857352  0.58071739  0.01626574  1
  O  O238  1  0.36799457  0.57668105  0.34924090  1
  O  O239  1  0.36649364  0.58249737  0.67979817  1
  O  O240  1  0.87788284  0.07818294  0.02194865  1
  O  O241  1  0.87054805  0.07854929  0.35040974  1
  O  O242  1  0.86485508  0.10129691  0.68636319  1
  O  O243  1  0.86673284  0.57158164  0.01424667  1
  O  O244  1  0.86561785  0.57960103  0.34606468  1
  O  O245  1  0.87213015  0.58132061  0.68122407  1
  O  O246  1  0.07871656  0.36475407  0.17940915  1
  O  O247  1  0.08153491  0.36637786  0.51491057  1
  O  O248  1  0.08108215  0.36750301  0.85007060  1
  O  O249  1  0.08977381  0.87088428  0.18230061  1
  O  O250  1  0.08101203  0.86726449  0.51474253  1
  O  O251  1  0.08357137  0.87278263  0.84738272  1
  O  O252  1  0.58561710  0.35993244  0.18169758  1
  O  O253  1  0.58189842  0.36489752  0.51348587  1
  O  O254  1  0.58234774  0.36880165  0.84474919  1
  O  O255  1  0.58067263  0.86747224  0.17966329  1
  O  O256  1  0.58546783  0.87177542  0.51966543  1
  O  O257  1  0.57571423  0.87041548  0.85206934  1
  O  O258  1  0.11692712  0.41827565  0.31477072  1
  O  O259  1  0.12950075  0.41977680  0.65072010  1
  O  O260  1  0.13515300  0.41761802  0.98694563  1
  O  O261  1  0.13409215  0.91723049  0.31998509  1
  O  O262  1  0.13694694  0.91479733  0.65157471  1
  O  O263  1  0.13743595  0.91961846  0.98383642  1
  O  O264  1  0.63550099  0.41369682  0.31868403  1
  O  O265  1  0.62651162  0.42147739  0.64902199  1
  O  O266  1  0.63381842  0.41971563  0.97987394  1
  O  O267  1  0.62871450  0.92303807  0.31468025  1
  O  O268  1  0.63822674  0.92036040  0.65507639  1
  O  O269  1  0.62784282  0.92249428  0.98660344  1
  O  O270  1  0.03240012  0.20011729  0.10505994  1
  O  O271  1  0.02988843  0.20268298  0.44113763  1
  O  O272  1  0.02562064  0.20533184  0.77199689  1
  O  O273  1  0.03704200  0.69936988  0.10547825  1
  O  O274  1  0.02512677  0.70237164  0.43117871  1
  O  O275  1  0.03606197  0.70121756  0.77025488  1
  O  O276  1  0.53381230  0.19176200  0.10742772  1
  O  O277  1  0.52901723  0.19838457  0.43523428  1
  O  O278  1  0.52369532  0.19132866  0.76157636  1
  O  O279  1  0.52474306  0.70050948  0.09709985  1
  O  O280  1  0.54819029  0.69278143  0.44632387  1
  O  O281  1  0.53085687  0.70261096  0.76988589  1
  O  O282  1  0.30041083  0.46747637  0.06393836  1
  O  O283  1  0.31514432  0.46240532  0.39896057  1
  O  O284  1  0.30188614  0.46778696  0.73148605  1
  O  O285  1  0.29949792  0.97175168  0.06305998  1
  O  O286  1  0.29547955  0.97621579  0.39857542  1
  O  O287  1  0.29853901  0.97349664  0.73002889  1
  O  O288  1  0.81194259  0.45640898  0.05937392  1
  O  O289  1  0.80384175  0.46320370  0.39742235  1
  O  O290  1  0.79640816  0.47856767  0.73398233  1
  O  O291  1  0.79085935  0.96693096  0.06665768  1
  O  O292  1  0.79673128  0.96526428  0.39050361  1
  O  O293  1  0.80811450  0.97655956  0.72817786  1
  O  O294  1  0.47090792  0.30149089  0.23028163  1
  O  O295  1  0.46698724  0.29637513  0.56241457  1
  O  O296  1  0.46724202  0.31319213  0.90053713  1
  O  O297  1  0.46087325  0.82598608  0.22588028  1
  O  O298  1  0.46251296  0.80666555  0.56755153  1
  O  O299  1  0.46211222  0.80266032  0.89364987  1
  O  O300  1  0.96826086  0.29848366  0.23184970  1
  O  O301  1  0.96970159  0.29878268  0.56510818  1
  O  O302  1  0.97066939  0.30430993  0.90007293  1
  O  O303  1  0.96992916  0.79503909  0.23180916  1
  O  O304  1  0.97692428  0.78517585  0.55782200  1
  O  O305  1  0.97790146  0.79726123  0.88836329  1
  O  O306  1  0.19819887  0.02736393  0.26859567  1
  O  O307  1  0.19336839  0.02974244  0.60185287  1
  O  O308  1  0.20095330  0.03552338  0.93840435  1
  O  O309  1  0.19596006  0.53751283  0.26644520  1
  O  O310  1  0.20180690  0.52988677  0.60893139  1
  O  O311  1  0.20241140  0.53005782  0.93542223  1
  O  O312  1  0.70125081  0.02947159  0.27050908  1
  O  O313  1  0.69027391  0.04086912  0.60492545  1
  O  O314  1  0.69799492  0.02812179  0.93928040  1
  O  O315  1  0.70544565  0.52282355  0.27536234  1
  O  O316  1  0.70118072  0.52864603  0.60537051  1
  O  O317  1  0.70797851  0.53117040  0.93386485  1
  O  O318  1  0.08758165  0.09004845  0.03763679  1
  O  O319  1  0.08607644  0.09187191  0.37863879  1
  O  O320  1  0.08402648  0.09500359  0.71076694  1
  O  O321  1  0.08881864  0.59158648  0.03313075  1
  O  O322  1  0.07071702  0.58685149  0.36340541  1
  O  O323  1  0.09184637  0.59014660  0.70556425  1
  O  O324  1  0.59353985  0.08230731  0.04340579  1
  O  O325  1  0.58463181  0.08646144  0.36958773  1
  O  O326  1  0.58274423  0.08323455  0.69892405  1
  O  O327  1  0.57428101  0.58676012  0.03281178  1
  O  O328  1  0.58369235  0.57659005  0.36836770  1
  O  O329  1  0.58701504  0.59435147  0.70151806  1
  O  O330  1  0.40993536  0.41244175  0.13282628  1
  O  O331  1  0.42066539  0.41320839  0.47637569  1
  O  O332  1  0.40906189  0.40561984  0.79447544  1
  O  O333  1  0.41557017  0.92162408  0.12594653  1
  O  O334  1  0.41159794  0.93067530  0.46819550  1
  O  O335  1  0.41157262  0.92104463  0.79811844  1
  O  O336  1  0.91945028  0.41142644  0.14073257  1
  O  O337  1  0.91562835  0.41395072  0.46981722  1
  O  O338  1  0.90080227  0.41281337  0.79082667  1
  O  O339  1  0.90380358  0.91210874  0.12546984  1
  O  O340  1  0.90773705  0.90926332  0.45326710  1
  O  O341  1  0.92094882  0.92259190  0.78920270  1
  O  O342  1  0.41592819  0.41403106  0.29596463  1
  O  O343  1  0.41373044  0.40745614  0.62901970  1
  O  O344  1  0.41619401  0.41828763  0.97801970  1
  O  O345  1  0.41347594  0.92606096  0.30887177  1
  O  O346  1  0.41167538  0.91720740  0.63646281  1
  O  O347  1  0.41561754  0.91714451  0.96345721  1
  O  O348  1  0.91122857  0.40901626  0.29703935  1
  O  O349  1  0.91101551  0.40868014  0.62546514  1
  O  O350  1  0.89965796  0.40563379  0.95603247  1
  O  O351  1  0.91288713  0.90543073  0.29574974  1
  O  O352  1  0.91939818  0.89735290  0.61171172  1
  O  O353  1  0.92741117  0.91401894  0.95087562  1
  O  O354  1  0.08732092  0.08303514  0.20243805  1
  O  O355  1  0.08379318  0.08653306  0.53591423  1
  O  O356  1  0.08944559  0.09173559  0.87525775  1
  O  O357  1  0.09429611  0.60384377  0.20617297  1
  O  O358  1  0.08621034  0.57981812  0.54121585  1
  O  O359  1  0.09713354  0.59511128  0.87483735  1
  O  O360  1  0.58709316  0.07972039  0.20428426  1
  O  O361  1  0.58283207  0.08842375  0.52667570  1
  O  O362  1  0.58514058  0.07069659  0.86499245  1
  O  O363  1  0.58572881  0.56668855  0.20999847  1
  O  O364  1  0.58646411  0.57894437  0.53968572  1
  O  O365  1  0.59788251  0.59012159  0.87779498  1
  O  O366  1  0.13547393  0.22509970  0.05574708  1
  O  O367  1  0.13775463  0.22539761  0.39665576  1
  O  O368  1  0.13447880  0.22876820  0.72877077  1
  O  O369  1  0.14317291  0.72632858  0.06140473  1
  O  O370  1  0.13768063  0.71793378  0.39083120  1
  O  O371  1  0.14134738  0.72397370  0.72330926  1
  O  O372  1  0.63419493  0.21722075  0.05581716  1
  O  O373  1  0.63872322  0.22048704  0.39310393  1
  O  O374  1  0.63369062  0.21887531  0.72141844  1
  O  O375  1  0.63614865  0.71785523  0.05556958  1
  O  O376  1  0.64353061  0.70785750  0.38652235  1
  O  O377  1  0.63695213  0.72932596  0.72468046  1
  O  O378  1  0.27417874  0.36260066  0.11022793  1
  O  O379  1  0.28353514  0.35790555  0.44292879  1
  O  O380  1  0.27263714  0.36028592  0.77344007  1
  O  O381  1  0.28430902  0.86522872  0.11175360  1
  O  O382  1  0.28078592  0.86472232  0.44083570  1
  O  O383  1  0.27822426  0.86430157  0.77339525  1
  O  O384  1  0.78352495  0.35830460  0.11190105  1
  O  O385  1  0.78132371  0.35797160  0.44496327  1
  O  O386  1  0.76444163  0.36414952  0.76513215  1
  O  O387  1  0.77276255  0.85693027  0.10900089  1
  O  O388  1  0.77486258  0.85846886  0.43653753  1
  O  O389  1  0.78994269  0.87108465  0.77746630  1
  O  O390  1  0.36443839  0.27971849  0.27619053  1
  O  O391  1  0.35780755  0.27427167  0.60577414  1
  O  O392  1  0.36037869  0.28219202  0.94298676  1
  O  O393  1  0.36470364  0.78714651  0.27562217  1
  O  O394  1  0.35530442  0.78283251  0.61253198  1
  O  O395  1  0.35929440  0.78432538  0.94494950  1
  O  O396  1  0.86138563  0.27375131  0.27604373  1
  O  O397  1  0.86032729  0.27503564  0.60775657  1
  O  O398  1  0.86081101  0.26952010  0.93798121  1
  O  O399  1  0.86088935  0.77168396  0.27492127  1
  O  O400  1  0.86674485  0.76720576  0.60078675  1
  O  O401  1  0.87674732  0.78322843  0.94186639  1
  O  O402  1  0.22149200  0.13776373  0.22768006  1
  O  O403  1  0.21833527  0.13618062  0.55624862  1
  O  O404  1  0.22340433  0.14262667  0.89357865  1
  O  O405  1  0.23067819  0.64517180  0.22527244  1
  O  O406  1  0.21824477  0.63297806  0.55732183  1
  O  O407  1  0.23252288  0.63475032  0.88980628  1
  O  O408  1  0.71990404  0.13702025  0.22463438  1
  O  O409  1  0.71854755  0.14085261  0.55381982  1
  O  O410  1  0.71683801  0.13766755  0.89689358  1
  O  O411  1  0.71352590  0.62548878  0.22105510  1
  O  O412  1  0.71892598  0.63811447  0.56132010  1
  O  O413  1  0.72993410  0.64168458  0.89116727  1
  O  O414  1  0.49201680  0.32757752  0.03118249  1
  O  O415  1  0.49431463  0.33550715  0.36418705  1
  O  O416  1  0.48846094  0.32459189  0.69548546  1
  O  O417  1  0.49163615  0.83616790  0.02900851  1
  O  O418  1  0.49798531  0.84128187  0.35918095  1
  O  O419  1  0.48728740  0.83480921  0.70087310  1
  O  O420  1  0.98606868  0.33497433  0.03016825  1
  O  O421  1  0.99097566  0.33350081  0.36574710  1
  O  O422  1  0.98875352  0.33327310  0.69837217  1
  O  O423  1  1.00790547  0.84412751  0.02509532  1
  O  O424  1  0.99081569  0.83019988  0.36552765  1
  O  O425  1  0.99427952  0.82606839  0.69173995  1
  O  O426  1  0.16935564  0.00831242  0.13640780  1
  O  O427  1  0.16023153  0.00589538  0.46803207  1
  O  O428  1  0.16631162  0.01266900  0.80467451  1
  O  O429  1  0.16636121  0.51751402  0.13479002  1
  O  O430  1  0.16185455  0.49964015  0.47319384  1
  O  O431  1  0.16735669  0.50781920  0.80271773  1
  O  O432  1  0.66787033  0.00601195  0.13595366  1
  O  O433  1  0.66575786  0.00713801  0.47019862  1
  O  O434  1  0.67771914  0.00732695  0.80671598  1
  O  O435  1  0.66272277  0.49092291  0.13896611  1
  O  O436  1  0.66925044  0.50674961  0.47204301  1
  O  O437  1  0.66832070  0.51399709  0.80051097  1
  O  O438  1  0.00877447  0.16911134  0.30764222  1
  O  O439  1  0.00606821  0.17053263  0.63867083  1
  O  O440  1  0.00484460  0.16557526  0.97051531  1
  O  O441  1  0.00874387  0.67371282  0.29691498  1
  O  O442  1  0.01087512  0.66399424  0.63544612  1
  O  O443  1  0.01273309  0.67611048  0.97301232  1
  O  O444  1  0.50852272  0.16710371  0.30276406  1
  O  O445  1  0.50536263  0.16122363  0.62911135  1
  O  O446  1  0.50398085  0.14994586  0.97228172  1
  O  O447  1  0.50594418  0.66126779  0.31061989  1
  O  O448  1  0.50614694  0.67271526  0.63610551  1
  O  O449  1  0.50615596  0.66974895  0.96427345  1
  O  O450  1  0.33149677  0.49280920  0.19813782  1
  O  O451  1  0.33299077  0.48931164  0.53175282  1
  O  O452  1  0.33379308  0.48788663  0.86424183  1
  O  O453  1  0.33809806  0.99599363  0.19790514  1
  O  O454  1  0.32355912  0.99574992  0.53119654  1
  O  O455  1  0.32909790  0.99559885  0.86304127  1
  O  O456  1  0.83334624  0.49142406  0.19356455  1
  O  O457  1  0.83251375  0.49029998  0.53183126  1
  O  O458  1  0.82470825  0.48725147  0.86464247  1
  O  O459  1  0.82751495  0.98651812  0.19975081  1
  O  O460  1  0.83222677  0.99004262  0.52455561  1
  O  O461  1  0.84929247  1.00309153  0.86297753  1
