# generated using pymatgen
data_Na31Fe20(SO4)36
_symmetry_space_group_name_H-M   'P 1'
_cell_length_a   18.06591828
_cell_length_b   18.06711935
_cell_length_c   19.69952895
_cell_angle_alpha   107.59889100
_cell_angle_beta   107.57685601
_cell_angle_gamma   90.69994129
_symmetry_Int_Tables_number   1
_chemical_formula_structural   Na31Fe20(SO4)36
_chemical_formula_sum   'Na62 Fe40 S72 O288'
_cell_volume   5804.78228062
_cell_formula_units_Z   2
loop_
 _symmetry_equiv_pos_site_id
 _symmetry_equiv_pos_as_xyz
  1  'x, y, z'
loop_
 _atom_site_type_symbol
 _atom_site_label
 _atom_site_symmetry_multiplicity
 _atom_site_fract_x
 _atom_site_fract_y
 _atom_site_fract_z
 _atom_site_occupancy
  Na  Na0  1  0.12524619  0.35887010  0.06930197  1
  Na  Na1  1  0.14607498  0.37464472  0.43593421  1
  Na  Na2  1  0.13938323  0.36064529  0.74504402  1
  Na  Na3  1  0.12858981  0.87095561  0.07808247  1
  Na  Na4  1  0.13445294  0.86614036  0.41475380  1
  Na  Na5  1  0.14741961  0.87130854  0.76074587  1
  Na  Na6  1  0.63628319  0.36368174  0.08339767  1
  Na  Na7  1  0.63277016  0.35595281  0.40517383  1
  Na  Na8  1  0.63727611  0.37379459  0.75410629  1
  Na  Na9  1  0.62744406  0.86023308  0.08729463  1
  Na  Na10  1  0.62612305  0.86385563  0.41211285  1
  Na  Na11  1  0.62687498  0.86301051  0.75501521  1
  Na  Na12  1  0.37434359  0.12550097  0.24869723  1
  Na  Na13  1  0.36262982  0.15218549  0.59248026  1
  Na  Na14  1  0.36211519  0.14101043  0.91647548  1
  Na  Na15  1  0.36896227  0.62738323  0.24515773  1
  Na  Na16  1  0.36887896  0.63351318  0.59480863  1
  Na  Na17  1  0.37215531  0.63371240  0.91854655  1
  Na  Na18  1  0.84999911  0.15363437  0.24891029  1
  Na  Na19  1  0.86110283  0.13144200  0.57923280  1
  Na  Na20  1  0.87230200  0.14015325  0.92413614  1
  Na  Na21  1  0.84784528  0.62742021  0.22488439  1
  Na  Na22  1  0.87116131  0.63166005  0.58507157  1
  Na  Na23  1  0.86150732  0.62867452  0.90678112  1
  Na  Na24  1  0.50312041  0.51366855  0.09001490  1
  Na  Na25  1  0.98551792  0.50055566  0.43749674  1
  Na  Na26  1  0.97660698  0.50641127  0.08455814  1
  Na  Na27  1  0.47024523  0.51443642  0.74042380  1
  Na  Na28  1  1.00277535  0.51126279  0.72366363  1
  Na  Na29  1  0.49224083  0.04535189  0.77898472  1
  Na  Na30  1  0.98846202  0.03876829  0.76072077  1
  Na  Na31  1  0.98896590  0.01047868  0.40956686  1
  Na  Na32  1  0.49513666  0.51082020  0.40830106  1
  Na  Na33  1  0.00794812  0.48689391  0.91354573  1
  Na  Na34  1  0.50395826  0.99902382  0.57397222  1
  Na  Na35  1  0.00809821  0.99970317  0.92720816  1
  Na  Na36  1  0.00735561  0.48874079  0.25890568  1
  Na  Na37  1  -0.00618559  1.01756539  0.22679154  1
  Na  Na38  1  0.46660039  1.00560229  0.94623778  1
  Na  Na39  1  0.01400194  0.99086715  0.58436895  1
  Na  Na40  1  0.55978888  0.49217972  0.92877929  1
  Na  Na41  1  0.53683475  0.48246852  0.59320258  1
  Na  Na42  1  0.74034383  0.73311783  0.67633245  1
  Na  Na43  1  0.26448129  0.76161142  0.66754690  1
  Na  Na44  1  0.25688653  0.75468899  0.32445464  1
  Na  Na45  1  0.73385170  0.23375079  0.01161689  1
  Na  Na46  1  0.28080587  0.77782811  -0.00108933  1
  Na  Na47  1  0.75736357  0.75384862  0.31360048  1
  Na  Na48  1  0.74652872  0.24838680  0.66633513  1
  Na  Na49  1  0.24284119  0.24512250  -0.00470516  1
  Na  Na50  1  0.73613104  0.72982719  0.01871268  1
  Na  Na51  1  0.25424438  0.25666070  0.33661827  1
  Na  Na52  1  0.24560576  0.25466175  0.51620394  1
  Na  Na53  1  0.26642422  0.76399612  0.15619662  1
  Na  Na54  1  0.25566460  0.75315007  0.49888706  1
  Na  Na55  1  0.73921108  0.73410663  0.83899763  1
  Na  Na56  1  0.29436435  0.79099765  0.83985499  1
  Na  Na57  1  0.25220211  0.25112528  0.16377643  1
  Na  Na58  1  0.73753727  0.23928773  0.84062510  1
  Na  Na59  1  0.75058548  0.74702674  0.49938733  1
  Na  Na60  1  0.25161982  0.25850623  0.82548502  1
  Na  Na61  1  0.75730005  0.25602075  0.48572194  1
  Fe  Fe62  1  0.46327603  0.80828824  0.45422582  1
  Fe  Fe63  1  0.97118445  0.80622659  0.78411552  1
  Fe  Fe64  1  0.96749610  0.80620596  0.11556324  1
  Fe  Fe65  1  0.46829974  0.30331251  0.78785542  1
  Fe  Fe66  1  0.96482309  0.29971427  0.78942464  1
  Fe  Fe67  1  0.96554787  0.80450231  0.44806316  1
  Fe  Fe68  1  0.46524541  0.30683268  0.45331262  1
  Fe  Fe69  1  0.96384658  0.30468801  0.11771183  1
  Fe  Fe70  1  0.46682570  0.30446599  0.11945497  1
  Fe  Fe71  1  0.95749910  0.30879367  0.45137651  1
  Fe  Fe72  1  0.68435860  0.53389504  0.37391945  1
  Fe  Fe73  1  0.68657548  0.03359922  0.37577944  1
  Fe  Fe74  1  0.19196359  0.53273430  0.04939370  1
  Fe  Fe75  1  0.19253516  0.04190973  0.72142424  1
  Fe  Fe76  1  0.20385569  0.53060386  0.71366527  1
  Fe  Fe77  1  0.69183765  0.03096076  0.71698664  1
  Fe  Fe78  1  0.20128718  0.03436962  0.04283813  1
  Fe  Fe79  1  0.19693032  0.53223412  0.38460654  1
  Fe  Fe80  1  0.69015521  0.03198860  0.04776038  1
  Fe  Fe81  1  0.19030834  0.03690130  0.37816156  1
  Fe  Fe82  1  0.53469051  0.18404498  0.54091113  1
  Fe  Fe83  1  0.53224384  0.70032281  0.87941818  1
  Fe  Fe84  1  0.03691224  0.69666199  0.54965630  1
  Fe  Fe85  1  0.03223064  0.19510911  0.54944628  1
  Fe  Fe86  1  0.04237657  0.69265609  0.88289446  1
  Fe  Fe87  1  0.03613844  0.69230054  0.21393766  1
  Fe  Fe88  1  0.54065275  0.18202135  0.20939153  1
  Fe  Fe89  1  0.53215325  0.70029032  0.20797958  1
  Fe  Fe90  1  0.53137201  0.69589737  0.55159857  1
  Fe  Fe91  1  0.03402056  0.19390965  0.21233001  1
  Fe  Fe92  1  0.30648237  0.46675306  0.95164974  1
  Fe  Fe93  1  0.79476802  0.47224063  0.95130427  1
  Fe  Fe94  1  0.30815971  0.97045052  0.62041824  1
  Fe  Fe95  1  0.79937137  0.46700046  0.62153288  1
  Fe  Fe96  1  0.81241829  0.95946497  0.95444324  1
  Fe  Fe97  1  0.30651385  0.46364234  0.28540183  1
  Fe  Fe98  1  0.80119219  0.46235367  0.28249287  1
  Fe  Fe99  1  0.31070497  0.96582046  0.28684406  1
  Fe  Fe100  1  0.80377611  0.96033128  0.27883566  1
  Fe  Fe101  1  0.80749526  0.96302069  0.61915086  1
  S  S102  1  0.36145543  0.14279120  0.08312256  1
  S  S103  1  0.35552260  0.14224453  0.41843723  1
  S  S104  1  0.35423923  0.14645503  0.74628447  1
  S  S105  1  0.35538942  0.63827002  0.08722140  1
  S  S106  1  0.35850675  0.63989991  0.41603216  1
  S  S107  1  0.35916567  0.64007189  0.75477056  1
  S  S108  1  0.86185078  0.13559498  0.08335926  1
  S  S109  1  0.86019838  0.13555189  0.41351372  1
  S  S110  1  0.85345885  0.13793992  0.75023506  1
  S  S111  1  0.86443614  0.63970069  0.08000231  1
  S  S112  1  0.86027708  0.63724471  0.41509196  1
  S  S113  1  0.86909507  0.63962988  0.74749091  1
  S  S114  1  0.13872296  0.35974758  0.25204568  1
  S  S115  1  0.12945381  0.36423410  0.58292648  1
  S  S116  1  0.13731043  0.36268285  0.91438458  1
  S  S117  1  0.13993228  0.86020088  0.24972200  1
  S  S118  1  0.13951370  0.86402358  0.58277366  1
  S  S119  1  0.14077322  0.86218993  0.91900716  1
  S  S120  1  0.63750613  0.35699328  0.24843739  1
  S  S121  1  0.64188235  0.35042448  0.57704460  1
  S  S122  1  0.64478837  0.35181809  0.91378751  1
  S  S123  1  0.64535608  0.85918435  0.25510440  1
  S  S124  1  0.64261764  0.85789121  0.58497903  1
  S  S125  1  0.64888484  0.85678463  0.92194939  1
  S  S126  1  0.07111628  0.16940086  0.04353266  1
  S  S127  1  0.06632928  0.17226600  0.37589775  1
  S  S128  1  0.06002676  0.16739438  0.70745405  1
  S  S129  1  0.07012698  0.66615686  0.04315275  1
  S  S130  1  0.06874469  0.66996148  0.37590004  1
  S  S131  1  0.08117322  0.67532755  0.71353548  1
  S  S132  1  0.56223397  0.16522687  0.04003985  1
  S  S133  1  0.56645725  0.16859075  0.37664626  1
  S  S134  1  0.56434609  0.16374355  0.70417899  1
  S  S135  1  0.56302144  0.66961686  0.04399178  1
  S  S136  1  0.56402202  0.67333250  0.37828848  1
  S  S137  1  0.56175628  0.66880075  0.71066911  1
  S  S138  1  0.32507542  0.42658267  0.12255945  1
  S  S139  1  0.33664825  0.43858929  0.45981116  1
  S  S140  1  0.33339856  0.42997941  0.79400149  1
  S  S141  1  0.32245485  0.93314118  0.12332560  1
  S  S142  1  0.32534990  0.93473213  0.45566349  1
  S  S143  1  0.33444468  0.94997474  0.78718488  1
  S  S144  1  0.83340042  0.43045015  0.12343499  1
  S  S145  1  0.82343108  0.43174171  0.45625683  1
  S  S146  1  0.83157317  0.42940904  0.78958048  1
  S  S147  1  0.83347904  0.93034803  0.12376409  1
  S  S148  1  0.83633127  0.93151938  0.45795564  1
  S  S149  1  0.83483889  0.92966603  0.79064573  1
  S  S150  1  0.43080958  0.32922682  0.29055072  1
  S  S151  1  0.44439900  0.33048887  0.62267717  1
  S  S152  1  0.42847465  0.33372634  0.95905541  1
  S  S153  1  0.42921414  0.82559254  0.29253944  1
  S  S154  1  0.43475649  0.83784227  0.62327196  1
  S  S155  1  0.44028093  0.82824626  0.95791161  1
  S  S156  1  0.93626104  0.33696581  0.29565434  1
  S  S157  1  0.92409619  0.32432790  0.62370081  1
  S  S158  1  0.92747514  0.33378121  0.95731650  1
  S  S159  1  0.93464638  0.82799284  0.28952525  1
  S  S160  1  0.93700845  0.83280746  0.62394461  1
  S  S161  1  0.93401345  0.82491025  0.95226674  1
  S  S162  1  0.17260863  0.07121017  0.20942913  1
  S  S163  1  0.16404085  0.06806171  0.53777886  1
  S  S164  1  0.16332641  0.06444469  0.87729906  1
  S  S165  1  0.16468746  0.56250425  0.20966581  1
  S  S166  1  0.17089572  0.57577120  0.54417363  1
  S  S167  1  0.16837761  0.56903141  0.87650373  1
  S  S168  1  0.67201464  0.06433625  0.21083527  1
  S  S169  1  0.67203179  0.06159342  0.54324447  1
  S  S170  1  0.67705119  0.06100309  0.88181108  1
  S  S171  1  0.66486389  0.56597558  0.20910971  1
  S  S172  1  0.66822395  0.56709003  0.53972010  1
  S  S173  1  0.66758732  0.56883616  0.87026740  1
  O  O174  1  0.36504246  0.22486965  0.07880837  1
  O  O175  1  0.36575879  0.22287502  0.41395417  1
  O  O176  1  0.36758816  0.22404035  0.73722367  1
  O  O177  1  0.35406070  0.71744994  0.08336101  1
  O  O178  1  0.36478271  0.71968562  0.40936492  1
  O  O179  1  0.35898027  0.71932891  0.74927589  1
  O  O180  1  0.87342343  0.21409157  0.07383209  1
  O  O181  1  0.86901598  0.21496584  0.40694485  1
  O  O182  1  0.86325791  0.21713910  0.74306970  1
  O  O183  1  0.87823319  0.71748424  0.07012164  1
  O  O184  1  0.87081979  0.71605868  0.40649589  1
  O  O185  1  0.88340506  0.71481841  0.73210481  1
  O  O186  1  0.27983997  0.13185877  0.09034019  1
  O  O187  1  0.27520151  0.13358233  0.42522087  1
  O  O188  1  0.27167915  0.13962380  0.74802091  1
  O  O189  1  0.28196228  0.61948852  0.10404584  1
  O  O190  1  0.27901906  0.62940864  0.42287313  1
  O  O191  1  0.28736468  0.62367498  0.77393493  1
  O  O192  1  0.78179767  0.12782120  0.08812421  1
  O  O193  1  0.78310929  0.12574095  0.42484407  1
  O  O194  1  0.77126382  0.12871374  0.75232350  1
  O  O195  1  0.78974917  0.63396161  0.09198080  1
  O  O196  1  0.78235695  0.63004029  0.42517620  1
  O  O197  1  0.79214770  0.63773854  0.75697738  1
  O  O198  1  0.13012868  0.28224502  0.26298314  1
  O  O199  1  0.11896595  0.28618822  0.59379980  1
  O  O200  1  0.13162581  0.28888240  0.92868727  1
  O  O201  1  0.12898652  0.78271254  0.26130586  1
  O  O202  1  0.13232365  0.78550324  0.59216125  1
  O  O203  1  0.12653458  0.78919233  0.93671921  1
  O  O204  1  0.62682120  0.27974016  0.25824361  1
  O  O205  1  0.63482372  0.26715587  0.57579831  1
  O  O206  1  0.64509309  0.27079515  0.91360853  1
  O  O207  1  0.63158691  0.78091912  0.26476165  1
  O  O208  1  0.63248638  0.77748144  0.58940544  1
  O  O209  1  0.63637945  0.77420886  0.92546825  1
  O  O210  1  0.21804194  0.36736213  0.24464269  1
  O  O211  1  0.20174594  0.37076052  0.56537197  1
  O  O212  1  0.21566930  0.37594834  0.90548226  1
  O  O213  1  0.22027744  0.86666294  0.24492775  1
  O  O214  1  0.21769079  0.87281446  0.57295267  1
  O  O215  1  0.21782877  0.86542918  0.91049761  1
  O  O216  1  0.71654683  0.36869055  0.24192360  1
  O  O217  1  0.72088573  0.36404296  0.56986236  1
  O  O218  1  0.71977160  0.37258963  0.90037541  1
  O  O219  1  0.72924252  0.86313390  0.25514622  1
  O  O220  1  0.72097684  0.86576042  0.57441405  1
  O  O221  1  0.73050615  0.86088982  0.91628159  1
  O  O222  1  0.41800875  0.13890941  0.15417388  1
  O  O223  1  0.41269558  0.13142663  0.48563597  1
  O  O224  1  0.40811056  0.13697324  0.81439624  1
  O  O225  1  0.42166593  0.62785300  0.14981599  1
  O  O226  1  0.41759751  0.63104454  0.48339886  1
  O  O227  1  0.42683737  0.63259329  0.82033059  1
  O  O228  1  0.91901798  0.13157552  0.15496978  1
  O  O229  1  0.92198145  0.12563719  0.47995647  1
  O  O230  1  0.90878403  0.12737404  0.81691642  1
  O  O231  1  0.92800220  0.62888496  0.14604732  1
  O  O232  1  0.92115077  0.63073837  0.48387758  1
  O  O233  1  0.92996142  0.63215886  0.81527193  1
  O  O234  1  0.37036090  0.08718279  0.01664413  1
  O  O235  1  0.36156920  0.08563115  0.34881111  1
  O  O236  1  0.36346841  0.08648385  0.67792454  1
  O  O237  1  0.35933580  0.58193188  0.01553839  1
  O  O238  1  0.36756248  0.58202641  0.34749421  1
  O  O239  1  0.36536704  0.58210830  0.68689992  1
  O  O240  1  0.87380795  0.07573569  0.01801940  1
  O  O241  1  0.86787769  0.07708972  0.34470132  1
  O  O242  1  0.86300854  0.07962833  0.68096920  1
  O  O243  1  0.87115412  0.57894739  0.01118108  1
  O  O244  1  0.86807749  0.57645265  0.34812105  1
  O  O245  1  0.87561687  0.57555945  0.68080113  1
  O  O246  1  0.08015708  0.36656037  0.18311705  1
  O  O247  1  0.06344015  0.37329371  0.51908521  1
  O  O248  1  0.07776408  0.36659198  0.84403227  1
  O  O249  1  0.08298977  0.86572523  0.17942412  1
  O  O250  1  0.07915049  0.87024939  0.51389673  1
  O  O251  1  0.08041729  0.86851603  0.85018255  1
  O  O252  1  0.57928465  0.36406267  0.17919501  1
  O  O253  1  0.58283244  0.36264726  0.50974799  1
  O  O254  1  0.58093128  0.36175827  0.84758864  1
  O  O255  1  0.59203575  0.86987051  0.18899241  1
  O  O256  1  0.58240898  0.87123183  0.52045906  1
  O  O257  1  0.59333306  0.87050684  0.85804736  1
  O  O258  1  0.12950505  0.42068743  0.31893677  1
  O  O259  1  0.12819839  0.42462280  0.65378660  1
  O  O260  1  0.12488902  0.42705915  0.97871304  1
  O  O261  1  0.12960024  0.92164377  0.31524647  1
  O  O262  1  0.12943498  0.92393878  0.64914479  1
  O  O263  1  0.13120590  0.92864554  0.98388399  1
  O  O264  1  0.62776128  0.41737154  0.31554922  1
  O  O265  1  0.63270969  0.40366652  0.64544843  1
  O  O266  1  0.63695512  0.40612782  0.98290592  1
  O  O267  1  0.64044157  0.91808704  0.32589212  1
  O  O268  1  0.63883640  0.91430883  0.65617052  1
  O  O269  1  0.64636347  0.91157685  0.99457853  1
  O  O270  1  0.04052246  0.19866371  0.10992838  1
  O  O271  1  0.03013288  0.20151169  0.43662713  1
  O  O272  1  0.02116752  0.19355445  0.76511043  1
  O  O273  1  0.03731974  0.70147687  0.10606434  1
  O  O274  1  0.03261322  0.70134948  0.43713062  1
  O  O275  1  0.04565614  0.70589525  0.77559311  1
  O  O276  1  0.53137412  0.19940248  0.10640185  1
  O  O277  1  0.52218466  0.19596213  0.43241872  1
  O  O278  1  0.52613346  0.19322569  0.76164903  1
  O  O279  1  0.52280840  0.70279190  0.09994844  1
  O  O280  1  0.52698957  0.70290258  0.43994507  1
  O  O281  1  0.53273748  0.70360132  0.77515592  1
  O  O282  1  0.29317382  0.46115475  0.06043220  1
  O  O283  1  0.30143765  0.46776134  0.39199525  1
  O  O284  1  0.29972511  0.46167734  0.73176391  1
  O  O285  1  0.29052021  0.97613697  0.06743462  1
  O  O286  1  0.29551903  0.97013880  0.39380942  1
  O  O287  1  0.29005846  0.98037853  0.72160123  1
  O  O288  1  0.81438338  0.46816376  0.06485985  1
  O  O289  1  0.79440758  0.46938687  0.39599457  1
  O  O290  1  0.81071781  0.46497476  0.72916207  1
  O  O291  1  0.80416268  0.96833768  0.06450423  1
  O  O292  1  0.80896421  0.96889125  0.39865913  1
  O  O293  1  0.80278520  0.96650468  0.72989276  1
  O  O294  1  0.46555467  0.30113557  0.22935989  1
  O  O295  1  0.47920752  0.29060613  0.56064688  1
  O  O296  1  0.46120087  0.31319552  0.89707377  1
  O  O297  1  0.46806446  0.79742746  0.23577359  1
  O  O298  1  0.46566697  0.79953429  0.55724647  1
  O  O299  1  0.47893995  0.79218700  0.89772312  1
  O  O300  1  0.96979096  0.30488979  0.23234039  1
  O  O301  1  0.95707525  0.29289962  0.56006753  1
  O  O302  1  0.96405938  0.30822163  0.89796758  1
  O  O303  1  0.97020943  0.79888167  0.22783045  1
  O  O304  1  0.97074397  0.80132644  0.56065641  1
  O  O305  1  0.96954639  0.79410868  0.89062713  1
  O  O306  1  0.20031699  0.03040057  0.26762073  1
  O  O307  1  0.19460729  0.03295339  0.59880410  1
  O  O308  1  0.20270666  0.03503584  0.94120219  1
  O  O309  1  0.19726051  0.52792506  0.27170818  1
  O  O310  1  0.19409110  0.54562397  0.60730749  1
  O  O311  1  0.19803639  0.53494295  0.93927055  1
  O  O312  1  0.70384585  0.02611782  0.27190468  1
  O  O313  1  0.70004668  0.02314125  0.60350229  1
  O  O314  1  0.71070315  0.02159750  0.94095524  1
  O  O315  1  0.69864308  0.53325337  0.27467374  1
  O  O316  1  0.69607681  0.52874816  0.59764277  1
  O  O317  1  0.69128134  0.53586346  0.93409857  1
  O  O318  1  0.10130404  0.09119955  0.04209044  1
  O  O319  1  0.07977608  0.08806591  0.36718917  1
  O  O320  1  0.08025682  0.08502554  0.70377432  1
  O  O321  1  0.08099989  0.58249393  0.03920797  1
  O  O322  1  0.08705564  0.58858178  0.37174424  1
  O  O323  1  0.09894280  0.59455459  0.71022751  1
  O  O324  1  0.59088734  0.08839986  0.04516797  1
  O  O325  1  0.58776579  0.08979516  0.37667401  1
  O  O326  1  0.58339150  0.08152329  0.70201263  1
  O  O327  1  0.56795896  0.58571131  0.03545959  1
  O  O328  1  0.58036870  0.59145746  0.37443269  1
  O  O329  1  0.56620192  0.58503479  0.69842990  1
  O  O330  1  0.40531708  0.40808050  0.12658918  1
  O  O331  1  0.41739366  0.41780117  0.45950503  1
  O  O332  1  0.41490606  0.41226399  0.79547725  1
  O  O333  1  0.39436160  0.90457792  0.11644941  1
  O  O334  1  0.40684788  0.91674425  0.46279256  1
  O  O335  1  0.41379997  0.94096579  0.78380505  1
  O  O336  1  0.91898684  0.41521962  0.13924835  1
  O  O337  1  0.90530966  0.41444065  0.45970131  1
  O  O338  1  0.91431043  0.40881302  0.80199324  1
  O  O339  1  0.91492443  0.91082766  0.12656997  1
  O  O340  1  0.92047187  0.91636897  0.46519704  1
  O  O341  1  0.91747114  0.91493926  0.79427827  1
  O  O342  1  0.41236450  0.41155871  0.29846363  1
  O  O343  1  0.44358788  0.41313559  0.62721283  1
  O  O344  1  0.41268389  0.41821060  0.97774281  1
  O  O345  1  0.40511555  0.90401189  0.29514945  1
  O  O346  1  0.41293659  0.91634400  0.61687750  1
  O  O347  1  0.40442316  0.89499872  0.93880216  1
  O  O348  1  0.92072047  0.42042386  0.30114535  1
  O  O349  1  0.90660856  0.40575914  0.62897927  1
  O  O350  1  0.90947164  0.41659504  0.96650965  1
  O  O351  1  0.91481139  0.90931363  0.29452183  1
  O  O352  1  0.92125345  0.91559528  0.62976419  1
  O  O353  1  0.91727786  0.90644709  0.95574294  1
  O  O354  1  0.09110503  0.08867689  0.20625317  1
  O  O355  1  0.08042847  0.08302852  0.53244584  1
  O  O356  1  0.08093936  0.07040573  0.87315591  1
  O  O357  1  0.08157066  0.57714093  0.20507936  1
  O  O358  1  0.08733244  0.59401084  0.52883390  1
  O  O359  1  0.08234066  0.57844843  0.86564130  1
  O  O360  1  0.59079583  0.07912582  0.20729059  1
  O  O361  1  0.59018640  0.07858623  0.53802597  1
  O  O362  1  0.59916311  0.07951367  0.88233858  1
  O  O363  1  0.58847509  0.59495326  0.21284231  1
  O  O364  1  0.58662471  0.58765366  0.53621592  1
  O  O365  1  0.58736821  0.59715751  0.86752298  1
  O  O366  1  0.13748653  0.22634816  0.05596185  1
  O  O367  1  0.13945797  0.22175273  0.39332576  1
  O  O368  1  0.12974582  0.21984541  0.72235815  1
  O  O369  1  0.14371054  0.71200450  0.05665160  1
  O  O370  1  0.13979832  0.72210131  0.39136994  1
  O  O371  1  0.15072148  0.72808639  0.72684726  1
  O  O372  1  0.62637335  0.22082706  0.04769335  1
  O  O373  1  0.63608007  0.22403267  0.39747018  1
  O  O374  1  0.63560126  0.21485499  0.71786529  1
  O  O375  1  0.63882556  0.71555953  0.06439045  1
  O  O376  1  0.63723936  0.72425021  0.39799884  1
  O  O377  1  0.63799988  0.71360512  0.72466359  1
  O  O378  1  0.27123366  0.35706884  0.10888525  1
  O  O379  1  0.28527527  0.36740552  0.44660449  1
  O  O380  1  0.28334694  0.36063345  0.78598257  1
  O  O381  1  0.26090651  0.86825709  0.10834152  1
  O  O382  1  0.27323537  0.86254223  0.43837971  1
  O  O383  1  0.28743771  0.87472050  0.77127353  1
  O  O384  1  0.78275202  0.35815694  0.10415679  1
  O  O385  1  0.77313492  0.36009750  0.43990288  1
  O  O386  1  0.77723893  0.35908257  0.77158836  1
  O  O387  1  0.78161138  0.86147017  0.11169855  1
  O  O388  1  0.78731264  0.85828579  0.44142018  1
  O  O389  1  0.78523804  0.85702134  0.77471286  1
  O  O390  1  0.35932658  0.27739196  0.27571832  1
  O  O391  1  0.36670497  0.28851591  0.60366327  1
  O  O392  1  0.35513699  0.28238684  0.94062497  1
  O  O393  1  0.35941193  0.76970836  0.27680826  1
  O  O394  1  0.36329834  0.78699345  0.61089275  1
  O  O395  1  0.37562430  0.76768652  0.94600315  1
  O  O396  1  0.86577310  0.28877150  0.28440063  1
  O  O397  1  0.85291125  0.27200184  0.60828144  1
  O  O398  1  0.85755322  0.28049288  0.94229637  1
  O  O399  1  0.86734588  0.77394353  0.27712782  1
  O  O400  1  0.86494871  0.78259838  0.60850287  1
  O  O401  1  0.86386653  0.77293008  0.93755103  1
  O  O402  1  0.22475982  0.14352886  0.22953347  1
  O  O403  1  0.21246845  0.13962701  0.55019481  1
  O  O404  1  0.20716628  0.13902834  0.88720521  1
  O  O405  1  0.21290334  0.63540990  0.22471580  1
  O  O406  1  0.22314024  0.64611305  0.55662609  1
  O  O407  1  0.21326794  0.64423958  0.89420567  1
  O  O408  1  0.72177657  0.13602890  0.22793992  1
  O  O409  1  0.72431935  0.13339427  0.56246746  1
  O  O410  1  0.73213205  0.13081838  0.89834651  1
  O  O411  1  0.72176176  0.63132517  0.22074830  1
  O  O412  1  0.72178787  0.63805170  0.55606354  1
  O  O413  1  0.72501913  0.63747912  0.88847688  1
  O  O414  1  0.48809290  0.32652334  0.02791930  1
  O  O415  1  0.49055689  0.33040882  0.36264977  1
  O  O416  1  0.49730711  0.32338206  0.69474596  1
  O  O417  1  0.49847099  0.84857466  0.03158918  1
  O  O418  1  0.48677543  0.83292439  0.36882266  1
  O  O419  1  0.49664281  0.84646692  0.69245904  1
  O  O420  1  0.98748715  0.33476697  0.03066468  1
  O  O421  1  0.99829899  0.34102198  0.36805610  1
  O  O422  1  0.98490976  0.32514546  0.69474755  1
  O  O423  1  0.99409421  0.82799271  0.02481277  1
  O  O424  1  0.99679961  0.83404064  0.36259462  1
  O  O425  1  0.99766176  0.83364560  0.69474923  1
  O  O426  1  0.17172460  0.01578991  0.13551410  1
  O  O427  1  0.15924157  0.00756500  0.46402713  1
  O  O428  1  0.16553089  0.00595111  0.80483516  1
  O  O429  1  0.16266885  0.50294265  0.13745708  1
  O  O430  1  0.17159752  0.51247907  0.47378950  1
  O  O431  1  0.17128809  0.50971293  0.80591666  1
  O  O432  1  0.67309326  0.00461756  0.13974161  1
  O  O433  1  0.67301219  0.00454322  0.47128968  1
  O  O434  1  0.67362350  0.00330958  0.80705858  1
  O  O435  1  0.65157666  0.50138796  0.13929067  1
  O  O436  1  0.66133474  0.50983587  0.46399464  1
  O  O437  1  0.65963430  0.50859026  0.79927773  1
  O  O438  1  0.00784265  0.17151675  0.30305340  1
  O  O439  1  0.00196275  0.15868408  0.63130254  1
  O  O440  1  0.00618881  0.15854594  0.97510264  1
  O  O441  1  0.00876261  0.66660885  0.30336370  1
  O  O442  1  0.01876875  0.67214774  0.64163348  1
  O  O443  1  0.01065438  0.66417357  0.97075799  1
  O  O444  1  0.51124525  0.16522600  0.30193402  1
  O  O445  1  0.50685003  0.15446906  0.62750462  1
  O  O446  1  0.49632956  0.14874116  0.97062443  1
  O  O447  1  0.50714810  0.67394673  0.30663942  1
  O  O448  1  0.50438506  0.67878529  0.64071530  1
  O  O449  1  0.51204580  0.67398080  0.96788972  1
  O  O450  1  0.32730402  0.48761028  0.19491838  1
  O  O451  1  0.34161753  0.50119061  0.52779981  1
  O  O452  1  0.34007280  0.49230417  0.86772251  1
  O  O453  1  0.33156924  0.99161262  0.19974483  1
  O  O454  1  0.32457880  0.99483314  0.52644524  1
  O  O455  1  0.33447929  1.00785905  0.85755028  1
  O  O456  1  0.82963371  0.48851663  0.19535282  1
  O  O457  1  0.82663172  0.49032286  0.52956583  1
  O  O458  1  0.83050791  0.48958152  0.86090546  1
  O  O459  1  0.84232105  0.99194073  0.19811515  1
  O  O460  1  0.83795420  0.98927405  0.53157477  1
  O  O461  1  0.83813093  0.98821436  0.86385110  1
