# generated using pymatgen
data_Na31Fe20(SO4)36
_symmetry_space_group_name_H-M   'P 1'
_cell_length_a   18.08453897
_cell_length_b   18.08161022
_cell_length_c   19.71813488
_cell_angle_alpha   107.55622346
_cell_angle_beta   107.59302174
_cell_angle_gamma   90.72371693
_symmetry_Int_Tables_number   1
_chemical_formula_structural   Na31Fe20(SO4)36
_chemical_formula_sum   'Na62 Fe40 S72 O288'
_cell_volume   5821.57392947
_cell_formula_units_Z   2
loop_
 _symmetry_equiv_pos_site_id
 _symmetry_equiv_pos_as_xyz
  1  'x, y, z'
loop_
 _atom_site_type_symbol
 _atom_site_label
 _atom_site_symmetry_multiplicity
 _atom_site_fract_x
 _atom_site_fract_y
 _atom_site_fract_z
 _atom_site_occupancy
  Na  Na0  1  0.13691299  0.36672515  0.08487214  1
  Na  Na1  1  0.11885241  0.36512983  0.40408787  1
  Na  Na2  1  0.12858146  0.36792203  0.75481087  1
  Na  Na3  1  0.13409030  0.86581597  0.08065445  1
  Na  Na4  1  0.12920117  0.87190478  0.41433285  1
  Na  Na5  1  0.13819789  0.87053745  0.75629284  1
  Na  Na6  1  0.63100057  0.36718228  0.08251862  1
  Na  Na7  1  0.63729570  0.35522966  0.41133836  1
  Na  Na8  1  0.64488524  0.36546429  0.75672097  1
  Na  Na9  1  0.64227787  0.86136224  0.09083221  1
  Na  Na10  1  0.63601439  0.86655048  0.42095448  1
  Na  Na11  1  0.63653637  0.86509049  0.74566077  1
  Na  Na12  1  0.37372107  0.14592760  0.26654595  1
  Na  Na13  1  0.36485556  0.13376721  0.57911949  1
  Na  Na14  1  0.37002012  0.14537498  0.91783797  1
  Na  Na15  1  0.36788936  0.63219710  0.25288348  1
  Na  Na16  1  0.37588483  0.63000740  0.58582917  1
  Na  Na17  1  0.36065824  0.63083842  0.91729182  1
  Na  Na18  1  0.86832501  0.13873741  0.25438131  1
  Na  Na19  1  0.87129873  0.13634574  0.58978730  1
  Na  Na20  1  0.86578212  0.13733111  0.91880778  1
  Na  Na21  1  0.84428321  0.62507182  0.24140607  1
  Na  Na22  1  0.82182824  0.64436375  0.55975792  1
  Na  Na23  1  0.85464051  0.62776000  0.89969293  1
  Na  Na24  1  0.45621449  0.50890375  0.07724821  1
  Na  Na25  1  0.92344865  0.49893395  0.39428347  1
  Na  Na26  1  0.98602130  0.50001513  0.74581451  1
  Na  Na27  1  0.99127706  0.01468235  0.75096502  1
  Na  Na28  1  0.98251457  0.49671440  0.11213668  1
  Na  Na29  1  0.49505539  0.04425405  0.75323088  1
  Na  Na30  1  0.51330408  0.44079909  0.46174354  1
  Na  Na31  1  0.49340943  0.00898986  0.08472082  1
  Na  Na32  1  0.54448239  0.48171782  0.68755488  1
  Na  Na33  1  0.00590183  0.99929252  0.56512957  1
  Na  Na34  1  0.00062598  0.99097259  0.93307632  1
  Na  Na35  1  0.50473380  1.00616827  0.91154819  1
  Na  Na36  1  0.54797420  0.48961861  0.28348172  1
  Na  Na37  1  -0.01185408  1.03884206  0.20578873  1
  Na  Na38  1  0.50395596  0.98532352  0.26056980  1
  Na  Na39  1  0.51913787  0.99736173  0.56397566  1
  Na  Na40  1  0.50194792  0.48573456  0.90930191  1
  Na  Na41  1  0.01191746  0.46098551  0.91869814  1
  Na  Na42  1  0.76550910  0.25881511  0.66342704  1
  Na  Na43  1  0.24449817  0.24876725  0.33339769  1
  Na  Na44  1  0.25824079  0.26136965  0.66315576  1
  Na  Na45  1  0.25088921  0.75277331  0.33102307  1
  Na  Na46  1  0.24463572  0.74843271  0.67074986  1
  Na  Na47  1  0.25893480  0.26549504  -0.00517334  1
  Na  Na48  1  0.76272314  0.26329232  0.32524826  1
  Na  Na49  1  0.73609333  0.73067357  0.34547356  1
  Na  Na50  1  0.74466597  0.24420425  -0.00243008  1
  Na  Na51  1  0.74159728  0.73696290  0.00632963  1
  Na  Na52  1  0.24520413  0.25183263  0.17035926  1
  Na  Na53  1  0.25536864  0.25690081  0.49228928  1
  Na  Na54  1  0.24100788  0.74189830  0.85062710  1
  Na  Na55  1  0.25173378  0.75072294  0.50399975  1
  Na  Na56  1  0.75821201  0.26106282  0.16014408  1
  Na  Na57  1  0.75793880  0.25432261  0.82903080  1
  Na  Na58  1  0.25675943  0.75819608  0.15205835  1
  Na  Na59  1  0.75557837  0.25363258  0.49737477  1
  Na  Na60  1  0.26062029  0.26798519  0.82976136  1
  Na  Na61  1  0.75368100  0.75195262  0.82342891  1
  Fe  Fe62  1  0.46887837  0.30680202  0.11952739  1
  Fe  Fe63  1  0.46463365  0.81117758  0.78507403  1
  Fe  Fe64  1  0.96587314  0.80769213  0.44820907  1
  Fe  Fe65  1  0.96423691  0.80550609  0.11885456  1
  Fe  Fe66  1  0.96666309  0.80606217  0.77938894  1
  Fe  Fe67  1  0.46435609  0.80669679  0.11497815  1
  Fe  Fe68  1  0.46996206  0.29840763  0.79024535  1
  Fe  Fe69  1  0.46616369  0.80691265  0.45532057  1
  Fe  Fe70  1  0.96404486  0.31230875  0.45678448  1
  Fe  Fe71  1  0.96960005  0.30303071  0.13100988  1
  Fe  Fe72  1  0.69717512  0.03319265  0.38148725  1
  Fe  Fe73  1  0.69351499  0.03294370  0.04836568  1
  Fe  Fe74  1  0.19263929  0.04097395  0.05082628  1
  Fe  Fe75  1  0.18839382  0.03586505  0.37742348  1
  Fe  Fe76  1  0.19126510  0.03608779  0.71371309  1
  Fe  Fe77  1  0.69073299  0.53453141  0.04848237  1
  Fe  Fe78  1  0.19263645  0.53670315  0.38004999  1
  Fe  Fe79  1  0.20041747  0.53118235  0.04373264  1
  Fe  Fe80  1  0.19401675  0.53356203  0.71322677  1
  Fe  Fe81  1  0.69565430  0.03161475  0.71451180  1
  Fe  Fe82  1  0.03755015  0.69341692  0.88074188  1
  Fe  Fe83  1  0.53348151  0.19436921  0.53999756  1
  Fe  Fe84  1  0.53228867  0.69361688  0.21518042  1
  Fe  Fe85  1  0.53434937  0.19043449  0.21489778  1
  Fe  Fe86  1  0.03377374  0.19536341  0.54695931  1
  Fe  Fe87  1  0.03450168  0.69248641  0.21147670  1
  Fe  Fe88  1  0.55208921  0.67493952  0.54365629  1
  Fe  Fe89  1  0.02963072  0.20213614  0.87999625  1
  Fe  Fe90  1  0.53438097  0.68917278  0.87558153  1
  Fe  Fe91  1  0.03220311  0.69255465  0.54379791  1
  Fe  Fe92  1  0.80731906  0.95784589  0.61462181  1
  Fe  Fe93  1  0.30867922  0.96596059  0.28558679  1
  Fe  Fe94  1  0.31279567  0.46349773  0.62287706  1
  Fe  Fe95  1  0.30454799  0.96882262  0.61788443  1
  Fe  Fe96  1  0.81107417  0.96029303  0.28518463  1
  Fe  Fe97  1  0.80472348  0.46649093  0.95159498  1
  Fe  Fe98  1  0.80983986  0.96391385  0.95290749  1
  Fe  Fe99  1  0.30512805  0.96753751  0.95178757  1
  Fe  Fe100  1  0.31771160  0.46480888  0.29503788  1
  Fe  Fe101  1  0.79572825  0.46902944  0.62415961  1
  S  S102  1  0.36006283  0.14117494  0.08232873  1
  S  S103  1  0.35775306  0.13738347  0.41776392  1
  S  S104  1  0.35538607  0.13985400  0.74965238  1
  S  S105  1  0.35868043  0.64680818  0.08390458  1
  S  S106  1  0.36201315  0.64355216  0.42074655  1
  S  S107  1  0.35789743  0.64374623  0.75056720  1
  S  S108  1  0.85826555  0.13618025  0.08388462  1
  S  S109  1  0.86151548  0.13795998  0.41601105  1
  S  S110  1  0.86004267  0.13414439  0.75008797  1
  S  S111  1  0.85965664  0.63764450  0.08342943  1
  S  S112  1  0.85765973  0.65014994  0.41953004  1
  S  S113  1  0.86531382  0.64013984  0.74778798  1
  S  S114  1  0.14460181  0.36587593  0.24879918  1
  S  S115  1  0.14134831  0.36005622  0.58461639  1
  S  S116  1  0.14199245  0.35859291  0.91967336  1
  S  S117  1  0.14044025  0.85985973  0.24668515  1
  S  S118  1  0.13980279  0.86183263  0.58230029  1
  S  S119  1  0.13758712  0.86524005  0.91847807  1
  S  S120  1  0.64237027  0.34872820  0.24952658  1
  S  S121  1  0.64303393  0.35089120  0.58303589  1
  S  S122  1  0.64179548  0.35874722  0.91387498  1
  S  S123  1  0.63891637  0.85962943  0.24980771  1
  S  S124  1  0.63841099  0.86020017  0.58276129  1
  S  S125  1  0.64103356  0.85935358  0.91753030  1
  S  S126  1  0.06670076  0.17283588  0.04183200  1
  S  S127  1  0.06642161  0.17035162  0.37827947  1
  S  S128  1  0.06809763  0.16598425  0.70834744  1
  S  S129  1  0.06714350  0.66803346  0.04057291  1
  S  S130  1  0.07283999  0.67643335  0.37696814  1
  S  S131  1  0.07665939  0.67858315  0.71219309  1
  S  S132  1  0.56336970  0.16023291  0.04071646  1
  S  S133  1  0.56966154  0.16051087  0.37316652  1
  S  S134  1  0.56868351  0.16699121  0.70437651  1
  S  S135  1  0.56428004  0.67202148  0.03854644  1
  S  S136  1  0.56570948  0.67514720  0.37999843  1
  S  S137  1  0.56749141  0.68080987  0.71426032  1
  S  S138  1  0.33447757  0.43465104  0.13012530  1
  S  S139  1  0.32118223  0.42868077  0.45568928  1
  S  S140  1  0.33104516  0.43323385  0.79132259  1
  S  S141  1  0.33337367  0.93769832  0.12572607  1
  S  S142  1  0.32920630  0.93046283  0.45680077  1
  S  S143  1  0.32997356  0.93694178  0.79187914  1
  S  S144  1  0.82329317  0.42921061  0.12133246  1
  S  S145  1  0.82572211  0.42762588  0.46341984  1
  S  S146  1  0.83516738  0.43677464  0.79157763  1
  S  S147  1  0.83068760  0.93032739  0.12174417  1
  S  S148  1  0.82992050  0.93233583  0.45572582  1
  S  S149  1  0.83629101  0.93140050  0.79390339  1
  S  S150  1  0.43588758  0.32784341  0.29020268  1
  S  S151  1  0.43444109  0.32405696  0.62571524  1
  S  S152  1  0.43862130  0.33029945  0.95652557  1
  S  S153  1  0.43178966  0.83033953  0.29100407  1
  S  S154  1  0.43096031  0.84395511  0.62966387  1
  S  S155  1  0.43393559  0.83728538  0.95738055  1
  S  S156  1  0.93027926  0.32654532  0.28783909  1
  S  S157  1  0.93048880  0.33151366  0.62597795  1
  S  S158  1  0.92957720  0.33034743  0.96443239  1
  S  S159  1  0.93139925  0.82384240  0.28686534  1
  S  S160  1  0.93927641  0.83743911  0.62573379  1
  S  S161  1  0.93149058  0.82549973  0.95547799  1
  S  S162  1  0.17770576  0.07001309  0.21219512  1
  S  S163  1  0.16994895  0.06913410  0.54346561  1
  S  S164  1  0.17046522  0.07228257  0.87768855  1
  S  S165  1  0.17417988  0.57226735  0.20855570  1
  S  S166  1  0.17593445  0.57188504  0.54589768  1
  S  S167  1  0.16732953  0.56756556  0.87356431  1
  S  S168  1  0.67204884  0.06383658  0.20956533  1
  S  S169  1  0.67646188  0.06786369  0.54394437  1
  S  S170  1  0.67094645  0.05909067  0.87551508  1
  S  S171  1  0.64944826  0.56302485  0.20090641  1
  S  S172  1  0.65504864  0.55069159  0.54055484  1
  S  S173  1  0.66270729  0.56378792  0.87547100  1
  O  O174  1  0.37074068  0.21877915  0.07250525  1
  O  O175  1  0.35920677  0.21343063  0.40611693  1
  O  O176  1  0.36484235  0.22086442  0.74601730  1
  O  O177  1  0.36669874  0.72912482  0.08236325  1
  O  O178  1  0.36726631  0.72065559  0.40704538  1
  O  O179  1  0.36526521  0.72269411  0.74159972  1
  O  O180  1  0.86828637  0.21729114  0.08011729  1
  O  O181  1  0.87003915  0.21597191  0.40613997  1
  O  O182  1  0.86504267  0.20980744  0.73929263  1
  O  O183  1  0.86934211  0.71802358  0.07850961  1
  O  O184  1  0.87151944  0.73183742  0.41598820  1
  O  O185  1  0.88038895  0.71628766  0.73656802  1
  O  O186  1  0.28103193  0.13464936  0.09042728  1
  O  O187  1  0.28090229  0.12271838  0.43038188  1
  O  O188  1  0.27555232  0.13148937  0.75687242  1
  O  O189  1  0.27782394  0.63357976  0.08643096  1
  O  O190  1  0.28301061  0.63421096  0.42908440  1
  O  O191  1  0.27846801  0.63320965  0.75772973  1
  O  O192  1  0.77541364  0.12833080  0.08609183  1
  O  O193  1  0.78322300  0.12998315  0.42639143  1
  O  O194  1  0.78314326  0.12221567  0.76333515  1
  O  O195  1  0.78207760  0.62791546  0.09305164  1
  O  O196  1  0.78234602  0.64388215  0.43104260  1
  O  O197  1  0.79527534  0.63881541  0.76942433  1
  O  O198  1  0.14323458  0.28805079  0.25627744  1
  O  O199  1  0.12978028  0.28208198  0.59503054  1
  O  O200  1  0.12680607  0.28142818  0.93166686  1
  O  O201  1  0.13205449  0.78121056  0.25558585  1
  O  O202  1  0.13159177  0.78114055  0.58606263  1
  O  O203  1  0.12997455  0.78706274  0.92686920  1
  O  O204  1  0.63039587  0.26684861  0.25467577  1
  O  O205  1  0.63847842  0.26752939  0.58317859  1
  O  O206  1  0.63845666  0.28152886  0.92168476  1
  O  O207  1  0.62959731  0.78127689  0.25808883  1
  O  O208  1  0.62329694  0.78348754  0.59039381  1
  O  O209  1  0.62855851  0.77944551  0.92236057  1
  O  O210  1  0.22192305  0.38278588  0.23788302  1
  O  O211  1  0.22244045  0.36577778  0.57975864  1
  O  O212  1  0.22141911  0.36253644  0.91593867  1
  O  O213  1  0.21891154  0.86843248  0.23685842  1
  O  O214  1  0.21781866  0.87202412  0.57253033  1
  O  O215  1  0.21534583  0.87487506  0.90726018  1
  O  O216  1  0.72062146  0.35684068  0.24429548  1
  O  O217  1  0.72814562  0.36568224  0.58604352  1
  O  O218  1  0.71759776  0.37325111  0.89928130  1
  O  O219  1  0.71550650  0.87067778  0.23932046  1
  O  O220  1  0.71625627  0.86831571  0.57345550  1
  O  O221  1  0.71991744  0.86635994  0.90887040  1
  O  O222  1  0.41834403  0.13112173  0.14985107  1
  O  O223  1  0.41918742  0.13292567  0.48602589  1
  O  O224  1  0.41365947  0.12508864  0.81246409  1
  O  O225  1  0.41404531  0.63970389  0.15515574  1
  O  O226  1  0.42158988  0.64292007  0.49087700  1
  O  O227  1  0.41578498  0.63905216  0.82035047  1
  O  O228  1  0.91211013  0.12338657  0.14979624  1
  O  O229  1  0.92097960  0.13135636  0.48461327  1
  O  O230  1  0.92183886  0.12757152  0.81797381  1
  O  O231  1  0.92073066  0.62567319  0.14884461  1
  O  O232  1  0.92054298  0.63884786  0.48607562  1
  O  O233  1  0.93255549  0.62510464  0.80744523  1
  O  O234  1  0.36732394  0.08043353  0.01458906  1
  O  O235  1  0.36691417  0.07644891  0.35110892  1
  O  O236  1  0.36064005  0.08497776  0.67738389  1
  O  O237  1  0.37354732  0.59154611  0.01959253  1
  O  O238  1  0.37044030  0.58212032  0.35470375  1
  O  O239  1  0.36722077  0.58444025  0.68373403  1
  O  O240  1  0.86556603  0.08074871  0.01311696  1
  O  O241  1  0.86683857  0.07774378  0.34783887  1
  O  O242  1  0.86803006  0.07116472  0.68356641  1
  O  O243  1  0.86607988  0.58141567  0.01307637  1
  O  O244  1  0.86436537  0.59450920  0.35060613  1
  O  O245  1  0.86028131  0.57781007  0.67518367  1
  O  O246  1  0.08258862  0.37192321  0.18125859  1
  O  O247  1  0.08539970  0.36631698  0.51500838  1
  O  O248  1  0.08322336  0.36728303  0.85359524  1
  O  O249  1  0.08027306  0.86679440  0.17904751  1
  O  O250  1  0.07939199  0.87477319  0.51732755  1
  O  O251  1  0.07655426  0.87496944  0.85228610  1
  O  O252  1  0.58382401  0.35529813  0.17888126  1
  O  O253  1  0.59131104  0.35867051  0.51353976  1
  O  O254  1  0.57891034  0.36717386  0.84746617  1
  O  O255  1  0.57673925  0.86833760  0.18281688  1
  O  O256  1  0.57874761  0.87421630  0.51699398  1
  O  O257  1  0.58178866  0.87313146  0.85254553  1
  O  O258  1  0.13570989  0.42460864  0.31681600  1
  O  O259  1  0.13378782  0.42051883  0.65164707  1
  O  O260  1  0.13444846  0.42000388  0.98882294  1
  O  O261  1  0.13482356  0.91904454  0.31550376  1
  O  O262  1  0.13499100  0.91801764  0.65321752  1
  O  O263  1  0.13128881  0.92522722  0.98698595  1
  O  O264  1  0.62922969  0.40344356  0.31519761  1
  O  O265  1  0.63018739  0.40181131  0.65075655  1
  O  O266  1  0.63394215  0.41900574  0.98169229  1
  O  O267  1  0.63060032  0.91923697  0.31798414  1
  O  O268  1  0.63278084  0.92128367  0.65166600  1
  O  O269  1  0.63621815  0.91660797  0.98825047  1
  O  O270  1  0.02994096  0.20035412  0.10036009  1
  O  O271  1  0.03432749  0.20446150  0.44289187  1
  O  O272  1  0.03360999  0.18730183  0.76901488  1
  O  O273  1  0.02874558  0.69675474  0.10096318  1
  O  O274  1  0.03388869  0.70648873  0.43625732  1
  O  O275  1  0.04266957  0.71097594  0.77504961  1
  O  O276  1  0.53060138  0.19288849  0.10435103  1
  O  O277  1  0.53180214  0.18270503  0.43116575  1
  O  O278  1  0.52853770  0.19157507  0.76125817  1
  O  O279  1  0.52902367  0.70302958  0.10068982  1
  O  O280  1  0.52844691  0.70817846  0.44195803  1
  O  O281  1  0.52311561  0.71052817  0.77126368  1
  O  O282  1  0.30711047  0.47442656  0.07295575  1
  O  O283  1  0.29442709  0.47249680  0.39878335  1
  O  O284  1  0.30189105  0.46759768  0.72680459  1
  O  O285  1  0.30160534  0.97296379  0.06394102  1
  O  O286  1  0.29806644  0.96155138  0.39286996  1
  O  O287  1  0.29911309  0.97140814  0.72974918  1
  O  O288  1  0.79730931  0.46349123  0.05638009  1
  O  O289  1  0.80402877  0.46409605  0.40537055  1
  O  O290  1  0.80313847  0.47034367  0.72937306  1
  O  O291  1  0.80096802  0.96822406  0.06167015  1
  O  O292  1  0.80015839  0.96932084  0.39473091  1
  O  O293  1  0.80236699  0.96173964  0.72950927  1
  O  O294  1  0.46597102  0.29493091  0.22404760  1
  O  O295  1  0.47149845  0.29583556  0.56713177  1
  O  O296  1  0.46992878  0.29396885  0.89456917  1
  O  O297  1  0.47014173  0.80022455  0.23163648  1
  O  O298  1  0.46160758  0.81781772  0.56607537  1
  O  O299  1  0.46866730  0.80758688  0.89576719  1
  O  O300  1  0.97454772  0.29685689  0.23467413  1
  O  O301  1  0.96335719  0.30302026  0.56099107  1
  O  O302  1  0.96376353  0.30155788  0.90334825  1
  O  O303  1  0.97066044  0.79500085  0.22682019  1
  O  O304  1  0.97542391  0.80584177  0.56507011  1
  O  O305  1  0.96764241  0.79508243  0.89440775  1
  O  O306  1  0.20853709  0.03019686  0.27181932  1
  O  O307  1  0.19940610  0.03100556  0.60404154  1
  O  O308  1  0.19980252  0.03501732  0.93843837  1
  O  O309  1  0.20256424  0.54107564  0.27276694  1
  O  O310  1  0.20400293  0.53173920  0.60449042  1
  O  O311  1  0.18799961  0.53157366  0.93337039  1
  O  O312  1  0.70338191  0.02917271  0.27151908  1
  O  O313  1  0.70453199  0.02985973  0.60454112  1
  O  O314  1  0.70544248  0.02364792  0.93720992  1
  O  O315  1  0.65903505  0.52398387  0.25657347  1
  O  O316  1  0.69847077  0.52374074  0.60576552  1
  O  O317  1  0.69800732  0.53415767  0.94154345  1
  O  O318  1  0.08690132  0.09055777  0.03527914  1
  O  O319  1  0.09297414  0.09323351  0.38183519  1
  O  O320  1  0.08226957  0.08026885  0.69332566  1
  O  O321  1  0.08839805  0.58791512  0.03659554  1
  O  O322  1  0.09561883  0.59858065  0.37771250  1
  O  O323  1  0.09507032  0.59837720  0.70930684  1
  O  O324  1  0.58440265  0.07879720  0.04199875  1
  O  O325  1  0.59106619  0.07842961  0.36287612  1
  O  O326  1  0.58736712  0.08385104  0.69840093  1
  O  O327  1  0.57928922  0.58932434  0.03052047  1
  O  O328  1  0.58476025  0.59815917  0.38217121  1
  O  O329  1  0.58812104  0.60427637  0.71643309  1
  O  O330  1  0.41580262  0.41477905  0.13307241  1
  O  O331  1  0.39456120  0.39955810  0.45242634  1
  O  O332  1  0.40748856  0.40304363  0.79067930  1
  O  O333  1  0.41504653  0.91910947  0.12763536  1
  O  O334  1  0.41103646  0.91286428  0.46358974  1
  O  O335  1  0.41218063  0.92002796  0.79794458  1
  O  O336  1  0.90301919  0.40461558  0.12571080  1
  O  O337  1  0.91017720  0.41333247  0.47905248  1
  O  O338  1  0.91904995  0.43177698  0.80424693  1
  O  O339  1  0.91230103  0.91282114  0.12618267  1
  O  O340  1  0.91060494  0.91321480  0.45876862  1
  O  O341  1  0.91966006  0.91760598  0.79846504  1
  O  O342  1  0.42160152  0.41109694  0.29669578  1
  O  O343  1  0.41694045  0.40660926  0.63245842  1
  O  O344  1  0.43233695  0.41362441  0.96509501  1
  O  O345  1  0.41346893  0.91104441  0.29171991  1
  O  O346  1  0.41471816  0.92805053  0.64145297  1
  O  O347  1  0.41693679  0.92036997  0.96263437  1
  O  O348  1  0.90785942  0.40351385  0.28819007  1
  O  O349  1  0.89792662  0.40826177  0.62797979  1
  O  O350  1  0.91470117  0.41417831  0.97169807  1
  O  O351  1  0.90786076  0.90181506  0.28550194  1
  O  O352  1  0.92268811  0.92017721  0.62817273  1
  O  O353  1  0.91389932  0.90698072  0.95843891  1
  O  O354  1  0.10129930  0.09260396  0.21224688  1
  O  O355  1  0.08918679  0.08730826  0.54040878  1
  O  O356  1  0.08898821  0.08982575  0.87157443  1
  O  O357  1  0.09122684  0.58908481  0.19898938  1
  O  O358  1  0.09857388  0.59735160  0.54577756  1
  O  O359  1  0.08428066  0.58711896  0.86031535  1
  O  O360  1  0.58940148  0.07942708  0.20372767  1
  O  O361  1  0.59628830  0.08783659  0.53982154  1
  O  O362  1  0.58881977  0.06796264  0.86945669  1
  O  O363  1  0.56603071  0.58553321  0.18072654  1
  O  O364  1  0.57320545  0.56389637  0.54586555  1
  O  O365  1  0.58264715  0.58522001  0.87728238  1
  O  O366  1  0.13876048  0.22415147  0.05736587  1
  O  O367  1  0.13430727  0.22497859  0.38900195  1
  O  O368  1  0.14049283  0.21639529  0.72548688  1
  O  O369  1  0.13540844  0.72399213  0.05771817  1
  O  O370  1  0.14232264  0.73230516  0.39408664  1
  O  O371  1  0.14853752  0.73153367  0.72920512  1
  O  O372  1  0.63378979  0.21080121  0.05250977  1
  O  O373  1  0.63950490  0.21432704  0.38960155  1
  O  O374  1  0.64091122  0.21883542  0.72300691  1
  O  O375  1  0.63607947  0.72210779  0.05396810  1
  O  O376  1  0.63221379  0.73104128  0.39276798  1
  O  O377  1  0.63626637  0.73757985  0.73567644  1
  O  O378  1  0.28210757  0.36257838  0.11206289  1
  O  O379  1  0.25955804  0.36437977  0.43856508  1
  O  O380  1  0.27177645  0.36688863  0.77567342  1
  O  O381  1  0.28173846  0.86849926  0.11318438  1
  O  O382  1  0.27810308  0.85972511  0.44454827  1
  O  O383  1  0.27916701  0.86584257  0.77769377  1
  O  O384  1  0.76764556  0.35841090  0.10139784  1
  O  O385  1  0.77644806  0.35222803  0.44381359  1
  O  O386  1  0.78931881  0.36064220  0.77405083  1
  O  O387  1  0.77861566  0.85978400  0.10512978  1
  O  O388  1  0.77594176  0.86430547  0.44136567  1
  O  O389  1  0.78912499  0.86088181  0.78544674  1
  O  O390  1  0.36130889  0.28022522  0.27410597  1
  O  O391  1  0.36054382  0.27343055  0.60769483  1
  O  O392  1  0.36248204  0.28507480  0.94185434  1
  O  O393  1  0.35955952  0.77914090  0.27390808  1
  O  O394  1  0.35951797  0.79323081  0.61623670  1
  O  O395  1  0.36301465  0.78738284  0.94404690  1
  O  O396  1  0.86117289  0.26865082  0.26860472  1
  O  O397  1  0.86560031  0.27156274  0.61148555  1
  O  O398  1  0.85583296  0.28075871  0.94780505  1
  O  O399  1  0.86579635  0.76810601  0.27449872  1
  O  O400  1  0.86912311  0.78915993  0.61479337  1
  O  O401  1  0.85985015  0.77467298  0.94045780  1
  O  O402  1  0.23458838  0.13797971  0.22791780  1
  O  O403  1  0.22232832  0.14044898  0.56115659  1
  O  O404  1  0.22375624  0.14221360  0.89350604  1
  O  O405  1  0.22513690  0.64406758  0.22323024  1
  O  O406  1  0.23352636  0.64041939  0.56357708  1
  O  O407  1  0.22099889  0.63777914  0.89098805  1
  O  O408  1  0.72280046  0.13466549  0.22333070  1
  O  O409  1  0.73137483  0.13690719  0.56062005  1
  O  O410  1  0.71885823  0.13305823  0.89172901  1
  O  O411  1  0.70539575  0.63348238  0.22479629  1
  O  O412  1  0.69176083  0.62729162  0.54823581  1
  O  O413  1  0.71358613  0.63445881  0.88704430  1
  O  O414  1  0.49438861  0.32394341  0.02850176  1
  O  O415  1  0.49598087  0.32612380  0.35831095  1
  O  O416  1  0.49086589  0.32493089  0.69946523  1
  O  O417  1  0.49441755  0.84170985  0.03033652  1
  O  O418  1  0.48900345  0.83454356  0.36461673  1
  O  O419  1  0.49226316  0.84308477  0.70012093  1
  O  O420  1  0.98746634  0.33138465  0.03731346  1
  O  O421  1  0.98400670  0.33105624  0.36541539  1
  O  O422  1  0.99441077  0.34316522  0.69550346  1
  O  O423  1  0.99050348  0.82856105  0.02821359  1
  O  O424  1  0.99373664  0.83408972  0.36051398  1
  O  O425  1  1.00070828  0.84533055  0.69973298  1
  O  O426  1  0.17441590  0.01014704  0.13885876  1
  O  O427  1  0.16930535  0.00995507  0.47197066  1
  O  O428  1  0.16799354  0.01188386  0.80498807  1
  O  O429  1  0.17503664  0.51158016  0.13821423  1
  O  O430  1  0.16937006  0.51393076  0.47182360  1
  O  O431  1  0.16777740  0.50776830  0.80146645  1
  O  O432  1  0.66976241  0.00294199  0.13776568  1
  O  O433  1  0.67393739  0.00780174  0.47180256  1
  O  O434  1  0.67437003  0.00203886  0.80348052  1
  O  O435  1  0.65519836  0.50722150  0.12834039  1
  O  O436  1  0.64535412  0.48901374  0.46959855  1
  O  O437  1  0.65370422  0.50120274  0.80538415  1
  O  O438  1  0.00355438  0.15781312  0.30754464  1
  O  O439  1  0.00940845  0.16901810  0.63682485  1
  O  O440  1  0.00849653  0.16757425  0.96694598  1
  O  O441  1  0.01484195  0.67044273  0.30317593  1
  O  O442  1  0.01729756  0.67846228  0.64158862  1
  O  O443  1  0.00745771  0.66455063  0.96757038  1
  O  O444  1  0.50970128  0.15733769  0.29969229  1
  O  O445  1  0.51244072  0.16210577  0.62919312  1
  O  O446  1  0.50190280  0.14868069  0.96918811  1
  O  O447  1  0.50467729  0.67001413  0.30624302  1
  O  O448  1  0.51244749  0.67920638  0.63968140  1
  O  O449  1  0.50366691  0.67353476  0.96766642  1
  O  O450  1  0.33871690  0.49104025  0.20502760  1
  O  O451  1  0.32996337  0.48745112  0.53128508  1
  O  O452  1  0.34156742  0.49570025  0.86154825  1
  O  O453  1  0.34142302  0.99837557  0.19936897  1
  O  O454  1  0.33124021  0.99243016  0.52779427  1
  O  O455  1  0.33242036  0.99726498  0.86394539  1
  O  O456  1  0.82381993  0.49007980  0.18891662  1
  O  O457  1  0.81703955  0.48324137  0.53507227  1
  O  O458  1  0.82497010  0.49234668  0.86163986  1
  O  O459  1  0.83432687  0.98985093  0.19485347  1
  O  O460  1  0.83636113  0.99315939  0.52916674  1
  O  O461  1  0.84147566  0.99447070  0.86589334  1
