# generated using pymatgen
data_Na31Fe20(SO4)36
_symmetry_space_group_name_H-M   'P 1'
_cell_length_a   18.08111344
_cell_length_b   18.07551015
_cell_length_c   19.70485663
_cell_angle_alpha   107.57325848
_cell_angle_beta   107.56797965
_cell_angle_gamma   90.75399440
_symmetry_Int_Tables_number   1
_chemical_formula_structural   Na31Fe20(SO4)36
_chemical_formula_sum   'Na62 Fe40 S72 O288'
_cell_volume   5814.48844046
_cell_formula_units_Z   2
loop_
 _symmetry_equiv_pos_site_id
 _symmetry_equiv_pos_as_xyz
  1  'x, y, z'
loop_
 _atom_site_type_symbol
 _atom_site_label
 _atom_site_symmetry_multiplicity
 _atom_site_fract_x
 _atom_site_fract_y
 _atom_site_fract_z
 _atom_site_occupancy
  Na  Na0  1  0.13523918  0.35801286  0.07930901  1
  Na  Na1  1  0.13041254  0.37274100  0.41806797  1
  Na  Na2  1  0.13566624  0.36234868  0.75184560  1
  Na  Na3  1  0.10905419  0.89089854  0.08536161  1
  Na  Na4  1  0.12563535  0.86701810  0.41156762  1
  Na  Na5  1  0.13230112  0.85936049  0.74206491  1
  Na  Na6  1  0.63764846  0.36301573  0.08113978  1
  Na  Na7  1  0.62956996  0.37094363  0.41563117  1
  Na  Na8  1  0.63548140  0.36706227  0.75056981  1
  Na  Na9  1  0.63441954  0.86713200  0.08668659  1
  Na  Na10  1  0.63716897  0.86578681  0.42009536  1
  Na  Na11  1  0.67298848  0.86938512  0.78672868  1
  Na  Na12  1  0.36047690  0.13050623  0.23690591  1
  Na  Na13  1  0.36671621  0.13174211  0.58559749  1
  Na  Na14  1  0.35534663  0.13135318  0.91377552  1
  Na  Na15  1  0.36191432  0.63276505  0.24468312  1
  Na  Na16  1  0.38023650  0.63626253  0.58715597  1
  Na  Na17  1  0.36595845  0.63554299  0.91910377  1
  Na  Na18  1  0.88098492  0.10418522  0.24538741  1
  Na  Na19  1  0.86484647  0.12947112  0.57932618  1
  Na  Na20  1  0.86405133  0.13205892  0.91987482  1
  Na  Na21  1  0.86689949  0.63804648  0.24819785  1
  Na  Na22  1  0.87416244  0.65874764  0.60500169  1
  Na  Na23  1  0.86148867  0.64413759  0.91663277  1
  Na  Na24  1  0.49956244  0.51708243  0.72998306  1
  Na  Na25  1  0.98912826  0.52120444  0.08104844  1
  Na  Na26  1  0.48924386  0.50285576  0.09753922  1
  Na  Na27  1  0.49692568  0.55003616  0.43823271  1
  Na  Na28  1  0.47424006  0.01128298  0.08447259  1
  Na  Na29  1  0.47176744  0.00175178  0.75823966  1
  Na  Na30  1  0.99800618  0.51723023  0.73190060  1
  Na  Na31  1  0.48143958  0.00625469  0.41745031  1
  Na  Na32  1  1.01315886  -0.01716063  0.75632505  1
  Na  Na33  1  -0.01429022  0.54740910  0.52748162  1
  Na  Na34  1  0.01754109  0.97373204  0.93304666  1
  Na  Na35  1  0.53173469  0.99009548  0.25357066  1
  Na  Na36  1  0.51307409  0.97191060  0.59315890  1
  Na  Na37  1  0.00411248  0.49353956  0.25965712  1
  Na  Na38  1  0.51279722  0.98593194  0.92514480  1
  Na  Na39  1  0.03620575  0.98746700  0.58583241  1
  Na  Na40  1  0.00303792  0.49792321  0.90359128  1
  Na  Na41  1  0.50690011  0.49386438  0.91417114  1
  Na  Na42  1  0.24086721  0.74929404  0.01566942  1
  Na  Na43  1  0.74182561  0.24452214  0.67102066  1
  Na  Na44  1  0.76051851  0.76103693  0.32774803  1
  Na  Na45  1  0.25515333  0.75658576  0.32193392  1
  Na  Na46  1  0.23861971  0.73779779  0.66811705  1
  Na  Na47  1  0.74825626  0.74888473  0.68385267  1
  Na  Na48  1  0.24419663  0.24930342  0.33350666  1
  Na  Na49  1  0.23663688  0.23085860  0.67682016  1
  Na  Na50  1  0.77917787  0.78571714  -0.01369496  1
  Na  Na51  1  0.75861829  0.25554475  0.32769470  1
  Na  Na52  1  0.74542377  0.75077531  0.50687463  1
  Na  Na53  1  0.75220345  0.25097676  0.49683033  1
  Na  Na54  1  0.77826950  0.77781048  0.16005585  1
  Na  Na55  1  0.74140024  0.24095171  0.85064274  1
  Na  Na56  1  0.24062452  0.74422948  0.50256809  1
  Na  Na57  1  0.76000157  0.26006714  0.15683001  1
  Na  Na58  1  0.24660432  0.24469764  0.15584549  1
  Na  Na59  1  0.23387156  0.23118831  0.84592466  1
  Na  Na60  1  0.24424206  0.24031809  0.50283543  1
  Na  Na61  1  0.24194513  0.74501925  0.83977863  1
  Fe  Fe62  1  0.96349988  0.30693928  0.78528563  1
  Fe  Fe63  1  0.46597907  0.30936662  0.11975463  1
  Fe  Fe64  1  0.95890512  0.30777553  0.11618422  1
  Fe  Fe65  1  0.46823114  0.80185028  0.45721318  1
  Fe  Fe66  1  0.46626857  0.80330463  0.78505602  1
  Fe  Fe67  1  0.46700952  0.30493136  0.78305577  1
  Fe  Fe68  1  0.46451161  0.80384938  0.12103285  1
  Fe  Fe69  1  0.96916767  0.79918489  0.45681193  1
  Fe  Fe70  1  0.96386462  0.31037407  0.45351463  1
  Fe  Fe71  1  0.46314899  0.30895251  0.45028735  1
  Fe  Fe72  1  0.19232968  0.53223770  0.04740708  1
  Fe  Fe73  1  0.70112254  0.03299386  0.04745400  1
  Fe  Fe74  1  0.68792937  0.53952149  0.38141550  1
  Fe  Fe75  1  0.18522412  0.03377465  0.37116753  1
  Fe  Fe76  1  0.70883855  0.02619950  0.37772214  1
  Fe  Fe77  1  0.68932716  0.53829728  0.71198786  1
  Fe  Fe78  1  0.18998388  0.53620499  0.37875297  1
  Fe  Fe79  1  0.69268547  0.53627678  0.05019959  1
  Fe  Fe80  1  0.19585698  0.52957454  0.70938480  1
  Fe  Fe81  1  0.69778258  0.03189248  0.72139052  1
  Fe  Fe82  1  0.03151033  0.18384530  0.20408178  1
  Fe  Fe83  1  0.03558971  0.18700999  0.87950151  1
  Fe  Fe84  1  0.53544526  0.19360833  0.88383274  1
  Fe  Fe85  1  0.53456982  0.19214048  0.54511553  1
  Fe  Fe86  1  0.02985279  0.70281096  0.20883614  1
  Fe  Fe87  1  0.03134957  0.70105847  0.87766724  1
  Fe  Fe88  1  0.53555290  0.69187967  0.21784471  1
  Fe  Fe89  1  0.03312675  0.18867130  0.54240835  1
  Fe  Fe90  1  0.53797461  0.69413219  0.88584324  1
  Fe  Fe91  1  0.53659355  0.19619611  0.21513640  1
  Fe  Fe92  1  0.30596676  0.46036310  0.94928968  1
  Fe  Fe93  1  0.30851828  0.46047052  0.61372171  1
  Fe  Fe94  1  0.30501730  0.96248206  0.28123710  1
  Fe  Fe95  1  0.29874570  0.96819706  0.62118173  1
  Fe  Fe96  1  0.81553017  0.96567788  0.62429915  1
  Fe  Fe97  1  0.80874596  0.46995556  0.28905962  1
  Fe  Fe98  1  0.30455372  0.46460953  0.28274252  1
  Fe  Fe99  1  0.80536662  0.46295580  0.61761034  1
  Fe  Fe100  1  0.80422138  0.46664463  0.95030255  1
  Fe  Fe101  1  0.29447067  0.97051509  0.95647397  1
  S  S102  1  0.36418726  0.14230736  0.08189453  1
  S  S103  1  0.35949029  0.13959940  0.41506644  1
  S  S104  1  0.36095489  0.14200785  0.75090412  1
  S  S105  1  0.36216584  0.63302238  0.08181646  1
  S  S106  1  0.35252668  0.64125174  0.41263395  1
  S  S107  1  0.36523248  0.63457596  0.75044751  1
  S  S108  1  0.85456944  0.14695269  0.08523403  1
  S  S109  1  0.85921842  0.14617662  0.41865490  1
  S  S110  1  0.85629475  0.14556234  0.75126630  1
  S  S111  1  0.85606475  0.64024281  0.07997172  1
  S  S112  1  0.85353118  0.64227821  0.41837749  1
  S  S113  1  0.86341611  0.63164710  0.75084716  1
  S  S114  1  0.13602469  0.35877760  0.24757760  1
  S  S115  1  0.14196844  0.35536357  0.58244389  1
  S  S116  1  0.13837160  0.35870144  0.91338345  1
  S  S117  1  0.14489717  0.85869622  0.25026864  1
  S  S118  1  0.14270138  0.85563666  0.57941140  1
  S  S119  1  0.14290495  0.85340488  0.91554673  1
  S  S120  1  0.64019908  0.36309098  0.25126991  1
  S  S121  1  0.63771118  0.35977374  0.58285747  1
  S  S122  1  0.63769582  0.36227400  0.91597153  1
  S  S123  1  0.64120957  0.85588333  0.25112825  1
  S  S124  1  0.64416242  0.86207576  0.58486960  1
  S  S125  1  0.63452090  0.86389354  0.92347785  1
  S  S126  1  0.05787382  0.17144408  0.04137817  1
  S  S127  1  0.06868446  0.17810884  0.37670444  1
  S  S128  1  0.05996872  0.16853410  0.70883077  1
  S  S129  1  0.07094587  0.66023236  0.03685720  1
  S  S130  1  0.06333182  0.67000218  0.37171042  1
  S  S131  1  0.06963372  0.65746866  0.70689512  1
  S  S132  1  0.57117876  0.17226110  0.04375617  1
  S  S133  1  0.56681251  0.16941281  0.37571768  1
  S  S134  1  0.56978702  0.16876117  0.70903273  1
  S  S135  1  0.56707198  0.66582246  0.04572677  1
  S  S136  1  0.56316145  0.67048980  0.37677064  1
  S  S137  1  0.57130456  0.67674180  0.71506679  1
  S  S138  1  0.32827987  0.42865275  0.12181280  1
  S  S139  1  0.32981234  0.43282667  0.45372933  1
  S  S140  1  0.33218466  0.42881053  0.78820160  1
  S  S141  1  0.34519409  0.93384652  0.12958271  1
  S  S142  1  0.33457432  0.93482187  0.45917529  1
  S  S143  1  0.33013636  0.92671312  0.79365721  1
  S  S144  1  0.83029808  0.43694823  0.12683378  1
  S  S145  1  0.82665674  0.43508815  0.45698623  1
  S  S146  1  0.82611039  0.42981050  0.78929592  1
  S  S147  1  0.82221488  0.93063257  0.11789404  1
  S  S148  1  0.83260617  0.92835773  0.46125461  1
  S  S149  1  0.83784110  0.94651862  0.79327427  1
  S  S150  1  0.42989076  0.33034381  0.28889827  1
  S  S151  1  0.43358563  0.32751861  0.62172535  1
  S  S152  1  0.43397790  0.33239163  0.95619289  1
  S  S153  1  0.43241754  0.82726087  0.29363780  1
  S  S154  1  0.42882450  0.83623143  0.62624750  1
  S  S155  1  0.43061930  0.82697360  0.95872970  1
  S  S156  1  0.93207948  0.33677076  0.29285999  1
  S  S157  1  0.93382630  0.33028610  0.62419398  1
  S  S158  1  0.93313401  0.33737537  0.95809019  1
  S  S159  1  0.93025291  0.82649254  0.29568422  1
  S  S160  1  0.93755679  0.83569427  0.62372809  1
  S  S161  1  0.93771366  0.82463304  0.94945377  1
  S  S162  1  0.17632635  0.07103515  0.21050387  1
  S  S163  1  0.17245944  0.06990109  0.54033131  1
  S  S164  1  0.16592097  0.05966451  0.87295765  1
  S  S165  1  0.16612155  0.56302085  0.20665297  1
  S  S166  1  0.18162608  0.56787899  0.54475502  1
  S  S167  1  0.17232262  0.56345149  0.87455168  1
  S  S168  1  0.66521756  0.07038789  0.20795482  1
  S  S169  1  0.66858481  0.06959763  0.53944049  1
  S  S170  1  0.65870949  0.06640647  0.87532378  1
  S  S171  1  0.67002250  0.56657130  0.21035424  1
  S  S172  1  0.67475487  0.56965400  0.54765321  1
  S  S173  1  0.66501887  0.56656991  0.87597443  1
  O  O174  1  0.37843051  0.21922147  0.07158851  1
  O  O175  1  0.36857450  0.21892022  0.40746513  1
  O  O176  1  0.37610119  0.21757029  0.73660571  1
  O  O177  1  0.37117645  0.71137672  0.07264339  1
  O  O178  1  0.36562402  0.72095216  0.40721463  1
  O  O179  1  0.37269173  0.71171095  0.73856967  1
  O  O180  1  0.85934248  0.23103328  0.08744760  1
  O  O181  1  0.86378360  0.23067204  0.42040835  1
  O  O182  1  0.86418434  0.22558710  0.74417205  1
  O  O183  1  0.86096708  0.71689545  0.07128320  1
  O  O184  1  0.86839447  0.72300819  0.41353810  1
  O  O185  1  0.86867533  0.70381991  0.73363737  1
  O  O186  1  0.29033794  0.13545530  0.09548136  1
  O  O187  1  0.28031962  0.13024495  0.42184330  1
  O  O188  1  0.28321516  0.13925644  0.75799050  1
  O  O189  1  0.28447079  0.62263208  0.09017059  1
  O  O190  1  0.27025894  0.63420748  0.41450440  1
  O  O191  1  0.28618725  0.62556511  0.75849813  1
  O  O192  1  0.77403541  0.13302465  0.09290208  1
  O  O193  1  0.78017164  0.13159878  0.42688171  1
  O  O194  1  0.77668222  0.13640205  0.75892860  1
  O  O195  1  0.78028634  0.62636189  0.09375961  1
  O  O196  1  0.77030847  0.63687901  0.41780381  1
  O  O197  1  0.78776318  0.61838552  0.76338852  1
  O  O198  1  0.12586099  0.27990471  0.25486610  1
  O  O199  1  0.13249697  0.27504167  0.58804804  1
  O  O200  1  0.12838176  0.27813802  0.91561910  1
  O  O201  1  0.13251733  0.77948428  0.25867121  1
  O  O202  1  0.14248563  0.77631704  0.58386892  1
  O  O203  1  0.13515725  0.76860096  0.91805001  1
  O  O204  1  0.63102451  0.28481631  0.26169873  1
  O  O205  1  0.62804228  0.28183955  0.59405720  1
  O  O206  1  0.62842044  0.28299246  0.92166175  1
  O  O207  1  0.62727665  0.77991842  0.26438474  1
  O  O208  1  0.64293884  0.78492708  0.59308984  1
  O  O209  1  0.62117477  0.78982253  0.93953006  1
  O  O210  1  0.21556320  0.36704754  0.23988165  1
  O  O211  1  0.22008966  0.36371112  0.57195739  1
  O  O212  1  0.21546888  0.36760289  0.90061344  1
  O  O213  1  0.22813934  0.86548966  0.25011772  1
  O  O214  1  0.21708506  0.87344820  0.56412427  1
  O  O215  1  0.22812354  0.86435254  0.92164575  1
  O  O216  1  0.71992091  0.37108868  0.24410963  1
  O  O217  1  0.71690215  0.36553894  0.57413647  1
  O  O218  1  0.71618992  0.37219953  0.90725043  1
  O  O219  1  0.71711208  0.86086773  0.24116979  1
  O  O220  1  0.71879750  0.87992950  0.57113147  1
  O  O221  1  0.71037520  0.86890067  0.91338168  1
  O  O222  1  0.42820914  0.13212445  0.14788773  1
  O  O223  1  0.41823083  0.13271259  0.48472357  1
  O  O224  1  0.42032125  0.13589135  0.82058550  1
  O  O225  1  0.42266012  0.62487311  0.14931285  1
  O  O226  1  0.40700532  0.62964024  0.47931300  1
  O  O227  1  0.42417599  0.62868193  0.81975659  1
  O  O228  1  0.91261961  0.13946073  0.15474989  1
  O  O229  1  0.91790520  0.13883247  0.48769556  1
  O  O230  1  0.91469723  0.13892117  0.81962710  1
  O  O231  1  0.91956379  0.62968819  0.14483255  1
  O  O232  1  0.90512889  0.63181514  0.48663192  1
  O  O233  1  0.92624099  0.62857375  0.82085952  1
  O  O234  1  0.37001960  0.08029970  0.01334289  1
  O  O235  1  0.37126507  0.08029542  0.34922125  1
  O  O236  1  0.37033174  0.07821686  0.68583646  1
  O  O237  1  0.37140999  0.57315090  0.01394261  1
  O  O238  1  0.36052749  0.58263705  0.34336797  1
  O  O239  1  0.37571752  0.57314465  0.68466649  1
  O  O240  1  0.86268161  0.09457270  0.01736486  1
  O  O241  1  0.86757696  0.09427120  0.35058932  1
  O  O242  1  0.86383982  0.08882966  0.68233705  1
  O  O243  1  0.86172658  0.57878258  0.01047147  1
  O  O244  1  0.86244283  0.58574298  0.34907668  1
  O  O245  1  0.87559123  0.56580925  0.68784195  1
  O  O246  1  0.07709047  0.36912312  0.18062244  1
  O  O247  1  0.08188747  0.36678829  0.51716510  1
  O  O248  1  0.07729639  0.37381758  0.84956431  1
  O  O249  1  0.08993296  0.86761205  0.18404782  1
  O  O250  1  0.07828295  0.86102047  0.51039978  1
  O  O251  1  0.09366964  0.85878370  0.84405072  1
  O  O252  1  0.58216142  0.36801425  0.18133288  1
  O  O253  1  0.57971687  0.36474865  0.51330568  1
  O  O254  1  0.57819270  0.37231427  0.84842481  1
  O  O255  1  0.57867799  0.86356487  0.18393132  1
  O  O256  1  0.57979075  0.86859554  0.51771408  1
  O  O257  1  0.57258944  0.87177900  0.85609274  1
  O  O258  1  0.12901283  0.41854441  0.31625508  1
  O  O259  1  0.13856984  0.41200035  0.65349376  1
  O  O260  1  0.13510241  0.41490940  0.98466097  1
  O  O261  1  0.13970723  0.91740866  0.32112834  1
  O  O262  1  0.13324838  0.91382802  0.64532961  1
  O  O263  1  0.12702504  0.90659153  0.98038805  1
  O  O264  1  0.63173661  0.42256448  0.31831876  1
  O  O265  1  0.63010146  0.42037972  0.64986559  1
  O  O266  1  0.62937366  0.42091984  0.98426714  1
  O  O267  1  0.63390945  0.91911237  0.31856500  1
  O  O268  1  0.63390043  0.92256811  0.65216585  1
  O  O269  1  0.62552064  0.92918369  0.98968694  1
  O  O270  1  0.01920914  0.20653665  0.10212529  1
  O  O271  1  0.02805566  0.20643368  0.43545500  1
  O  O272  1  0.02382280  0.20420423  0.77025203  1
  O  O273  1  0.03344040  0.68232058  0.09550931  1
  O  O274  1  0.02226541  0.69699309  0.42853620  1
  O  O275  1  0.04125813  0.67439598  0.77320037  1
  O  O276  1  0.53834176  0.20317891  0.10697787  1
  O  O277  1  0.52921548  0.20072830  0.43616712  1
  O  O278  1  0.53401262  0.19889348  0.77041711  1
  O  O279  1  0.53035129  0.69647329  0.10647996  1
  O  O280  1  0.52450515  0.69839013  0.43470459  1
  O  O281  1  0.53846489  0.70626045  0.78107549  1
  O  O282  1  0.29622550  0.46271168  0.05877459  1
  O  O283  1  0.29763059  0.47077279  0.39394921  1
  O  O284  1  0.30179512  0.46368634  0.72637598  1
  O  O285  1  0.32621048  0.97020646  0.06989789  1
  O  O286  1  0.30968335  0.97271647  0.39916473  1
  O  O287  1  0.30957621  0.96133559  0.73267049  1
  O  O288  1  0.79824922  0.46862277  0.06272437  1
  O  O289  1  0.79637901  0.47279138  0.39693532  1
  O  O290  1  0.79249196  0.45856940  0.72434804  1
  O  O291  1  0.78886971  0.97650810  0.06218176  1
  O  O292  1  0.80768719  0.96518757  0.40192022  1
  O  O293  1  0.79848874  0.97538174  0.72419108  1
  O  O294  1  0.46819154  0.30218871  0.22884334  1
  O  O295  1  0.46833612  0.29834076  0.55951607  1
  O  O296  1  0.47073135  0.30212720  0.89539074  1
  O  O297  1  0.46708642  0.79611228  0.23103775  1
  O  O298  1  0.46521231  0.81413977  0.56644117  1
  O  O299  1  0.46228431  0.79328903  0.89496727  1
  O  O300  1  0.96817715  0.30707115  0.23243925  1
  O  O301  1  0.97264202  0.30219537  0.56523578  1
  O  O302  1  0.97030265  0.30707155  0.89818698  1
  O  O303  1  0.97022308  0.79601305  0.23866718  1
  O  O304  1  0.96701408  0.80598455  0.55783272  1
  O  O305  1  0.97748849  0.79036236  0.88779845  1
  O  O306  1  0.20699959  0.03343572  0.27315562  1
  O  O307  1  0.20131976  0.03394883  0.60002916  1
  O  O308  1  0.19675390  0.03041061  0.93805763  1
  O  O309  1  0.19592525  0.52480459  0.26685280  1
  O  O310  1  0.21119785  0.52531644  0.60265599  1
  O  O311  1  0.20230088  0.52728115  0.93604794  1
  O  O312  1  0.68485545  0.03207233  0.26641272  1
  O  O313  1  0.69565984  0.03835143  0.60318768  1
  O  O314  1  0.68389661  0.03601055  0.93951215  1
  O  O315  1  0.69926250  0.52943611  0.27084601  1
  O  O316  1  0.70762739  0.52870901  0.60625283  1
  O  O317  1  0.69481336  0.52922399  0.93660151  1
  O  O318  1  0.06803316  0.09101023  0.03648678  1
  O  O319  1  0.09153568  0.10016878  0.37625051  1
  O  O320  1  0.06967910  0.08721536  0.70380462  1
  O  O321  1  0.08237890  0.57330863  0.02328265  1
  O  O322  1  0.08502700  0.58943289  0.37003344  1
  O  O323  1  0.09215205  0.57449271  0.69378799  1
  O  O324  1  0.59104853  0.09079125  0.03927317  1
  O  O325  1  0.58458224  0.08848457  0.37254309  1
  O  O326  1  0.58829410  0.08740549  0.70369356  1
  O  O327  1  0.58052042  0.58200657  0.03963264  1
  O  O328  1  0.58249588  0.58955321  0.37495238  1
  O  O329  1  0.59172604  0.59539224  0.71426177  1
  O  O330  1  0.41022890  0.41335768  0.12460342  1
  O  O331  1  0.40903615  0.41247301  0.45338902  1
  O  O332  1  0.41480555  0.41277117  0.79378544  1
  O  O333  1  0.43073509  0.91834311  0.14387415  1
  O  O334  1  0.41860102  0.91906841  0.46818469  1
  O  O335  1  0.41548896  0.91179825  0.80889702  1
  O  O336  1  0.91256161  0.42019485  0.13099146  1
  O  O337  1  0.90715343  0.41538811  0.45950054  1
  O  O338  1  0.90817117  0.41263140  0.79350950  1
  O  O339  1  0.89306519  0.90312917  0.10503170  1
  O  O340  1  0.91311511  0.90425552  0.46913199  1
  O  O341  1  0.92109126  0.94515848  0.80071511  1
  O  O342  1  0.41033244  0.41106181  0.29526356  1
  O  O343  1  0.41534684  0.40927408  0.62826360  1
  O  O344  1  0.41897471  0.41577122  0.96172448  1
  O  O345  1  0.41571849  0.90947970  0.29808812  1
  O  O346  1  0.40970041  0.91961471  0.63570109  1
  O  O347  1  0.41670104  0.90952431  0.96425750  1
  O  O348  1  0.91559500  0.41924679  0.29703010  1
  O  O349  1  0.91280606  0.41070471  0.62765782  1
  O  O350  1  0.91636524  0.42014584  0.96159138  1
  O  O351  1  0.91466859  0.90567242  0.30452181  1
  O  O352  1  0.92341666  0.92021117  0.63238579  1
  O  O353  1  0.92232357  0.90281565  0.94695989  1
  O  O354  1  0.09795965  0.09369018  0.21272493  1
  O  O355  1  0.09188327  0.09004399  0.53891808  1
  O  O356  1  0.08631552  0.08665566  0.87394745  1
  O  O357  1  0.08473534  0.58046487  0.20212266  1
  O  O358  1  0.10720133  0.59439407  0.54766563  1
  O  O359  1  0.08992340  0.57914787  0.86786946  1
  O  O360  1  0.58005176  0.08497098  0.19424687  1
  O  O361  1  0.58393274  0.08411559  0.52838365  1
  O  O362  1  0.57380634  0.08185196  0.86425362  1
  O  O363  1  0.58846254  0.58466474  0.20475159  1
  O  O364  1  0.59691482  0.58753846  0.54810274  1
  O  O365  1  0.58078743  0.57940700  0.86945559  1
  O  O366  1  0.13069839  0.22270658  0.06114369  1
  O  O367  1  0.13852824  0.23442006  0.39597897  1
  O  O368  1  0.13465299  0.21841275  0.72825485  1
  O  O369  1  0.14467519  0.70687106  0.05496860  1
  O  O370  1  0.13367714  0.72419447  0.38992528  1
  O  O371  1  0.13939595  0.71240201  0.72398816  1
  O  O372  1  0.63945178  0.22497920  0.05505839  1
  O  O373  1  0.63735657  0.22253184  0.39183172  1
  O  O374  1  0.64037679  0.22230729  0.72576229  1
  O  O375  1  0.63908925  0.71462915  0.06164805  1
  O  O376  1  0.63399893  0.72290791  0.39234613  1
  O  O377  1  0.64213328  0.72804239  0.73076740  1
  O  O378  1  0.27910681  0.35780686  0.10980592  1
  O  O379  1  0.27648340  0.36268800  0.43911690  1
  O  O380  1  0.28168458  0.35740308  0.77380020  1
  O  O381  1  0.29555270  0.86188849  0.11216571  1
  O  O382  1  0.28382056  0.86217847  0.43985903  1
  O  O383  1  0.28026334  0.85310790  0.77532548  1
  O  O384  1  0.77925807  0.36808285  0.11627658  1
  O  O385  1  0.77285739  0.36460407  0.44039218  1
  O  O386  1  0.77648176  0.35959579  0.78052944  1
  O  O387  1  0.76057142  0.86287274  0.09545774  1
  O  O388  1  0.77666620  0.85933744  0.44499245  1
  O  O389  1  0.79594081  0.86877545  0.77429774  1
  O  O390  1  0.35973596  0.27608967  0.27152535  1
  O  O391  1  0.36330391  0.27533039  0.60697611  1
  O  O392  1  0.36212219  0.28284288  0.94004649  1
  O  O393  1  0.36283403  0.77548521  0.27956947  1
  O  O394  1  0.35828414  0.78280265  0.60901533  1
  O  O395  1  0.35939955  0.77671718  0.94623898  1
  O  O396  1  0.85946245  0.28722519  0.27773404  1
  O  O397  1  0.86355655  0.27678484  0.60813020  1
  O  O398  1  0.86156429  0.28734801  0.94310840  1
  O  O399  1  0.85883136  0.77050902  0.27560163  1
  O  O400  1  0.86280996  0.78859231  0.60793354  1
  O  O401  1  0.86540198  0.77098661  0.92627841  1
  O  O402  1  0.23054502  0.14288307  0.23089291  1
  O  O403  1  0.22529537  0.14192075  0.55701044  1
  O  O404  1  0.21935045  0.12688445  0.88156725  1
  O  O405  1  0.21927707  0.63254159  0.22258347  1
  O  O406  1  0.24156357  0.63352898  0.56157269  1
  O  O407  1  0.22448335  0.63515050  0.89230021  1
  O  O408  1  0.71577500  0.14313592  0.22802598  1
  O  O409  1  0.71729040  0.14353621  0.55529989  1
  O  O410  1  0.70771360  0.13746538  0.88750086  1
  O  O411  1  0.72200903  0.63682259  0.22558667  1
  O  O412  1  0.73025298  0.63920922  0.56514431  1
  O  O413  1  0.71304555  0.63941508  0.89313660  1
  O  O414  1  0.49352221  0.33571194  0.02920890  1
  O  O415  1  0.48984367  0.33071286  0.36071337  1
  O  O416  1  0.49475528  0.33008628  0.69354846  1
  O  O417  1  0.49146139  0.82775660  0.03042414  1
  O  O418  1  0.49348911  0.83183608  0.36627718  1
  O  O419  1  0.48757775  0.83902004  0.69945225  1
  O  O420  1  0.99122129  0.34233633  0.03214968  1
  O  O421  1  0.99027237  0.33871402  0.36598000  1
  O  O422  1  0.99252050  0.33600295  0.69835297  1
  O  O423  1  0.99273807  0.82303157  0.02044482  1
  O  O424  1  0.98625775  0.82056980  0.37020006  1
  O  O425  1  0.99759815  0.83403641  0.69159663  1
  O  O426  1  0.17442316  0.01396424  0.14038695  1
  O  O427  1  0.16837020  0.01314994  0.46619940  1
  O  O428  1  0.15185669  -0.00373326  0.80174669  1
  O  O429  1  0.16302953  0.50291851  0.13355571  1
  O  O430  1  0.17420568  0.50867793  0.46998604  1
  O  O431  1  0.17230710  0.50446372  0.80255964  1
  O  O432  1  0.66862162  0.01406826  0.13525950  1
  O  O433  1  0.67134404  0.01026221  0.46890316  1
  O  O434  1  0.65784682  0.00407310  0.80480455  1
  O  O435  1  0.66663790  0.50588867  0.13753465  1
  O  O436  1  0.67134415  0.51156086  0.47301042  1
  O  O437  1  0.66351334  0.50744950  0.80318693  1
  O  O438  1  0.01134500  0.17494451  0.30342334  1
  O  O439  1  0.00499171  0.17306358  0.63655192  1
  O  O440  1  0.00158253  0.17779950  0.96980635  1
  O  O441  1  0.00773371  0.66156397  0.29532841  1
  O  O442  1  0.00619895  0.65648418  0.63997521  1
  O  O443  1  0.01394392  0.66156757  0.96275365  1
  O  O444  1  0.50790807  0.16638704  0.30248143  1
  O  O445  1  0.51038054  0.16625007  0.63632585  1
  O  O446  1  0.50773518  0.16720942  0.97234399  1
  O  O447  1  0.50561933  0.66453218  0.30154413  1
  O  O448  1  0.50920348  0.67194276  0.64664070  1
  O  O449  1  0.50766871  0.66298905  0.97255197  1
  O  O450  1  0.33093643  0.49040230  0.19327858  1
  O  O451  1  0.33639372  0.49087307  0.52806138  1
  O  O452  1  0.33520255  0.48898257  0.86081985  1
  O  O453  1  0.34269604  0.99306529  0.20094858  1
  O  O454  1  0.33358382  0.99251490  0.53149041  1
  O  O455  1  0.32555024  0.98540246  0.86402410  1
  O  O456  1  0.83560474  0.49941516  0.19892335  1
  O  O457  1  0.83244216  0.49358418  0.53059178  1
  O  O458  1  0.83084448  0.49314555  0.86030540  1
  O  O459  1  0.83044491  0.98196140  0.19330099  1
  O  O460  1  0.83572440  0.98931595  0.53416856  1
  O  O461  1  0.82425864  1.00384063  0.85725944  1
