# generated using pymatgen
data_Na31Fe20(SO4)36
_symmetry_space_group_name_H-M   'P 1'
_cell_length_a   18.07400797
_cell_length_b   18.07584654
_cell_length_c   19.70181640
_cell_angle_alpha   107.55388718
_cell_angle_beta   107.59004503
_cell_angle_gamma   90.74638357
_symmetry_Int_Tables_number   1
_chemical_formula_structural   Na31Fe20(SO4)36
_chemical_formula_sum   'Na62 Fe40 S72 O288'
_cell_volume   5811.41527123
_cell_formula_units_Z   2
loop_
 _symmetry_equiv_pos_site_id
 _symmetry_equiv_pos_as_xyz
  1  'x, y, z'
loop_
 _atom_site_type_symbol
 _atom_site_label
 _atom_site_symmetry_multiplicity
 _atom_site_fract_x
 _atom_site_fract_y
 _atom_site_fract_z
 _atom_site_occupancy
  Na  Na0  1  0.14335384  0.37767391  0.09980128  1
  Na  Na1  1  0.13089001  0.34852186  0.39708572  1
  Na  Na2  1  0.13416873  0.37174552  0.74912302  1
  Na  Na3  1  0.12221989  0.86106063  0.08133106  1
  Na  Na4  1  0.13913491  0.86092959  0.42566667  1
  Na  Na5  1  0.13213917  0.87396551  0.75749442  1
  Na  Na6  1  0.63196400  0.36607605  0.08419800  1
  Na  Na7  1  0.62615800  0.36581608  0.41405311  1
  Na  Na8  1  0.63079653  0.37023313  0.74979227  1
  Na  Na9  1  0.63303573  0.85428523  0.06957621  1
  Na  Na10  1  0.64494410  0.86413799  0.42155262  1
  Na  Na11  1  0.63928097  0.86226967  0.74633365  1
  Na  Na12  1  0.35439315  0.13684099  0.24901558  1
  Na  Na13  1  0.36572746  0.13192278  0.58041655  1
  Na  Na14  1  0.36577731  0.13587349  0.91775289  1
  Na  Na15  1  0.37029641  0.62915991  0.25011573  1
  Na  Na16  1  0.34826638  0.63806638  0.57459914  1
  Na  Na17  1  0.33566832  0.64357224  0.88573259  1
  Na  Na18  1  0.87143940  0.13380043  0.24660655  1
  Na  Na19  1  0.86886888  0.13192388  0.58698222  1
  Na  Na20  1  0.86931724  0.12214003  0.90702914  1
  Na  Na21  1  0.87280077  0.64254452  0.26135852  1
  Na  Na22  1  0.87097529  0.63353459  0.58819667  1
  Na  Na23  1  0.87216701  0.64062700  0.92640112  1
  Na  Na24  1  0.44617832  0.50139198  0.39677139  1
  Na  Na25  1  0.48701467  0.01277080  0.08671322  1
  Na  Na26  1  0.50757215  -0.00335026  0.75093877  1
  Na  Na27  1  0.48742938  0.51009745  0.08688580  1
  Na  Na28  1  1.00769946  -0.01405010  0.42537091  1
  Na  Na29  1  0.98758117  0.02036499  0.08141147  1
  Na  Na30  1  0.44754224  0.52304703  0.68136497  1
  Na  Na31  1  0.48742041  0.01028602  0.42152101  1
  Na  Na32  1  0.99990450  0.52212684  0.40243101  1
  Na  Na33  1  0.07808199  0.50631673  0.62757050  1
  Na  Na34  1  0.51014515  0.98549233  0.25174512  1
  Na  Na35  1  0.01201586  0.97337907  0.24026522  1
  Na  Na36  1  0.01709334  0.50411883  0.21795458  1
  Na  Na37  1  0.50826158  0.98221964  0.91842684  1
  Na  Na38  1  0.00889049  0.49333238  0.91121398  1
  Na  Na39  1  0.54316550  0.98787833  0.59573689  1
  Na  Na40  1  0.47785537  0.55222206  0.87494107  1
  Na  Na41  1  0.00564746  0.95682770  0.58977597  1
  Na  Na42  1  0.74817922  0.24080353  0.67114888  1
  Na  Na43  1  0.24137709  0.74418557  0.34723904  1
  Na  Na44  1  0.23525336  0.73759708  0.68229677  1
  Na  Na45  1  0.75801137  0.75541307  -0.00982236  1
  Na  Na46  1  0.26403303  0.26785088  0.65686727  1
  Na  Na47  1  0.75653389  0.24774779  -0.00559224  1
  Na  Na48  1  0.24348288  0.24929870  0.01085781  1
  Na  Na49  1  0.25007477  0.75395847  -0.00803701  1
  Na  Na50  1  0.76385004  0.75790712  0.33310691  1
  Na  Na51  1  0.75362111  0.25058342  0.33082672  1
  Na  Na52  1  0.74937611  0.25305710  0.49978946  1
  Na  Na53  1  0.76904844  0.75919172  0.15857933  1
  Na  Na54  1  0.22664837  0.24762897  0.19848631  1
  Na  Na55  1  0.25535619  0.25836932  0.82881529  1
  Na  Na56  1  0.75680196  0.25618836  0.16233176  1
  Na  Na57  1  0.75809510  0.75754257  0.81930640  1
  Na  Na58  1  0.74416483  0.23768444  0.83169760  1
  Na  Na59  1  0.24750760  0.74596614  0.17070967  1
  Na  Na60  1  0.74449227  0.73635912  0.51331078  1
  Na  Na61  1  0.26101364  0.26528422  0.48150093  1
  Fe  Fe62  1  0.97053389  0.30428443  0.45553846  1
  Fe  Fe63  1  0.46860690  0.80016135  0.78715183  1
  Fe  Fe64  1  0.96827347  0.30064000  0.12355241  1
  Fe  Fe65  1  0.46918503  0.80407190  0.11380456  1
  Fe  Fe66  1  0.96000077  0.81288838  0.79047774  1
  Fe  Fe67  1  0.46788685  0.31089597  0.78886468  1
  Fe  Fe68  1  0.96691628  0.30184668  0.78520573  1
  Fe  Fe69  1  0.45943570  0.31869631  0.45723192  1
  Fe  Fe70  1  0.45886593  0.31440463  0.12508587  1
  Fe  Fe71  1  0.46737100  0.80684777  0.45299452  1
  Fe  Fe72  1  0.68812824  0.53424722  0.04325716  1
  Fe  Fe73  1  0.19508378  0.53553376  0.04751908  1
  Fe  Fe74  1  0.69031331  0.03769487  0.04885523  1
  Fe  Fe75  1  0.19929395  0.53621126  0.37519597  1
  Fe  Fe76  1  0.69035211  0.53237410  0.38233773  1
  Fe  Fe77  1  0.69338091  0.03563761  0.38229768  1
  Fe  Fe78  1  0.19793148  0.03366641  0.71659921  1
  Fe  Fe79  1  0.68576751  0.53778366  0.71246319  1
  Fe  Fe80  1  0.18846821  0.03353123  0.04834354  1
  Fe  Fe81  1  0.19340215  0.03744173  0.38280523  1
  Fe  Fe82  1  0.53471081  0.19297949  0.88280824  1
  Fe  Fe83  1  0.53666179  0.19364777  0.55044240  1
  Fe  Fe84  1  0.53982679  0.69380175  0.21559895  1
  Fe  Fe85  1  0.53550832  0.69008246  0.54724301  1
  Fe  Fe86  1  0.03617417  0.18769997  0.87896010  1
  Fe  Fe87  1  0.53290061  0.19301289  0.21739727  1
  Fe  Fe88  1  0.03234633  0.70061900  0.54478312  1
  Fe  Fe89  1  0.03383286  0.18512485  0.54525218  1
  Fe  Fe90  1  0.03535466  0.68747144  0.87479415  1
  Fe  Fe91  1  0.02796259  0.70282385  0.20670257  1
  Fe  Fe92  1  0.30404092  0.96324197  0.94873868  1
  Fe  Fe93  1  0.80320011  0.96618631  0.94880139  1
  Fe  Fe94  1  0.30939520  0.96521813  0.28601195  1
  Fe  Fe95  1  0.81071323  0.46636681  0.62462442  1
  Fe  Fe96  1  0.31353389  0.96224916  0.62006822  1
  Fe  Fe97  1  0.81197079  0.96617507  0.28750579  1
  Fe  Fe98  1  0.80464389  0.46379968  0.28859245  1
  Fe  Fe99  1  0.80282987  0.96595330  0.62334437  1
  Fe  Fe100  1  0.30436572  0.46787003  0.94779484  1
  Fe  Fe101  1  0.81129931  0.46233771  0.95585814  1
  S  S102  1  0.35856279  0.13794371  0.08506796  1
  S  S103  1  0.36268833  0.14026150  0.41766603  1
  S  S104  1  0.36093141  0.14137970  0.75074734  1
  S  S105  1  0.36264128  0.64180835  0.08244073  1
  S  S106  1  0.35993702  0.64609272  0.41667209  1
  S  S107  1  0.35260669  0.64913726  0.74750637  1
  S  S108  1  0.85744054  0.13891575  0.08141522  1
  S  S109  1  0.85766821  0.14144050  0.41774011  1
  S  S110  1  0.86123665  0.13837450  0.74863364  1
  S  S111  1  0.85621815  0.63657044  0.08337963  1
  S  S112  1  0.85869543  0.63741582  0.41663888  1
  S  S113  1  0.85770190  0.64032165  0.75205997  1
  S  S114  1  0.13331095  0.36978652  0.24836425  1
  S  S115  1  0.14324123  0.34523843  0.57976175  1
  S  S116  1  0.13924109  0.35831643  0.91761779  1
  S  S117  1  0.14796585  0.86151743  0.25571885  1
  S  S118  1  0.14566874  0.86294947  0.58655972  1
  S  S119  1  0.13755110  0.86096038  0.91733101  1
  S  S120  1  0.63843147  0.35811882  0.24945160  1
  S  S121  1  0.64174930  0.35906123  0.58448016  1
  S  S122  1  0.64388052  0.35664620  0.91965620  1
  S  S123  1  0.64330815  0.86058556  0.24918839  1
  S  S124  1  0.64084047  0.85407627  0.57882380  1
  S  S125  1  0.63778398  0.86189281  0.91738008  1
  S  S126  1  0.06974289  0.17073462  0.04459928  1
  S  S127  1  0.06160176  0.15711378  0.37426859  1
  S  S128  1  0.07134489  0.16732852  0.70945739  1
  S  S129  1  0.07042800  0.67029056  0.04100511  1
  S  S130  1  0.06971823  0.67108854  0.37054995  1
  S  S131  1  0.06530117  0.68371930  0.71589700  1
  S  S132  1  0.56305152  0.16945451  0.04508455  1
  S  S133  1  0.56493676  0.16548780  0.37517566  1
  S  S134  1  0.56127471  0.16832112  0.71068536  1
  S  S135  1  0.56713398  0.66913306  0.04504408  1
  S  S136  1  0.56918939  0.67019765  0.37663135  1
  S  S137  1  0.56644288  0.67139435  0.70759409  1
  S  S138  1  0.33112323  0.43864238  0.12070079  1
  S  S139  1  0.32458230  0.44037638  0.45802441  1
  S  S140  1  0.33836569  0.43253680  0.79370536  1
  S  S141  1  0.33520136  0.93214649  0.12554114  1
  S  S142  1  0.33965156  0.93630596  0.46075634  1
  S  S143  1  0.33653404  0.93440237  0.79243169  1
  S  S144  1  0.82803705  0.42707065  0.12416569  1
  S  S145  1  0.82571283  0.42539440  0.45774898  1
  S  S146  1  0.83057035  0.42792396  0.79166728  1
  S  S147  1  0.82816696  0.93981085  0.12209697  1
  S  S148  1  0.83135716  0.94079885  0.45909588  1
  S  S149  1  0.82556837  0.92921092  0.78928467  1
  S  S150  1  0.43020308  0.32469740  0.28678691  1
  S  S151  1  0.43351386  0.32491274  0.61976659  1
  S  S152  1  0.43243337  0.32971208  0.95958220  1
  S  S153  1  0.43883327  0.83243711  0.29098560  1
  S  S154  1  0.43704786  0.83042488  0.62646663  1
  S  S155  1  0.43237819  0.83778510  0.95935524  1
  S  S156  1  0.92542220  0.32839195  0.29299038  1
  S  S157  1  0.93069782  0.32525532  0.62313201  1
  S  S158  1  0.93135431  0.32200364  0.95579473  1
  S  S159  1  0.93841919  0.83676517  0.29388677  1
  S  S160  1  0.92925445  0.82776378  0.62572059  1
  S  S161  1  0.93045349  0.83403278  0.95800429  1
  S  S162  1  0.16760099  0.05721868  0.20929246  1
  S  S163  1  0.17573625  0.06624386  0.54691425  1
  S  S164  1  0.17676040  0.07089515  0.88111062  1
  S  S165  1  0.17281431  0.57917534  0.21063798  1
  S  S166  1  0.16244748  0.57234550  0.53603470  1
  S  S167  1  0.16474710  0.56291407  0.87594163  1
  S  S168  1  0.66477205  0.06519456  0.20836201  1
  S  S169  1  0.66655486  0.06466892  0.54064017  1
  S  S170  1  0.66213462  0.06375330  0.87457967  1
  S  S171  1  0.67254178  0.56691533  0.21034622  1
  S  S172  1  0.67034070  0.56427427  0.54177684  1
  S  S173  1  0.67627625  0.56395499  0.87882162  1
  O  O174  1  0.36795892  0.21715728  0.07806286  1
  O  O175  1  0.37248747  0.22033023  0.41415541  1
  O  O176  1  0.36840269  0.22065416  0.74335435  1
  O  O177  1  0.37188427  0.72140800  0.07507374  1
  O  O178  1  0.36888310  0.72782042  0.41340159  1
  O  O179  1  0.37042855  0.73332641  0.74719961  1
  O  O180  1  0.86690826  0.21920863  0.07562317  1
  O  O181  1  0.86847215  0.22194474  0.41413418  1
  O  O182  1  0.87446593  0.21650403  0.73714084  1
  O  O183  1  0.85887636  0.71305086  0.07248495  1
  O  O184  1  0.86473680  0.71098497  0.40184367  1
  O  O185  1  0.86477694  0.72043619  0.74667925  1
  O  O186  1  0.28098586  0.12776764  0.09497754  1
  O  O187  1  0.28485096  0.13001717  0.42777346  1
  O  O188  1  0.28288826  0.13159272  0.76089125  1
  O  O189  1  0.28457808  0.63400099  0.09220123  1
  O  O190  1  0.27846484  0.63517561  0.42047344  1
  O  O191  1  0.27665383  0.64799048  0.75955838  1
  O  O192  1  0.77699455  0.13306229  0.08964441  1
  O  O193  1  0.77788254  0.13385430  0.42547066  1
  O  O194  1  0.78464202  0.13430379  0.75847525  1
  O  O195  1  0.77782949  0.62197520  0.09311410  1
  O  O196  1  0.77947636  0.62367030  0.42418239  1
  O  O197  1  0.77897258  0.62734861  0.75976328  1
  O  O198  1  0.12227830  0.29590422  0.26167279  1
  O  O199  1  0.12690313  0.26550508  0.58663190  1
  O  O200  1  0.13134598  0.27827549  0.92351309  1
  O  O201  1  0.13438423  0.78100790  0.25860656  1
  O  O202  1  0.13277651  0.78338078  0.59121229  1
  O  O203  1  0.12705443  0.78129076  0.92347512  1
  O  O204  1  0.63166715  0.27930554  0.25915314  1
  O  O205  1  0.63545824  0.28021694  0.59484358  1
  O  O206  1  0.63122414  0.27825978  0.92936067  1
  O  O207  1  0.63632687  0.78322327  0.26077738  1
  O  O208  1  0.63319476  0.77133621  0.57723335  1
  O  O209  1  0.63203552  0.78847791  0.93250472  1
  O  O210  1  0.20492269  0.37831873  0.23009744  1
  O  O211  1  0.22143992  0.34846697  0.57337528  1
  O  O212  1  0.21677632  0.36825723  0.90700774  1
  O  O213  1  0.22946847  0.86700465  0.25021171  1
  O  O214  1  0.22525905  0.87212061  0.58019421  1
  O  O215  1  0.21605076  0.87063086  0.90853625  1
  O  O216  1  0.71704508  0.36719388  0.23985125  1
  O  O217  1  0.72102353  0.36926774  0.57730135  1
  O  O218  1  0.72472708  0.36096310  0.91468593  1
  O  O219  1  0.72276548  0.87076423  0.24270141  1
  O  O220  1  0.71776430  0.86695527  0.56751085  1
  O  O221  1  0.71537751  0.87337123  0.90652572  1
  O  O222  1  0.41948702  0.12694309  0.15123309  1
  O  O223  1  0.42330667  0.12644929  0.48246270  1
  O  O224  1  0.42083010  0.13331795  0.81869380  1
  O  O225  1  0.42298414  0.63380197  0.15031079  1
  O  O226  1  0.41631810  0.63836339  0.48652275  1
  O  O227  1  0.41407095  0.63298188  0.80907326  1
  O  O228  1  0.91555667  0.12580826  0.14487987  1
  O  O229  1  0.91528883  0.12856800  0.48401247  1
  O  O230  1  0.92264441  0.13126005  0.81569823  1
  O  O231  1  0.91610071  0.63336533  0.15349844  1
  O  O232  1  0.91809075  0.63424620  0.48676788  1
  O  O233  1  0.91736856  0.63203741  0.81971676  1
  O  O234  1  0.36643616  0.07953105  0.01613959  1
  O  O235  1  0.36922098  0.08299107  0.34744955  1
  O  O236  1  0.36878715  0.08258595  0.68269393  1
  O  O237  1  0.37022508  0.58272816  0.01474623  1
  O  O238  1  0.37141451  0.59034231  0.35070180  1
  O  O239  1  0.35290748  0.59822319  0.67388539  1
  O  O240  1  0.86121831  0.08249229  0.00953860  1
  O  O241  1  0.86235320  0.08528763  0.34707038  1
  O  O242  1  0.86652925  0.07842382  0.67987472  1
  O  O243  1  0.86728625  0.57581844  0.01761046  1
  O  O244  1  0.86993846  0.57257753  0.35202435  1
  O  O245  1  0.86511636  0.58268459  0.68293262  1
  O  O246  1  0.06649520  0.38062987  0.18415907  1
  O  O247  1  0.08501120  0.35408915  0.50989271  1
  O  O248  1  0.07781120  0.36765120  0.85093545  1
  O  O249  1  0.09190440  0.87701612  0.19212213  1
  O  O250  1  0.08699597  0.87827487  0.52368015  1
  O  O251  1  0.07740873  0.87226499  0.85213901  1
  O  O252  1  0.57928381  0.36393446  0.18093957  1
  O  O253  1  0.58279901  0.36190754  0.51426978  1
  O  O254  1  0.58843457  0.36345695  0.84992557  1
  O  O255  1  0.58488385  0.86657858  0.17971093  1
  O  O256  1  0.57985013  0.86695256  0.51219375  1
  O  O257  1  0.57720277  0.86677789  0.84763735  1
  O  O258  1  0.12951367  0.43504683  0.31724961  1
  O  O259  1  0.13475995  0.40321787  0.64652293  1
  O  O260  1  0.13192003  0.41590821  0.98665189  1
  O  O261  1  0.14487131  0.91785417  0.32817992  1
  O  O262  1  0.14043200  0.92015891  0.65897228  1
  O  O263  1  0.13404900  0.91827357  0.98854361  1
  O  O264  1  0.63169271  0.41721696  0.31743208  1
  O  O265  1  0.63240590  0.41842461  0.65115930  1
  O  O266  1  0.63515176  0.41649267  0.98661643  1
  O  O267  1  0.63138224  0.92087548  0.31490716  1
  O  O268  1  0.63228106  0.90822820  0.64726563  1
  O  O269  1  0.62654290  0.92680086  0.98145709  1
  O  O270  1  0.03158282  0.20192233  0.10214178  1
  O  O271  1  0.02657303  0.19010760  0.43728242  1
  O  O272  1  0.03529944  0.19727500  0.77087193  1
  O  O273  1  0.03465759  0.69591657  0.10066864  1
  O  O274  1  0.03275436  0.68701665  0.42964824  1
  O  O275  1  0.02107419  0.71544610  0.77307980  1
  O  O276  1  0.52818459  0.19937620  0.10660557  1
  O  O277  1  0.53381183  0.19600628  0.43872771  1
  O  O278  1  0.52784395  0.20727294  0.77311530  1
  O  O279  1  0.53636716  0.70388940  0.11142110  1
  O  O280  1  0.52761718  0.69869283  0.43393302  1
  O  O281  1  0.53106277  0.70430718  0.76765628  1
  O  O282  1  0.29860153  0.47047200  0.05466285  1
  O  O283  1  0.29316653  0.47715789  0.39602774  1
  O  O284  1  0.32441852  0.46324021  0.73214554  1
  O  O285  1  0.30363274  0.96702090  0.06432870  1
  O  O286  1  0.31317450  0.97493217  0.40124889  1
  O  O287  1  0.31029028  0.97363707  0.73300128  1
  O  O288  1  0.79883885  0.46339071  0.06356487  1
  O  O289  1  0.79480683  0.46229396  0.39692574  1
  O  O290  1  0.80194987  0.46458212  0.73111736  1
  O  O291  1  0.79000197  0.97334595  0.05948608  1
  O  O292  1  0.79626656  0.97531668  0.39573731  1
  O  O293  1  0.80381384  0.96181645  0.72714316  1
  O  O294  1  0.47151099  0.29165492  0.22777929  1
  O  O295  1  0.47567574  0.29295084  0.56180164  1
  O  O296  1  0.47088922  0.30006407  0.89994303  1
  O  O297  1  0.47519558  0.80440443  0.22980283  1
  O  O298  1  0.47645037  0.80165065  0.56744238  1
  O  O299  1  0.46505635  0.81617013  0.89731319  1
  O  O300  1  0.95108741  0.30340365  0.22691751  1
  O  O301  1  0.96775680  0.29543249  0.56267503  1
  O  O302  1  0.96934331  0.29266297  0.89552192  1
  O  O303  1  0.96842622  0.80477728  0.22982247  1
  O  O304  1  0.97384446  0.80278470  0.57205369  1
  O  O305  1  0.96373878  0.80307384  0.89349199  1
  O  O306  1  0.20713612  0.02636027  0.27429895  1
  O  O307  1  0.20677518  0.03064077  0.60841518  1
  O  O308  1  0.20420667  0.03259906  0.94166353  1
  O  O309  1  0.19533420  0.54380352  0.27179517  1
  O  O310  1  0.17771233  0.52569895  0.58584857  1
  O  O311  1  0.19891748  0.52905160  0.94080071  1
  O  O312  1  0.69764478  0.03129017  0.27023312  1
  O  O313  1  0.69549914  0.02867158  0.59978732  1
  O  O314  1  0.69876119  0.03603081  0.94105693  1
  O  O315  1  0.69934854  0.52894677  0.27074025  1
  O  O316  1  0.69887377  0.52847339  0.60397162  1
  O  O317  1  0.70728182  0.52097983  0.93631446  1
  O  O318  1  0.08829762  0.08988847  0.04509945  1
  O  O319  1  0.08206296  0.07562085  0.37586233  1
  O  O320  1  0.09126458  0.08666222  0.70463888  1
  O  O321  1  0.08924569  0.58759495  0.02992926  1
  O  O322  1  0.09061073  0.58723959  0.35393189  1
  O  O323  1  0.08753303  0.60937649  0.72454557  1
  O  O324  1  0.57806600  0.08613230  0.03928266  1
  O  O325  1  0.58121144  0.08218277  0.36862738  1
  O  O326  1  0.56940986  0.08713258  0.70885883  1
  O  O327  1  0.58392426  0.58741978  0.04416125  1
  O  O328  1  0.58716839  0.58962568  0.37277081  1
  O  O329  1  0.58196977  0.58957311  0.70614497  1
  O  O330  1  0.41169123  0.41756091  0.11971081  1
  O  O331  1  0.40136177  0.41287788  0.44824630  1
  O  O332  1  0.42228213  0.41251577  0.81563805  1
  O  O333  1  0.41847610  0.91673796  0.13031186  1
  O  O334  1  0.42301818  0.91996006  0.46722842  1
  O  O335  1  0.41761093  0.91274984  0.79585090  1
  O  O336  1  0.90811246  0.40626206  0.12817033  1
  O  O337  1  0.90463750  0.40342620  0.45965385  1
  O  O338  1  0.91101543  0.40637919  0.79639803  1
  O  O339  1  0.91026253  0.93470520  0.12751960  1
  O  O340  1  0.91471206  0.93681120  0.46837919  1
  O  O341  1  0.90827431  0.91052928  0.80417455  1
  O  O342  1  0.41470566  0.40307202  0.28665024  1
  O  O343  1  0.41050631  0.39952149  0.61392595  1
  O  O344  1  0.41368218  0.41082368  0.96552874  1
  O  O345  1  0.42241606  0.91581021  0.29727692  1
  O  O346  1  0.42391562  0.91460997  0.63236206  1
  O  O347  1  0.41539977  0.92245920  0.97205903  1
  O  O348  1  0.90973243  0.41255329  0.30926040  1
  O  O349  1  0.90980440  0.40480770  0.62673808  1
  O  O350  1  0.91140086  0.40205920  0.95725552  1
  O  O351  1  0.91682366  0.91880267  0.29363477  1
  O  O352  1  0.90551760  0.90632496  0.62375381  1
  O  O353  1  0.90797272  0.91457746  0.96096870  1
  O  O354  1  0.08474032  0.05915139  0.20231555  1
  O  O355  1  0.09271614  0.08019597  0.54023639  1
  O  O356  1  0.09628796  0.08879972  0.87360550  1
  O  O357  1  0.09195691  0.60080981  0.20050191  1
  O  O358  1  0.07836466  0.59171316  0.52193878  1
  O  O359  1  0.08307651  0.57967438  0.87482729  1
  O  O360  1  0.58231444  0.08153609  0.20624721  1
  O  O361  1  0.58390021  0.08320119  0.53736663  1
  O  O362  1  0.58121281  0.08448757  0.87734139  1
  O  O363  1  0.59113623  0.58647123  0.20363063  1
  O  O364  1  0.59065568  0.58638093  0.53705438  1
  O  O365  1  0.59875118  0.58308400  0.87905769  1
  O  O366  1  0.14254139  0.22169262  0.06099272  1
  O  O367  1  0.13330343  0.20730720  0.38950898  1
  O  O368  1  0.14072180  0.22147447  0.72482727  1
  O  O369  1  0.14240522  0.72309629  0.05836856  1
  O  O370  1  0.13941175  0.72584178  0.39051387  1
  O  O371  1  0.13102643  0.74196872  0.73229426  1
  O  O372  1  0.63580677  0.21869585  0.06031418  1
  O  O373  1  0.63658497  0.21476810  0.38680392  1
  O  O374  1  0.63575818  0.21473541  0.72461824  1
  O  O375  1  0.64006843  0.71819993  0.05962195  1
  O  O376  1  0.64084250  0.72358840  0.39621491  1
  O  O377  1  0.63863630  0.71988622  0.72050997  1
  O  O378  1  0.28007243  0.36705770  0.10556493  1
  O  O379  1  0.27010105  0.37193525  0.44342310  1
  O  O380  1  0.28380122  0.36223996  0.77856828  1
  O  O381  1  0.28636355  0.86012911  0.11227926  1
  O  O382  1  0.28786480  0.86558529  0.44326087  1
  O  O383  1  0.28057298  0.86811322  0.77770434  1
  O  O384  1  0.77333313  0.35656063  0.10731421  1
  O  O385  1  0.77018059  0.35597973  0.44181389  1
  O  O386  1  0.77569479  0.35828582  0.77600390  1
  O  O387  1  0.78239675  0.86379394  0.10528646  1
  O  O388  1  0.78584819  0.86444686  0.43904973  1
  O  O389  1  0.77271126  0.85936114  0.77435431  1
  O  O390  1  0.36015474  0.27024464  0.26788914  1
  O  O391  1  0.36606196  0.26670778  0.60208443  1
  O  O392  1  0.36115292  0.27646388  0.94155609  1
  O  O393  1  0.36750092  0.78144345  0.27455010  1
  O  O394  1  0.36498097  0.78204830  0.60957279  1
  O  O395  1  0.36234743  0.78731610  0.94715104  1
  O  O396  1  0.85305740  0.27771391  0.27973304  1
  O  O397  1  0.86028050  0.27083495  0.60662961  1
  O  O398  1  0.86022657  0.26784023  0.93761722  1
  O  O399  1  0.86600036  0.78697091  0.28162024  1
  O  O400  1  0.86141763  0.77123333  0.60780520  1
  O  O401  1  0.85897897  0.78019998  0.94022782  1
  O  O402  1  0.21067389  0.13293328  0.22383909  1
  O  O403  1  0.22623223  0.13773370  0.56242840  1
  O  O404  1  0.23067795  0.14213443  0.90040822  1
  O  O405  1  0.22939565  0.64796683  0.22826374  1
  O  O406  1  0.21571278  0.64458391  0.56221679  1
  O  O407  1  0.21347199  0.63688744  0.89480507  1
  O  O408  1  0.71352510  0.13711767  0.22075743  1
  O  O409  1  0.71623332  0.13663628  0.55355665  1
  O  O410  1  0.71099468  0.13442207  0.88301890  1
  O  O411  1  0.72649781  0.63737960  0.22859003  1
  O  O412  1  0.72640216  0.63054795  0.55471417  1
  O  O413  1  0.73193080  0.63350475  0.89785334  1
  O  O414  1  0.49075319  0.33051571  0.03240973  1
  O  O415  1  0.48776331  0.32518427  0.36068786  1
  O  O416  1  0.49071354  0.33210362  0.69544039  1
  O  O417  1  0.49534573  0.83852908  0.03036021  1
  O  O418  1  0.49773845  0.83485943  0.36361356  1
  O  O419  1  0.49545270  0.83363336  0.70075695  1
  O  O420  1  0.98889886  0.32515864  0.02871089  1
  O  O421  1  0.98822974  0.32292836  0.36048754  1
  O  O422  1  0.99030119  0.32756492  0.69555918  1
  O  O423  1  0.99029718  0.83845406  0.02788868  1
  O  O424  1  0.99858535  0.84742166  0.36626676  1
  O  O425  1  0.98417375  0.83758378  0.70353641  1
  O  O426  1  0.17540472  -0.00046600  0.13916501  1
  O  O427  1  0.17530668  0.00664515  0.47491438  1
  O  O428  1  0.17977476  0.01232740  0.81024270  1
  O  O429  1  0.17306589  0.51825280  0.13956957  1
  O  O430  1  0.16580312  0.52186356  0.45918468  1
  O  O431  1  0.16411256  0.50403129  0.80689464  1
  O  O432  1  0.65857367  0.00558504  0.13494905  1
  O  O433  1  0.65888917  0.00639853  0.46514039  1
  O  O434  1  0.65055922  -0.00008419  0.80475492  1
  O  O435  1  0.67019095  0.50753835  0.13779309  1
  O  O436  1  0.66485719  0.50171555  0.46937466  1
  O  O437  1  0.67377221  0.50746617  0.80401971  1
  O  O438  1  0.00194923  0.14902461  0.30308234  1
  O  O439  1  0.01026144  0.16357788  0.63713672  1
  O  O440  1  0.01372654  0.16383561  0.96872386  1
  O  O441  1  0.00983024  0.67288107  0.29907352  1
  O  O442  1  0.00909383  0.67297052  0.63890677  1
  O  O443  1  0.01158608  0.67125845  0.96879125  1
  O  O444  1  0.50371391  0.16228373  0.30339680  1
  O  O445  1  0.50451557  0.16899348  0.63756810  1
  O  O446  1  0.50444672  0.16815348  0.97272580  1
  O  O447  1  0.51281732  0.66975122  0.30289017  1
  O  O448  1  0.50731890  0.66617245  0.63362539  1
  O  O449  1  0.50482674  0.66676072  0.97692106  1
  O  O450  1  0.33628390  0.49950594  0.18968294  1
  O  O451  1  0.34081528  0.49981957  0.53086287  1
  O  O452  1  0.33478827  0.49470889  0.86454016  1
  O  O453  1  0.34003786  0.99207331  0.19895649  1
  O  O454  1  0.34147045  0.99427978  0.53397480  1
  O  O455  1  0.34421678  0.99500906  0.86669534  1
  O  O456  1  0.83181543  0.48591329  0.19749676  1
  O  O457  1  0.82990622  0.48539084  0.53036229  1
  O  O458  1  0.83633625  0.48760906  0.86511756  1
  O  O459  1  0.82214349  0.99570587  0.19378485  1
  O  O460  1  0.82187087  0.99534574  0.52917952  1
  O  O461  1  0.82215895  0.99154458  0.85852779  1
