# generated using pymatgen
data_Na31Fe20(SO4)36
_symmetry_space_group_name_H-M   'P 1'
_cell_length_a   18.06600900
_cell_length_b   18.06979379
_cell_length_c   19.70692129
_cell_angle_alpha   107.57026851
_cell_angle_beta   107.58023745
_cell_angle_gamma   90.70961255
_symmetry_Int_Tables_number   1
_chemical_formula_structural   Na31Fe20(SO4)36
_chemical_formula_sum   'Na62 Fe40 S72 O288'
_cell_volume   5808.63998866
_cell_formula_units_Z   2
loop_
 _symmetry_equiv_pos_site_id
 _symmetry_equiv_pos_as_xyz
  1  'x, y, z'
loop_
 _atom_site_type_symbol
 _atom_site_label
 _atom_site_symmetry_multiplicity
 _atom_site_fract_x
 _atom_site_fract_y
 _atom_site_fract_z
 _atom_site_occupancy
  Na  Na0  1  0.12976368  0.37427011  0.08327073  1
  Na  Na1  1  0.12681429  0.37636117  0.41837030  1
  Na  Na2  1  0.12935805  0.37023888  0.74818608  1
  Na  Na3  1  0.11993635  0.87181513  0.08839650  1
  Na  Na4  1  0.13870679  0.86174359  0.41788367  1
  Na  Na5  1  0.14001524  0.85855473  0.75795833  1
  Na  Na6  1  0.63175107  0.36498506  0.08366148  1
  Na  Na7  1  0.63484319  0.36541419  0.42016532  1
  Na  Na8  1  0.64125507  0.37135615  0.75295707  1
  Na  Na9  1  0.63985355  0.86366140  0.07603595  1
  Na  Na10  1  0.63404523  0.86278138  0.41388364  1
  Na  Na11  1  0.64329967  0.86169528  0.75262517  1
  Na  Na12  1  0.36222648  0.13602500  0.25193747  1
  Na  Na13  1  0.36155705  0.13706906  0.58491701  1
  Na  Na14  1  0.36430078  0.13213124  0.91596492  1
  Na  Na15  1  0.35982893  0.63785483  0.24128947  1
  Na  Na16  1  0.36267958  0.64293190  0.58434747  1
  Na  Na17  1  0.34715056  0.65384253  0.91276642  1
  Na  Na18  1  0.86995200  0.11987963  0.23919435  1
  Na  Na19  1  0.86787526  0.14293842  0.58827642  1
  Na  Na20  1  0.86671839  0.13097402  0.91579496  1
  Na  Na21  1  0.86383881  0.63526387  0.25057955  1
  Na  Na22  1  0.87618426  0.63520642  0.59527331  1
  Na  Na23  1  0.87332581  0.63060030  0.92051032  1
  Na  Na24  1  0.50649081  -0.00244044  0.08663768  1
  Na  Na25  1  0.99629041  0.51988300  0.73052234  1
  Na  Na26  1  1.00776424  -0.02009385  0.76353831  1
  Na  Na27  1  0.48738019  0.51280114  0.41736261  1
  Na  Na28  1  0.49060846  0.00769348  0.75550604  1
  Na  Na29  1  0.50960037  0.56748375  0.78721504  1
  Na  Na30  1  0.45254859  0.52499356  -0.04299714  1
  Na  Na31  1  0.99676148  0.03369349  0.40690984  1
  Na  Na32  1  0.45319831  0.01013607  0.40338545  1
  Na  Na33  1  0.00248444  0.51402795  0.22949286  1
  Na  Na34  1  0.01014842  0.48792439  0.92586232  1
  Na  Na35  1  0.00185908  0.95182278  0.92429269  1
  Na  Na36  1  0.50334322  0.49880573  0.23337692  1
  Na  Na37  1  0.50184029  0.98817145  0.25019978  1
  Na  Na38  1  -0.00172009  1.01391502  0.57669854  1
  Na  Na39  1  0.51224861  0.98994711  0.58389238  1
  Na  Na40  1  0.52975268  0.48431423  0.59793818  1
  Na  Na41  1  0.54289703  0.98329485  0.93006153  1
  Na  Na42  1  0.75046284  0.73985267  0.67560502  1
  Na  Na43  1  0.23719635  0.24624875  0.67060285  1
  Na  Na44  1  0.75608585  0.75414701  0.32958721  1
  Na  Na45  1  0.24321067  0.74451267  0.67314587  1
  Na  Na46  1  0.25218334  0.26049494  -0.00360506  1
  Na  Na47  1  0.25132130  0.76019477  0.33292327  1
  Na  Na48  1  0.74864194  0.23963346  0.00264851  1
  Na  Na49  1  0.75044355  0.23996144  0.33615363  1
  Na  Na50  1  0.24018745  0.24738127  0.34112776  1
  Na  Na51  1  0.76171468  0.75036156  -0.00289678  1
  Na  Na52  1  0.73119148  0.71593689  0.83325496  1
  Na  Na53  1  0.26098342  0.77069761  0.15656236  1
  Na  Na54  1  0.23306665  0.24163488  0.50771514  1
  Na  Na55  1  0.75363912  0.74757155  0.50433074  1
  Na  Na56  1  0.75578293  0.25560200  0.82325527  1
  Na  Na57  1  0.76621474  0.75947947  0.15716617  1
  Na  Na58  1  0.25614246  0.26554371  0.83320091  1
  Na  Na59  1  0.74357483  0.24276642  0.51188410  1
  Na  Na60  1  0.24558132  0.24844351  0.16854688  1
  Na  Na61  1  0.74189095  0.23505789  0.16808831  1
  Fe  Fe62  1  0.46154988  0.30786764  0.11624736  1
  Fe  Fe63  1  0.46321878  0.31502683  0.79151697  1
  Fe  Fe64  1  0.46576285  0.80482531  0.11114831  1
  Fe  Fe65  1  0.96666529  0.30201810  0.11933509  1
  Fe  Fe66  1  0.46962178  0.80318409  0.78707305  1
  Fe  Fe67  1  0.46364207  0.31010794  0.45454023  1
  Fe  Fe68  1  0.46470435  0.80782593  0.45055945  1
  Fe  Fe69  1  0.96995916  0.30292539  0.45900648  1
  Fe  Fe70  1  0.96522742  0.30409386  0.78326952  1
  Fe  Fe71  1  0.96722699  0.80751160  0.45417260  1
  Fe  Fe72  1  0.69071603  0.03453763  0.38285010  1
  Fe  Fe73  1  0.69500903  0.53222481  0.38191171  1
  Fe  Fe74  1  0.19778003  0.53746964  0.03995460  1
  Fe  Fe75  1  0.69287991  0.03635261  0.71625421  1
  Fe  Fe76  1  0.19014940  0.53633556  0.71164422  1
  Fe  Fe77  1  0.19857076  0.02929263  0.37492083  1
  Fe  Fe78  1  0.68570487  0.53386865  0.04571281  1
  Fe  Fe79  1  0.18810197  0.54325087  0.37894521  1
  Fe  Fe80  1  0.19745536  0.03015059  0.04909535  1
  Fe  Fe81  1  0.19583871  0.03295772  0.71484307  1
  Fe  Fe82  1  0.02833288  0.70391126  0.87459231  1
  Fe  Fe83  1  0.03562186  0.18738926  0.20952832  1
  Fe  Fe84  1  0.53489096  0.69390822  0.54788357  1
  Fe  Fe85  1  0.03515473  0.69118374  0.54603308  1
  Fe  Fe86  1  0.53297244  0.19227366  0.21373571  1
  Fe  Fe87  1  0.02817435  0.70447641  0.20502411  1
  Fe  Fe88  1  0.53508041  0.19226456  0.88454112  1
  Fe  Fe89  1  0.53407418  0.19316145  0.55109601  1
  Fe  Fe90  1  0.53540240  0.68853325  0.20961567  1
  Fe  Fe91  1  0.03481066  0.19069310  0.88071975  1
  Fe  Fe92  1  0.80901164  0.96417066  0.62174156  1
  Fe  Fe93  1  0.81162607  0.46072266  0.29153161  1
  Fe  Fe94  1  0.80463783  0.96640238  0.28055316  1
  Fe  Fe95  1  0.30360149  0.46924576  0.28398658  1
  Fe  Fe96  1  0.30862579  0.46931538  0.61950240  1
  Fe  Fe97  1  0.80435538  0.96411050  0.95877558  1
  Fe  Fe98  1  0.81062381  0.46233180  0.95587462  1
  Fe  Fe99  1  0.80074573  0.46555608  0.62595077  1
  Fe  Fe100  1  0.31243814  0.95920472  0.95363214  1
  Fe  Fe101  1  0.30948510  0.96177699  0.61804840  1
  S  S102  1  0.35772412  0.14172489  0.08278989  1
  S  S103  1  0.35841929  0.14812143  0.42103504  1
  S  S104  1  0.36057585  0.14082683  0.75126414  1
  S  S105  1  0.36083664  0.64418737  0.08284606  1
  S  S106  1  0.35926434  0.64249322  0.41381315  1
  S  S107  1  0.35610246  0.64188380  0.74858157  1
  S  S108  1  0.86062915  0.13737284  0.07866397  1
  S  S109  1  0.85813191  0.13681849  0.41853703  1
  S  S110  1  0.86029828  0.13834294  0.74918715  1
  S  S111  1  0.85875813  0.63291932  0.08927646  1
  S  S112  1  0.85890699  0.63942395  0.41724064  1
  S  S113  1  0.86158822  0.63797972  0.74706325  1
  S  S114  1  0.13829118  0.36361380  0.25057497  1
  S  S115  1  0.14373857  0.36202730  0.58053329  1
  S  S116  1  0.13770643  0.35972502  0.91822998  1
  S  S117  1  0.14511358  0.85590862  0.25637881  1
  S  S118  1  0.14297635  0.85992865  0.58538143  1
  S  S119  1  0.14064323  0.86265797  0.91737838  1
  S  S120  1  0.63859278  0.35863754  0.25059887  1
  S  S121  1  0.63773647  0.35536932  0.58173494  1
  S  S122  1  0.64183263  0.35488290  0.91862912  1
  S  S123  1  0.63985421  0.85972566  0.24948665  1
  S  S124  1  0.64102734  0.85945903  0.58327755  1
  S  S125  1  0.64646296  0.85375280  0.91040107  1
  S  S126  1  0.07213034  0.16858453  0.04128395  1
  S  S127  1  0.06995787  0.17153477  0.37463044  1
  S  S128  1  0.06775441  0.16637890  0.71071634  1
  S  S129  1  0.07125335  0.67458440  0.04030489  1
  S  S130  1  0.06560579  0.67214156  0.37387188  1
  S  S131  1  0.07021269  0.67366327  0.70881932  1
  S  S132  1  0.56004144  0.16740795  0.04408592  1
  S  S133  1  0.56256964  0.16890688  0.37631144  1
  S  S134  1  0.56433959  0.16761197  0.71071759  1
  S  S135  1  0.56652416  0.67116923  0.04457682  1
  S  S136  1  0.56649782  0.66607424  0.37428447  1
  S  S137  1  0.56247521  0.66806660  0.70506614  1
  S  S138  1  0.32638961  0.43424080  0.12414956  1
  S  S139  1  0.33318380  0.43819454  0.45688424  1
  S  S140  1  0.32621092  0.43583098  0.78930646  1
  S  S141  1  0.34133229  0.94120722  0.12906043  1
  S  S142  1  0.33786369  0.93874368  0.46215023  1
  S  S143  1  0.33583951  0.93456613  0.79201556  1
  S  S144  1  0.82994377  0.42358502  0.12642911  1
  S  S145  1  0.82497967  0.42486137  0.45643721  1
  S  S146  1  0.83467012  0.42839301  0.79617691  1
  S  S147  1  0.83103026  0.92931080  0.12121457  1
  S  S148  1  0.82698009  0.93298678  0.45736482  1
  S  S149  1  0.82878481  0.93631069  0.79109155  1
  S  S150  1  0.43222894  0.33407540  0.29152266  1
  S  S151  1  0.43217093  0.33136587  0.62537639  1
  S  S152  1  0.43234497  0.32789013  0.95532841  1
  S  S153  1  0.44149704  0.82864055  0.29011525  1
  S  S154  1  0.43711786  0.83286340  0.62614207  1
  S  S155  1  0.43994340  0.83822128  0.95809439  1
  S  S156  1  0.92794934  0.31872034  0.28864683  1
  S  S157  1  0.93118649  0.33153008  0.62424154  1
  S  S158  1  0.93146118  0.32546172  0.95644979  1
  S  S159  1  0.92943979  0.83327261  0.29559116  1
  S  S160  1  0.93720113  0.83620554  0.62351592  1
  S  S161  1  0.92529694  0.82445761  0.95633418  1
  S  S162  1  0.17487382  0.07321601  0.21106009  1
  S  S163  1  0.17233874  0.06108794  0.54271817  1
  S  S164  1  0.17279234  0.06779494  0.87859112  1
  S  S165  1  0.17118181  0.57389707  0.20882637  1
  S  S166  1  0.17273696  0.57215507  0.54228740  1
  S  S167  1  0.15843764  0.57171550  0.86867221  1
  S  S168  1  0.66192850  0.06245920  0.20928264  1
  S  S169  1  0.66406144  0.06422723  0.54028257  1
  S  S170  1  0.66800826  0.06360257  0.87458535  1
  S  S171  1  0.67142481  0.56427792  0.21266005  1
  S  S172  1  0.66807109  0.56565227  0.54049615  1
  S  S173  1  0.67492211  0.56131274  0.88661669  1
  O  O174  1  0.36422166  0.22087327  0.07370964  1
  O  O175  1  0.36627611  0.23028837  0.41809343  1
  O  O176  1  0.36916175  0.22021128  0.74386416  1
  O  O177  1  0.37008938  0.72819499  0.08633098  1
  O  O178  1  0.36988329  0.72156046  0.40616620  1
  O  O179  1  0.36803284  0.72020206  0.73911759  1
  O  O180  1  0.87733255  0.21241307  0.06401139  1
  O  O181  1  0.86954828  0.21805193  0.41688031  1
  O  O182  1  0.87161843  0.21679420  0.74224350  1
  O  O183  1  0.85773696  0.71080758  0.08147591  1
  O  O184  1  0.86714141  0.71818938  0.40809489  1
  O  O185  1  0.87204968  0.70823641  0.72724787  1
  O  O186  1  0.27964330  0.13198009  0.09208162  1
  O  O187  1  0.27921361  0.13697541  0.42808436  1
  O  O188  1  0.28143332  0.13255298  0.75976089  1
  O  O189  1  0.28298637  0.63348768  0.09391501  1
  O  O190  1  0.28025850  0.63225800  0.41906420  1
  O  O191  1  0.27330014  0.63200665  0.74654738  1
  O  O192  1  0.78400442  0.13715549  0.08875601  1
  O  O193  1  0.77634268  0.12951009  0.42358409  1
  O  O194  1  0.78146678  0.13120663  0.75862438  1
  O  O195  1  0.78403611  0.61529717  0.10419090  1
  O  O196  1  0.77861793  0.63025105  0.42374758  1
  O  O197  1  0.78601534  0.62831411  0.75779397  1
  O  O198  1  0.12936674  0.28461214  0.25801373  1
  O  O199  1  0.14064464  0.28384549  0.58785470  1
  O  O200  1  0.12428945  0.28302251  0.93114132  1
  O  O201  1  0.12340361  0.78041728  0.26973481  1
  O  O202  1  0.13065423  0.78081741  0.59154228  1
  O  O203  1  0.12372706  0.78180229  0.91880304  1
  O  O204  1  0.62832980  0.27890535  0.25775654  1
  O  O205  1  0.62991410  0.27261259  0.58103084  1
  O  O206  1  0.63258604  0.27633259  0.92908042  1
  O  O207  1  0.63346580  0.78193777  0.26061388  1
  O  O208  1  0.63343755  0.78051720  0.59170771  1
  O  O209  1  0.64766531  0.77306674  0.91085459  1
  O  O210  1  0.21598633  0.37179495  0.23911208  1
  O  O211  1  0.22109187  0.37668989  0.56861464  1
  O  O212  1  0.21558473  0.36486448  0.91158127  1
  O  O213  1  0.22662341  0.85368720  0.25674496  1
  O  O214  1  0.22175557  0.86858864  0.57778485  1
  O  O215  1  0.22057248  0.87017705  0.91216926  1
  O  O216  1  0.71744389  0.36554566  0.24216105  1
  O  O217  1  0.71540568  0.36767225  0.57204260  1
  O  O218  1  0.72127019  0.36259986  0.91167191  1
  O  O219  1  0.71844522  0.86930555  0.24078228  1
  O  O220  1  0.72002126  0.86956436  0.57541066  1
  O  O221  1  0.72396997  0.87442795  0.89948894  1
  O  O222  1  0.41791397  0.13706710  0.15180787  1
  O  O223  1  0.41711056  0.13918142  0.48998271  1
  O  O224  1  0.41957776  0.13061689  0.81854364  1
  O  O225  1  0.42064677  0.62983391  0.14835301  1
  O  O226  1  0.41807346  0.63411603  0.48218044  1
  O  O227  1  0.40938807  0.63507860  0.81829003  1
  O  O228  1  0.92147297  0.12874600  0.14469233  1
  O  O229  1  0.91442538  0.11949726  0.48122717  1
  O  O230  1  0.91943165  0.12725758  0.81591404  1
  O  O231  1  0.92296115  0.62881892  0.15707612  1
  O  O232  1  0.91647904  0.63404579  0.48662972  1
  O  O233  1  0.92507699  0.63632424  0.81819549  1
  O  O234  1  0.36656768  0.08263470  0.01562585  1
  O  O235  1  0.36959640  0.09349318  0.35428530  1
  O  O236  1  0.36899237  0.08187578  0.68347550  1
  O  O237  1  0.36487688  0.59270698  0.01165872  1
  O  O238  1  0.37073893  0.58352187  0.34675875  1
  O  O239  1  0.36977526  0.58204249  0.68217738  1
  O  O240  1  0.86305737  0.07402696  0.00891228  1
  O  O241  1  0.86277985  0.08207319  0.34571373  1
  O  O242  1  0.86523564  0.07938637  0.67957998  1
  O  O243  1  0.86868762  0.57494734  0.02170008  1
  O  O244  1  0.86599819  0.57966151  0.34932208  1
  O  O245  1  0.87315731  0.56963325  0.68502994  1
  O  O246  1  0.07665391  0.37271905  0.18412767  1
  O  O247  1  0.08215672  0.36804802  0.51294740  1
  O  O248  1  0.07766825  0.36547384  0.84900774  1
  O  O249  1  0.09118834  0.86376797  0.18854150  1
  O  O250  1  0.08362121  0.87094865  0.51876528  1
  O  O251  1  0.08364283  0.88078908  0.85486019  1
  O  O252  1  0.57925539  0.36881811  0.18353756  1
  O  O253  1  0.57756520  0.36659131  0.51372794  1
  O  O254  1  0.58382882  0.35899603  0.84851578  1
  O  O255  1  0.57993335  0.86798658  0.18240962  1
  O  O256  1  0.58191895  0.86618639  0.51448751  1
  O  O257  1  0.58511369  0.86399649  0.84335365  1
  O  O258  1  0.13407722  0.42320445  0.31971278  1
  O  O259  1  0.13584467  0.42060479  0.64903045  1
  O  O260  1  0.12791465  0.42254715  0.98401128  1
  O  O261  1  0.14002323  0.91891896  0.32535429  1
  O  O262  1  0.13676030  0.91847201  0.65532980  1
  O  O263  1  0.13489097  0.91809957  0.98996464  1
  O  O264  1  0.63079708  0.41700325  0.31888919  1
  O  O265  1  0.62788592  0.40976935  0.64903102  1
  O  O266  1  0.63240310  0.41434960  0.98550023  1
  O  O267  1  0.63133065  0.91978871  0.31740047  1
  O  O268  1  0.63079967  0.91899892  0.64989726  1
  O  O269  1  0.63641445  0.90804060  0.97822788  1
  O  O270  1  0.03839080  0.20082560  0.10421050  1
  O  O271  1  0.02874760  0.19832454  0.43057064  1
  O  O272  1  0.03568548  0.19926359  0.77543834  1
  O  O273  1  0.02734473  0.68944899  0.09412492  1
  O  O274  1  0.02901003  0.69938548  0.43588460  1
  O  O275  1  0.03568779  0.69877656  0.77065875  1
  O  O276  1  0.52587973  0.20659336  0.10609687  1
  O  O277  1  0.52522420  0.19862867  0.43637787  1
  O  O278  1  0.52900025  0.19562848  0.77216380  1
  O  O279  1  0.53636232  0.70735139  0.11114855  1
  O  O280  1  0.53121075  0.69687710  0.43611718  1
  O  O281  1  0.52655484  0.70159411  0.76445638  1
  O  O282  1  0.29734560  0.47081402  0.06578462  1
  O  O283  1  0.30453623  0.47411306  0.39529353  1
  O  O284  1  0.29605992  0.46756040  0.72405957  1
  O  O285  1  0.30525291  0.97111556  0.06275563  1
  O  O286  1  0.31178015  0.97875626  0.40551223  1
  O  O287  1  0.30629081  0.97316277  0.73192279  1
  O  O288  1  0.80054903  0.45582481  0.06355157  1
  O  O289  1  0.79732284  0.46628730  0.39718154  1
  O  O290  1  0.80520158  0.45829497  0.73297304  1
  O  O291  1  0.80279167  0.96471499  0.05810480  1
  O  O292  1  0.79618210  0.96687997  0.39473569  1
  O  O293  1  0.79469299  0.97409692  0.73013549  1
  O  O294  1  0.46669439  0.30261177  0.22946328  1
  O  O295  1  0.47133998  0.30029398  0.56604796  1
  O  O296  1  0.47092849  0.29327995  0.89517352  1
  O  O297  1  0.47772316  0.79361487  0.22989943  1
  O  O298  1  0.47126543  0.80241474  0.56279710  1
  O  O299  1  0.47329869  0.81340812  0.89633651  1
  O  O300  1  0.96554423  0.29009465  0.22781065  1
  O  O301  1  0.96948073  0.31222471  0.56608551  1
  O  O302  1  0.96601473  0.29390072  0.89434145  1
  O  O303  1  0.96172030  0.80312432  0.23434834  1
  O  O304  1  0.96789335  0.80118903  0.55807681  1
  O  O305  1  0.96236427  0.79736245  0.89454688  1
  O  O306  1  0.19864267  0.04118734  0.27357389  1
  O  O307  1  0.20751909  0.02709129  0.60596262  1
  O  O308  1  0.20312196  0.03277630  0.94007751  1
  O  O309  1  0.19874378  0.53258452  0.26801949  1
  O  O310  1  0.20069921  0.53154682  0.60013732  1
  O  O311  1  0.17676909  0.53337342  0.92711121  1
  O  O312  1  0.69788322  0.03262466  0.27483070  1
  O  O313  1  0.69538537  0.02984637  0.60264064  1
  O  O314  1  0.70011086  0.02788202  0.93391588  1
  O  O315  1  0.70136394  0.52559324  0.27231632  1
  O  O316  1  0.69691942  0.52956888  0.59956296  1
  O  O317  1  0.71152624  0.52343069  0.94834117  1
  O  O318  1  0.09136213  0.08805065  0.03619273  1
  O  O319  1  0.09691270  0.09433648  0.37754090  1
  O  O320  1  0.09154068  0.08668822  0.71145085  1
  O  O321  1  0.09268662  0.59257952  0.02598670  1
  O  O322  1  0.08059439  0.58821046  0.36350682  1
  O  O323  1  0.08623356  0.59045383  0.69725752  1
  O  O324  1  0.56880497  0.08646613  0.04255782  1
  O  O325  1  0.57769035  0.08590889  0.36979543  1
  O  O326  1  0.58104013  0.08421167  0.70388284  1
  O  O327  1  0.58624834  0.59130885  0.04779927  1
  O  O328  1  0.58124686  0.58296211  0.36804771  1
  O  O329  1  0.57530353  0.58721890  0.70268772  1
  O  O330  1  0.40717427  0.41154901  0.12814658  1
  O  O331  1  0.41650259  0.42182729  0.46317282  1
  O  O332  1  0.40621381  0.41217113  0.79133106  1
  O  O333  1  0.41918859  0.91410729  0.12232556  1
  O  O334  1  0.42075716  0.91948907  0.46538452  1
  O  O335  1  0.41869067  0.91957146  0.79699053  1
  O  O336  1  0.91245109  0.40584473  0.13401784  1
  O  O337  1  0.90283768  0.40185366  0.45751553  1
  O  O338  1  0.91823259  0.41062203  0.80534460  1
  O  O339  1  0.91089237  0.91437684  0.13426154  1
  O  O340  1  0.90937769  0.91677935  0.46508733  1
  O  O341  1  0.91233930  0.93316553  0.80114715  1
  O  O342  1  0.41697029  0.41690051  0.29721522  1
  O  O343  1  0.41631865  0.41269979  0.62736550  1
  O  O344  1  0.41218212  0.40459007  0.95375277  1
  O  O345  1  0.43256668  0.91065869  0.29471482  1
  O  O346  1  0.42335464  0.91689512  0.63231174  1
  O  O347  1  0.42478825  0.92349127  0.96870778  1
  O  O348  1  0.90635612  0.39810209  0.29049672  1
  O  O349  1  0.90869305  0.41269462  0.63790565  1
  O  O350  1  0.91570711  0.40729233  0.96128196  1
  O  O351  1  0.91069913  0.91572472  0.30432555  1
  O  O352  1  0.91652118  0.91747160  0.62301859  1
  O  O353  1  0.89432673  0.90150587  0.94861579  1
  O  O354  1  0.09269788  0.09069930  0.19529243  1
  O  O355  1  0.08900592  0.06629957  0.53345806  1
  O  O356  1  0.09006590  0.08371186  0.87125773  1
  O  O357  1  0.09112430  0.59356698  0.20595337  1
  O  O358  1  0.09281627  0.59224316  0.53831841  1
  O  O359  1  0.07636780  0.59695082  0.85860078  1
  O  O360  1  0.58178834  0.08483616  0.21273788  1
  O  O361  1  0.58126070  0.08039278  0.53623914  1
  O  O362  1  0.58601274  0.08186706  0.87419398  1
  O  O363  1  0.59037085  0.58272927  0.21053728  1
  O  O364  1  0.58516295  0.58372902  0.53450486  1
  O  O365  1  0.60231441  0.58812928  0.89846251  1
  O  O366  1  0.14165518  0.22222244  0.05512142  1
  O  O367  1  0.13799231  0.22915870  0.39061226  1
  O  O368  1  0.13689759  0.22015860  0.72325720  1
  O  O369  1  0.13994814  0.73189313  0.06459804  1
  O  O370  1  0.13773860  0.72238797  0.39268054  1
  O  O371  1  0.14090300  0.72515847  0.72424866  1
  O  O372  1  0.63425145  0.21450636  0.05869960  1
  O  O373  1  0.63581767  0.21885379  0.39401263  1
  O  O374  1  0.63511610  0.21816370  0.72499368  1
  O  O375  1  0.63754908  0.72138304  0.05641760  1
  O  O376  1  0.63920472  0.71616077  0.39088065  1
  O  O377  1  0.63607571  0.71673026  0.71900220  1
  O  O378  1  0.27350820  0.36436263  0.11198931  1
  O  O379  1  0.28199092  0.36664032  0.43996792  1
  O  O380  1  0.27239651  0.36518185  0.77444599  1
  O  O381  1  0.28824848  0.87749068  0.12455479  1
  O  O382  1  0.28714121  0.86780942  0.44709662  1
  O  O383  1  0.28478850  0.86305004  0.77400747  1
  O  O384  1  0.77835440  0.35251057  0.11309040  1
  O  O385  1  0.76746282  0.35560212  0.43556241  1
  O  O386  1  0.78419396  0.35866174  0.78651857  1
  O  O387  1  0.77470101  0.85863536  0.10199308  1
  O  O388  1  0.77611770  0.86055304  0.44188956  1
  O  O389  1  0.78299633  0.86004949  0.76859392  1
  O  O390  1  0.35981046  0.28465797  0.27711397  1
  O  O391  1  0.35962558  0.28016452  0.60764334  1
  O  O392  1  0.36285989  0.27260048  0.94002711  1
  O  O393  1  0.36765732  0.78080620  0.27411037  1
  O  O394  1  0.36530124  0.78497658  0.61241901  1
  O  O395  1  0.36898532  0.79033231  0.94635148  1
  O  O396  1  0.85809333  0.26359663  0.27187454  1
  O  O397  1  0.86230330  0.27489654  0.60473967  1
  O  O398  1  0.85912607  0.27476503  0.94048663  1
  O  O399  1  0.85727278  0.78204302  0.28237567  1
  O  O400  1  0.86592179  0.78602604  0.61115570  1
  O  O401  1  0.85763587  0.76738370  0.94049690  1
  O  O402  1  0.22733103  0.14629524  0.22883802  1
  O  O403  1  0.21843239  0.13792723  0.56303719  1
  O  O404  1  0.22282694  0.14025359  0.89371013  1
  O  O405  1  0.22644539  0.64401164  0.22991768  1
  O  O406  1  0.22759140  0.64172060  0.56055338  1
  O  O407  1  0.21450936  0.63742317  0.88319784  1
  O  O408  1  0.71220690  0.13287810  0.21927990  1
  O  O409  1  0.71421691  0.13429705  0.55235774  1
  O  O410  1  0.71720596  0.13527719  0.88606512  1
  O  O411  1  0.72298300  0.63620893  0.23079103  1
  O  O412  1  0.71865226  0.63763495  0.55431052  1
  O  O413  1  0.73292159  0.62760742  0.89968563  1
  O  O414  1  0.49143083  0.33115216  0.02901544  1
  O  O415  1  0.49174480  0.33522172  0.36366368  1
  O  O416  1  0.48953424  0.33198748  0.69817247  1
  O  O417  1  0.50202354  0.83965406  0.03000851  1
  O  O418  1  0.49783548  0.82723417  0.36403914  1
  O  O419  1  0.49807478  0.83515581  0.69769010  1
  O  O420  1  0.99077005  0.32666057  0.02845277  1
  O  O421  1  0.98684226  0.32291414  0.36136842  1
  O  O422  1  0.99102516  0.32925404  0.69594595  1
  O  O423  1  0.98436511  0.84012401  0.02861792  1
  O  O424  1  0.98943421  0.83596929  0.36912036  1
  O  O425  1  0.99937980  0.84547773  0.69392537  1
  O  O426  1  0.18223037  0.01305965  0.14276722  1
  O  O427  1  0.18179819  0.00677661  0.47281588  1
  O  O428  1  0.17212215  0.00795362  0.80663531  1
  O  O429  1  0.17040187  0.51682904  0.13593166  1
  O  O430  1  0.17026519  0.51452117  0.46814106  1
  O  O431  1  0.15186188  0.50906633  0.79503672  1
  O  O432  1  0.64960451  -0.00034222  0.13883766  1
  O  O433  1  0.65996338  0.00299422  0.46769035  1
  O  O434  1  0.65826681  0.00540265  0.79860449  1
  O  O435  1  0.66884540  0.50648733  0.13969962  1
  O  O436  1  0.66252190  0.50698122  0.46561507  1
  O  O437  1  0.66131664  0.50193329  0.81359251  1
  O  O438  1  0.01337979  0.16087598  0.29793936  1
  O  O439  1  0.00533200  0.15583446  0.63998167  1
  O  O440  1  0.00997504  0.16563681  0.96979197  1
  O  O441  1  0.00550713  0.67200002  0.30262087  1
  O  O442  1  0.00946564  0.67565581  0.63796527  1
  O  O443  1  0.01510033  0.67774624  0.96597474  1
  O  O444  1  0.50472743  0.17000028  0.30425949  1
  O  O445  1  0.50409637  0.16438693  0.63798607  1
  O  O446  1  0.50286729  0.16802247  0.97112326  1
  O  O447  1  0.50782917  0.66446439  0.30172970  1
  O  O448  1  0.50499911  0.66715621  0.63053647  1
  O  O449  1  0.50178777  0.66354326  0.97648183  1
  O  O450  1  0.33549351  0.49374514  0.19994509  1
  O  O451  1  0.33511211  0.49689162  0.52926040  1
  O  O452  1  0.33163019  0.49786299  0.85854683  1
  O  O453  1  0.36119415  1.00716211  0.19899942  1
  O  O454  1  0.34614129  0.99576617  0.53861595  1
  O  O455  1  0.33620985  0.99233743  0.86476466  1
  O  O456  1  0.83293357  0.48498080  0.19858548  1
  O  O457  1  0.82624598  0.48247773  0.52901588  1
  O  O458  1  0.83883312  0.49105341  0.86841568  1
  O  O459  1  0.81921366  0.98938319  0.18915368  1
  O  O460  1  0.82642303  0.99293250  0.52862221  1
  O  O461  1  0.81911062  0.98970559  0.86253620  1
