# generated using pymatgen
data_Na31Fe20(SO4)36
_symmetry_space_group_name_H-M   'P 1'
_cell_length_a   18.07576002
_cell_length_b   18.08003780
_cell_length_c   19.70606162
_cell_angle_alpha   107.58873216
_cell_angle_beta   107.57773159
_cell_angle_gamma   90.74296431
_symmetry_Int_Tables_number   1
_chemical_formula_structural   Na31Fe20(SO4)36
_chemical_formula_sum   'Na62 Fe40 S72 O288'
_cell_volume   5813.80561734
_cell_formula_units_Z   2
loop_
 _symmetry_equiv_pos_site_id
 _symmetry_equiv_pos_as_xyz
  1  'x, y, z'
loop_
 _atom_site_type_symbol
 _atom_site_label
 _atom_site_symmetry_multiplicity
 _atom_site_fract_x
 _atom_site_fract_y
 _atom_site_fract_z
 _atom_site_occupancy
  Na  Na0  1  0.13390317  0.36200927  0.07831970  1
  Na  Na1  1  0.13436464  0.37511944  0.41874968  1
  Na  Na2  1  0.12863296  0.35406119  0.73606161  1
  Na  Na3  1  0.15037848  0.85757314  0.08872848  1
  Na  Na4  1  0.13227630  0.85653429  0.41225295  1
  Na  Na5  1  0.13405737  0.86709624  0.75406543  1
  Na  Na6  1  0.64455502  0.37135385  0.09215656  1
  Na  Na7  1  0.64003633  0.36792178  0.41820127  1
  Na  Na8  1  0.62955488  0.35481989  0.73834998  1
  Na  Na9  1  0.63442210  0.86796724  0.08782593  1
  Na  Na10  1  0.63486345  0.88156755  0.43016337  1
  Na  Na11  1  0.62645134  0.87195049  0.74697734  1
  Na  Na12  1  0.38236842  0.13836026  0.27001799  1
  Na  Na13  1  0.36054070  0.13874758  0.58446348  1
  Na  Na14  1  0.36331307  0.14439497  0.92383257  1
  Na  Na15  1  0.36180881  0.63353848  0.24642613  1
  Na  Na16  1  0.36080353  0.62753560  0.56877150  1
  Na  Na17  1  0.36065243  0.64312409  0.92401813  1
  Na  Na18  1  0.86488756  0.13465921  0.24701482  1
  Na  Na19  1  0.86690715  0.13705721  0.58611841  1
  Na  Na20  1  0.86945304  0.14388010  0.92376916  1
  Na  Na21  1  0.86391844  0.62451856  0.24523001  1
  Na  Na22  1  0.85439187  0.62136387  0.56316662  1
  Na  Na23  1  0.86086105  0.63173028  0.91081063  1
  Na  Na24  1  0.47997161  0.51181531  0.08911248  1
  Na  Na25  1  0.48942532  0.01195610  0.09496039  1
  Na  Na26  1  0.99406909  0.03770856  0.42259918  1
  Na  Na27  1  1.01637144  0.45349468  0.22642786  1
  Na  Na28  1  0.48558477  0.51408613  0.74786047  1
  Na  Na29  1  0.50101643  0.49893803  0.42076764  1
  Na  Na30  1  0.95004810  0.51004014  0.38885405  1
  Na  Na31  1  0.96614352  0.01073998  0.74713161  1
  Na  Na32  1  0.99407792  0.50870593  0.73851271  1
  Na  Na33  1  0.57147811  0.49661157  0.27740917  1
  Na  Na34  1  0.50835877  1.00023119  0.90323953  1
  Na  Na35  1  -0.01569644  1.01261597  0.58409651  1
  Na  Na36  1  0.48699429  1.03983493  0.52864399  1
  Na  Na37  1  0.00697409  0.48754124  0.92683114  1
  Na  Na38  1  0.00367586  0.98818963  0.92968715  1
  Na  Na39  1  0.50079933  0.43135274  0.56390411  1
  Na  Na40  1  0.01963127  0.99747478  0.23197973  1
  Na  Na41  1  0.51274910  0.48192001  0.91786172  1
  Na  Na42  1  0.76861977  0.26577496  -0.01311938  1
  Na  Na43  1  0.24694834  0.74534282  0.66931539  1
  Na  Na44  1  0.74684488  0.74722991  -0.00108222  1
  Na  Na45  1  0.25493742  0.74753833  0.32286765  1
  Na  Na46  1  0.24550975  0.24284241  0.66704391  1
  Na  Na47  1  0.75784553  0.76397194  0.65600545  1
  Na  Na48  1  0.74144665  0.74077336  0.33594342  1
  Na  Na49  1  0.75188135  0.25400957  0.33146695  1
  Na  Na50  1  0.26970169  0.26266937  0.32885537  1
  Na  Na51  1  0.73316832  0.23265079  0.67879466  1
  Na  Na52  1  0.75809987  0.76245781  0.49677372  1
  Na  Na53  1  0.73444596  0.24031767  0.50673029  1
  Na  Na54  1  0.77684075  0.27206779  0.15790991  1
  Na  Na55  1  0.26488424  0.26218179  0.49037904  1
  Na  Na56  1  0.74767464  0.74688017  0.16965338  1
  Na  Na57  1  0.26344651  0.26020042  0.15875676  1
  Na  Na58  1  0.75394787  0.75761844  0.82506949  1
  Na  Na59  1  0.23768998  0.24171727  0.84573693  1
  Na  Na60  1  0.23985635  0.74407525  0.84626700  1
  Na  Na61  1  0.23778426  0.73524691  0.49727152  1
  Fe  Fe62  1  0.46498518  0.81008950  0.45348865  1
  Fe  Fe63  1  0.96390443  0.30762777  0.78404129  1
  Fe  Fe64  1  0.96520952  0.80698716  0.78418604  1
  Fe  Fe65  1  0.46524310  0.30198518  0.78395948  1
  Fe  Fe66  1  0.45969038  0.81499321  0.12386525  1
  Fe  Fe67  1  0.46351898  0.80642435  0.78489563  1
  Fe  Fe68  1  0.96505669  0.80929543  0.45122904  1
  Fe  Fe69  1  0.96687380  0.80344895  0.11880913  1
  Fe  Fe70  1  0.97145218  0.30078080  0.46106077  1
  Fe  Fe71  1  0.46569434  0.31265906  0.12131677  1
  Fe  Fe72  1  0.19093675  0.03185967  0.38469936  1
  Fe  Fe73  1  0.19364818  0.53862998  0.05061523  1
  Fe  Fe74  1  0.19726969  0.03679641  0.05109339  1
  Fe  Fe75  1  0.69375630  0.53422218  0.04706154  1
  Fe  Fe76  1  0.18842775  0.03375211  0.71450001  1
  Fe  Fe77  1  0.69262954  0.03621709  0.04832391  1
  Fe  Fe78  1  0.69112763  0.53467547  0.71153247  1
  Fe  Fe79  1  0.69732199  0.03660800  0.70904320  1
  Fe  Fe80  1  0.69001193  0.03730800  0.38050406  1
  Fe  Fe81  1  0.18760567  0.53488659  0.71087537  1
  Fe  Fe82  1  0.03295119  0.69117594  0.54405232  1
  Fe  Fe83  1  0.53691011  0.19773127  0.21674167  1
  Fe  Fe84  1  0.53330607  0.69479621  0.88164414  1
  Fe  Fe85  1  0.03569290  0.68355244  0.21047845  1
  Fe  Fe86  1  0.03554289  0.19155577  0.20666589  1
  Fe  Fe87  1  0.53099420  0.69822836  0.21718272  1
  Fe  Fe88  1  0.03537647  0.19605340  0.88502985  1
  Fe  Fe89  1  0.53978483  0.18596707  0.87638945  1
  Fe  Fe90  1  0.53523361  0.69269013  0.54776609  1
  Fe  Fe91  1  0.03581713  0.69303648  0.88452986  1
  Fe  Fe92  1  0.30752247  0.96389984  0.28558236  1
  Fe  Fe93  1  0.30206360  0.46969144  0.61587211  1
  Fe  Fe94  1  0.80761032  0.46609837  0.61482269  1
  Fe  Fe95  1  0.30804211  0.96434931  0.62191210  1
  Fe  Fe96  1  0.80968148  0.96558471  0.95603465  1
  Fe  Fe97  1  0.30641160  0.96615661  0.95329368  1
  Fe  Fe98  1  0.81445254  0.46079800  0.95375011  1
  Fe  Fe99  1  0.30540022  0.46687002  0.95231933  1
  Fe  Fe100  1  0.80676319  0.96551865  0.28599044  1
  Fe  Fe101  1  0.29981587  0.46632989  0.28894622  1
  S  S102  1  0.36345854  0.14121748  0.08322142  1
  S  S103  1  0.35336684  0.13501984  0.42008085  1
  S  S104  1  0.35753794  0.13904430  0.75417230  1
  S  S105  1  0.35940307  0.64220461  0.08245060  1
  S  S106  1  0.36324746  0.64074994  0.41425646  1
  S  S107  1  0.35794900  0.64167147  0.75394769  1
  S  S108  1  0.86064727  0.13758484  0.08482443  1
  S  S109  1  0.86025847  0.13988520  0.41648583  1
  S  S110  1  0.86273933  0.14218999  0.75085570  1
  S  S111  1  0.85775017  0.64159710  0.07830903  1
  S  S112  1  0.85703962  0.64787856  0.41855318  1
  S  S113  1  0.85995803  0.64120723  0.74874255  1
  S  S114  1  0.14409295  0.34755138  0.24648857  1
  S  S115  1  0.14222361  0.35857230  0.58401683  1
  S  S116  1  0.13962527  0.36294537  0.91422664  1
  S  S117  1  0.13882579  0.85931998  0.24922120  1
  S  S118  1  0.14167496  0.85690108  0.58350411  1
  S  S119  1  0.13846438  0.86164483  0.91873657  1
  S  S120  1  0.64637068  0.35449508  0.24338555  1
  S  S121  1  0.64589278  0.35974634  0.58524474  1
  S  S122  1  0.63960374  0.35977388  0.91495890  1
  S  S123  1  0.63910512  0.85993340  0.25039729  1
  S  S124  1  0.63654985  0.86131869  0.58743060  1
  S  S125  1  0.63972085  0.86064921  0.91586760  1
  S  S126  1  0.07128577  0.16609817  0.04406911  1
  S  S127  1  0.06866988  0.16870126  0.37263301  1
  S  S128  1  0.06434273  0.16563158  0.71206505  1
  S  S129  1  0.06485784  0.66875772  0.03983877  1
  S  S130  1  0.05700505  0.66453026  0.37039676  1
  S  S131  1  0.06542802  0.67228428  0.71078110  1
  S  S132  1  0.56904359  0.16898260  0.04111841  1
  S  S133  1  0.57440073  0.17233622  0.37350794  1
  S  S134  1  0.56224751  0.16358818  0.70911892  1
  S  S135  1  0.56528203  0.67181058  0.04119257  1
  S  S136  1  0.56601011  0.67372903  0.37998163  1
  S  S137  1  0.56379085  0.66926156  0.71067385  1
  S  S138  1  0.32880710  0.43427950  0.12349117  1
  S  S139  1  0.33095857  0.43915603  0.45461466  1
  S  S140  1  0.32887123  0.43481998  0.79138528  1
  S  S141  1  0.33303539  0.93734623  0.12543569  1
  S  S142  1  0.32501895  0.92719810  0.45672291  1
  S  S143  1  0.32864658  0.93201944  0.79232450  1
  S  S144  1  0.83009947  0.43790062  0.11769190  1
  S  S145  1  0.84100253  0.42568992  0.45888701  1
  S  S146  1  0.83050549  0.43489980  0.78881501  1
  S  S147  1  0.82974115  0.92762203  0.12368359  1
  S  S148  1  0.83129242  0.93644630  0.45534744  1
  S  S149  1  0.83335537  0.93461426  0.79443790  1
  S  S150  1  0.43716724  0.33585104  0.29118749  1
  S  S151  1  0.42353113  0.33251322  0.62767943  1
  S  S152  1  0.43373881  0.33426188  0.95678082  1
  S  S153  1  0.42969238  0.82996902  0.29144458  1
  S  S154  1  0.42491718  0.82427329  0.62303310  1
  S  S155  1  0.43438834  0.83447689  0.95831989  1
  S  S156  1  0.94031789  0.32189115  0.29214971  1
  S  S157  1  0.93128448  0.32859154  0.62268549  1
  S  S158  1  0.93981385  0.33228562  0.95633315  1
  S  S159  1  0.93341252  0.83323911  0.29009266  1
  S  S160  1  0.94058148  0.83536626  0.62534517  1
  S  S161  1  0.93144632  0.82641206  0.95608842  1
  S  S162  1  0.17512395  0.06930974  0.21086315  1
  S  S163  1  0.16437162  0.05643388  0.54508802  1
  S  S164  1  0.16798674  0.06608854  0.87656211  1
  S  S165  1  0.16734593  0.56103459  0.20655490  1
  S  S166  1  0.16969687  0.56996410  0.54445691  1
  S  S167  1  0.16640958  0.56633199  0.87301671  1
  S  S168  1  0.67104031  0.06655580  0.20829942  1
  S  S169  1  0.67688746  0.07189591  0.54716469  1
  S  S170  1  0.67651893  0.06652280  0.87971686  1
  S  S171  1  0.66303607  0.57373388  0.20365526  1
  S  S172  1  0.66954172  0.56901940  0.54501774  1
  S  S173  1  0.66480358  0.56617171  0.87377148  1
  O  O174  1  0.37373899  0.21897816  0.07414117  1
  O  O175  1  0.35797004  0.21145040  0.40958946  1
  O  O176  1  0.36543489  0.21895838  0.74728060  1
  O  O177  1  0.37267237  0.71900833  0.07295985  1
  O  O178  1  0.37638415  0.71843053  0.40331745  1
  O  O179  1  0.36657530  0.72201644  0.74903973  1
  O  O180  1  0.86290735  0.21516954  0.07678866  1
  O  O181  1  0.87430118  0.22069870  0.41094342  1
  O  O182  1  0.87007522  0.22210925  0.74347815  1
  O  O183  1  0.86873769  0.72068766  0.06979865  1
  O  O184  1  0.86690998  0.73189654  0.41818122  1
  O  O185  1  0.86699786  0.72124779  0.74199164  1
  O  O186  1  0.28512358  0.13294599  0.09221102  1
  O  O187  1  0.27331150  0.12330805  0.42983095  1
  O  O188  1  0.27866378  0.12928600  0.76327091  1
  O  O189  1  0.28078855  0.63263330  0.08881527  1
  O  O190  1  0.29078059  0.63836327  0.43163010  1
  O  O191  1  0.27938299  0.63171043  0.76230885  1
  O  O192  1  0.78552193  0.12156820  0.09892086  1
  O  O193  1  0.77919239  0.13437560  0.41968869  1
  O  O194  1  0.78224791  0.13179558  0.75477502  1
  O  O195  1  0.77697164  0.63587666  0.08388218  1
  O  O196  1  0.78339766  0.63875993  0.43323188  1
  O  O197  1  0.78250824  0.63195564  0.76013784  1
  O  O198  1  0.13537559  0.26271606  0.24681496  1
  O  O199  1  0.13983013  0.28584712  0.60099749  1
  O  O200  1  0.13197652  0.28501156  0.92361379  1
  O  O201  1  0.12863666  0.78082782  0.25747640  1
  O  O202  1  0.13251481  0.77698764  0.58996063  1
  O  O203  1  0.12937155  0.78085780  0.92133106  1
  O  O204  1  0.63429994  0.27170623  0.24400309  1
  O  O205  1  0.64080404  0.28607080  0.60039170  1
  O  O206  1  0.63063409  0.28191584  0.92475659  1
  O  O207  1  0.63098008  0.77962658  0.25653570  1
  O  O208  1  0.62000042  0.78570123  0.60169534  1
  O  O209  1  0.62996143  0.78110036  0.92274855  1
  O  O210  1  0.22896826  0.35791509  0.25092842  1
  O  O211  1  0.21834911  0.37366349  0.57143606  1
  O  O212  1  0.21900992  0.37268697  0.90662405  1
  O  O213  1  0.21720529  0.86978857  0.24169145  1
  O  O214  1  0.22060604  0.86442599  0.57482923  1
  O  O215  1  0.21614853  0.87185523  0.90787596  1
  O  O216  1  0.71731974  0.36264318  0.22434218  1
  O  O217  1  0.72704467  0.37345158  0.58109066  1
  O  O218  1  0.71870253  0.37081964  0.90951756  1
  O  O219  1  0.71639689  0.86802419  0.23778294  1
  O  O220  1  0.71127631  0.85868129  0.57286358  1
  O  O221  1  0.71832329  0.86839356  0.90700072  1
  O  O222  1  0.42340411  0.13086475  0.14977600  1
  O  O223  1  0.41149455  0.12713273  0.48660416  1
  O  O224  1  0.41722952  0.13194923  0.82210226  1
  O  O225  1  0.41843413  0.63244007  0.15052706  1
  O  O226  1  0.42884552  0.62851854  0.47723016  1
  O  O227  1  0.41770166  0.63226956  0.82145211  1
  O  O228  1  0.92400080  0.13072987  0.15234764  1
  O  O229  1  0.91662017  0.12713965  0.48149827  1
  O  O230  1  0.91892165  0.13645404  0.82287757  1
  O  O231  1  0.91424466  0.63541600  0.14774694  1
  O  O232  1  0.92175011  0.63540430  0.48267946  1
  O  O233  1  0.92100690  0.63227436  0.81544792  1
  O  O234  1  0.36994609  0.08047807  0.01450313  1
  O  O235  1  0.35806302  0.07428953  0.35024959  1
  O  O236  1  0.36289632  0.08145317  0.68472791  1
  O  O237  1  0.36932166  0.58036160  0.01551085  1
  O  O238  1  0.36337407  0.58024631  0.34353382  1
  O  O239  1  0.36779044  0.58457053  0.68590673  1
  O  O240  1  0.86847158  0.07826028  0.01669307  1
  O  O241  1  0.86722632  0.08279534  0.34558189  1
  O  O242  1  0.87826680  0.08465839  0.68770831  1
  O  O243  1  0.86506915  0.58278153  0.01037487  1
  O  O244  1  0.86203876  0.59529380  0.34797170  1
  O  O245  1  0.86794069  0.58353209  0.68016207  1
  O  O246  1  0.09352060  0.35590530  0.17643372  1
  O  O247  1  0.08107633  0.35602827  0.51170841  1
  O  O248  1  0.08133311  0.36998481  0.84493761  1
  O  O249  1  0.07945642  0.86820700  0.18090092  1
  O  O250  1  0.08282024  0.86679750  0.51654289  1
  O  O251  1  0.07729020  0.87445108  0.85385047  1
  O  O252  1  0.57884483  0.36929804  0.18178911  1
  O  O253  1  0.58949522  0.36466020  0.51612959  1
  O  O254  1  0.58071193  0.36720296  0.84582643  1
  O  O255  1  0.57798766  0.86748217  0.18324967  1
  O  O256  1  0.57428322  0.87298390  0.52296100  1
  O  O257  1  0.57988919  0.87035207  0.84876875  1
  O  O258  1  0.12778976  0.39954938  0.31160079  1
  O  O259  1  0.13006088  0.42322233  0.64664216  1
  O  O260  1  0.12996839  0.42404265  0.98028279  1
  O  O261  1  0.12851192  0.91887198  0.31651311  1
  O  O262  1  0.13552578  0.91424003  0.65330361  1
  O  O263  1  0.13315534  0.91822354  0.98914949  1
  O  O264  1  0.64636456  0.40793072  0.31585910  1
  O  O265  1  0.63310027  0.42359054  0.65099629  1
  O  O266  1  0.62658371  0.42010561  0.98076357  1
  O  O267  1  0.63528479  0.91691037  0.32023371  1
  O  O268  1  0.63776045  0.92352891  0.65741417  1
  O  O269  1  0.63245336  0.91888377  0.98460399  1
  O  O270  1  0.03129479  0.18413508  0.10178475  1
  O  O271  1  0.02699015  0.19661155  0.42852575  1
  O  O272  1  0.03410508  0.20054733  0.77748845  1
  O  O273  1  0.02994302  0.69760721  0.10284386  1
  O  O274  1  0.02679614  0.70740728  0.43453923  1
  O  O275  1  0.03013382  0.70472112  0.77293652  1
  O  O276  1  0.53041789  0.19863718  0.09959677  1
  O  O277  1  0.54409979  0.19324717  0.43535045  1
  O  O278  1  0.52910708  0.19893878  0.77483776  1
  O  O279  1  0.53154973  0.70216468  0.10311516  1
  O  O280  1  0.53648862  0.71549139  0.44407855  1
  O  O281  1  0.52674141  0.70071044  0.77216826  1
  O  O282  1  0.29769090  0.47047356  0.06128461  1
  O  O283  1  0.29369425  0.47464696  0.39650657  1
  O  O284  1  0.29804313  0.47097176  0.73056852  1
  O  O285  1  0.30060961  0.97308356  0.06289685  1
  O  O286  1  0.29251850  0.96065465  0.39430624  1
  O  O287  1  0.29824737  0.96712377  0.73095762  1
  O  O288  1  0.79419083  0.47456804  0.05406655  1
  O  O289  1  0.83420670  0.46003266  0.40017294  1
  O  O290  1  0.80280536  0.47525312  0.73075956  1
  O  O291  1  0.79941804  0.96050885  0.06058893  1
  O  O292  1  0.79860186  0.96896247  0.39050474  1
  O  O293  1  0.80595414  0.97119181  0.73593735  1
  O  O294  1  0.46763337  0.30152552  0.22479547  1
  O  O295  1  0.45258742  0.31146716  0.56453267  1
  O  O296  1  0.47051651  0.30628997  0.89630600  1
  O  O297  1  0.46699838  0.79915725  0.22973257  1
  O  O298  1  0.45848088  0.79319968  0.56058653  1
  O  O299  1  0.47220752  0.80410566  0.89808861  1
  O  O300  1  0.98322768  0.28559380  0.23784368  1
  O  O301  1  0.97046683  0.30211864  0.56455505  1
  O  O302  1  0.97159688  0.29929721  0.89026037  1
  O  O303  1  0.96740574  0.80118558  0.22766189  1
  O  O304  1  0.97553251  0.79715788  0.56455109  1
  O  O305  1  0.96784559  0.79591079  0.89485991  1
  O  O306  1  0.19510740  0.02970895  0.26990030  1
  O  O307  1  0.20359137  0.02214360  0.60738343  1
  O  O308  1  0.20011585  0.03115875  0.93876028  1
  O  O309  1  0.19529647  0.52005591  0.26222805  1
  O  O310  1  0.20406753  0.53955692  0.61135345  1
  O  O311  1  0.19917732  0.53342800  0.93590186  1
  O  O312  1  0.69836233  0.02638794  0.26648364  1
  O  O313  1  0.70434109  0.03061953  0.60345076  1
  O  O314  1  0.70457428  0.02791352  0.94061362  1
  O  O315  1  0.68528645  0.54417434  0.26633184  1
  O  O316  1  0.70462031  0.53757108  0.61028427  1
  O  O317  1  0.69495049  0.53198580  0.93538432  1
  O  O318  1  0.09144261  0.08347937  0.03100602  1
  O  O319  1  0.08341959  0.08536555  0.36893708  1
  O  O320  1  0.08287599  0.08372735  0.71143434  1
  O  O321  1  0.08544895  0.58811405  0.03498301  1
  O  O322  1  0.05733404  0.58232043  0.36527164  1
  O  O323  1  0.08306087  0.59170279  0.71035608  1
  O  O324  1  0.58182808  0.08470377  0.03393831  1
  O  O325  1  0.59398303  0.08957406  0.35523245  1
  O  O326  1  0.59566089  0.09145827  0.71839534  1
  O  O327  1  0.58155941  0.58908726  0.03264986  1
  O  O328  1  0.57325093  0.59317851  0.38057452  1
  O  O329  1  0.58067058  0.58810145  0.70866624  1
  O  O330  1  0.41152455  0.42023182  0.12677076  1
  O  O331  1  0.41265238  0.42927346  0.45723533  1
  O  O332  1  0.41201997  0.41966599  0.79853984  1
  O  O333  1  0.41518142  0.92286015  0.12670342  1
  O  O334  1  0.40734358  0.91257031  0.46198019  1
  O  O335  1  0.40989702  0.91262245  0.79733289  1
  O  O336  1  0.90827134  0.42077850  0.11620701  1
  O  O337  1  0.92134019  0.39731350  0.47920560  1
  O  O338  1  0.91403118  0.42016768  0.79593879  1
  O  O339  1  0.91153286  0.90993858  0.13054505  1
  O  O340  1  0.91069690  0.91244144  0.45363517  1
  O  O341  1  0.91654689  0.91596905  0.80033656  1
  O  O342  1  0.40487776  0.41059318  0.28564489  1
  O  O343  1  0.40595793  0.41724417  0.64353653  1
  O  O344  1  0.41789574  0.41791083  0.96363853  1
  O  O345  1  0.40703506  0.90765424  0.29001724  1
  O  O346  1  0.40413829  0.90374501  0.62614650  1
  O  O347  1  0.41907075  0.91722538  0.96340750  1
  O  O348  1  0.93148186  0.40129493  0.28963711  1
  O  O349  1  0.91340658  0.41111979  0.63370612  1
  O  O350  1  0.91753736  0.41176979  0.95280788  1
  O  O351  1  0.91732896  0.91564251  0.29507332  1
  O  O352  1  0.93372948  0.91704200  0.62875478  1
  O  O353  1  0.91485794  0.90780171  0.96024107  1
  O  O354  1  0.09390498  0.09257030  0.20425215  1
  O  O355  1  0.08328666  0.06447102  0.54368940  1
  O  O356  1  0.08562287  0.08152687  0.87126910  1
  O  O357  1  0.08629436  0.58054700  0.20429585  1
  O  O358  1  0.09232534  0.59522035  0.54780762  1
  O  O359  1  0.08368283  0.58224375  0.86903363  1
  O  O360  1  0.59059836  0.08776740  0.20123902  1
  O  O361  1  0.60030336  0.09692013  0.54459555  1
  O  O362  1  0.59419425  0.08205881  0.87576989  1
  O  O363  1  0.57915836  0.59395243  0.19113812  1
  O  O364  1  0.58877383  0.58853289  0.54552765  1
  O  O365  1  0.58153617  0.58241159  0.86828603  1
  O  O366  1  0.14072583  0.22077893  0.06413857  1
  O  O367  1  0.14058719  0.21931369  0.39038820  1
  O  O368  1  0.13710178  0.21486352  0.72549988  1
  O  O369  1  0.13138068  0.72223686  0.05088438  1
  O  O370  1  0.13421198  0.70657577  0.38453585  1
  O  O371  1  0.13836319  0.72313140  0.72766936  1
  O  O372  1  0.64235831  0.21703743  0.05763228  1
  O  O373  1  0.64499688  0.22552628  0.38536916  1
  O  O374  1  0.62310032  0.22252809  0.71604544  1
  O  O375  1  0.63720648  0.72261799  0.05530857  1
  O  O376  1  0.63988415  0.71870631  0.39013548  1
  O  O377  1  0.63562106  0.72080276  0.72805370  1
  O  O378  1  0.27994723  0.36147602  0.10660625  1
  O  O379  1  0.28452506  0.36437808  0.44114658  1
  O  O380  1  0.27897923  0.36246503  0.77578671  1
  O  O381  1  0.28520867  0.86530853  0.11057820  1
  O  O382  1  0.27571543  0.85426747  0.44173528  1
  O  O383  1  0.27643949  0.86163047  0.77861202  1
  O  O384  1  0.77631972  0.36496976  0.09613709  1
  O  O385  1  0.78062827  0.35990443  0.43991095  1
  O  O386  1  0.77947537  0.36329585  0.77028605  1
  O  O387  1  0.77759042  0.85667881  0.10922333  1
  O  O388  1  0.77678513  0.86789497  0.44249214  1
  O  O389  1  0.78237509  0.86198247  0.77851176  1
  O  O390  1  0.37386465  0.27728892  0.28246154  1
  O  O391  1  0.35260027  0.28120525  0.61609692  1
  O  O392  1  0.36169859  0.28397450  0.93972312  1
  O  O393  1  0.36261382  0.77460284  0.27791650  1
  O  O394  1  0.35623062  0.77054313  0.61156061  1
  O  O395  1  0.36215001  0.78401756  0.94033195  1
  O  O396  1  0.86542330  0.27302206  0.27154226  1
  O  O397  1  0.86097443  0.27548169  0.60495739  1
  O  O398  1  0.86967216  0.28090572  0.94320167  1
  O  O399  1  0.86136020  0.78323906  0.27599507  1
  O  O400  1  0.86544590  0.78956703  0.61040771  1
  O  O401  1  0.85850129  0.77542432  0.93824568  1
  O  O402  1  0.23196758  0.13667893  0.22878216  1
  O  O403  1  0.21128349  0.13041111  0.56017825  1
  O  O404  1  0.21835162  0.13716024  0.89080099  1
  O  O405  1  0.21953960  0.63250664  0.22347527  1
  O  O406  1  0.22428865  0.63927448  0.55795397  1
  O  O407  1  0.21574353  0.63722748  0.88500949  1
  O  O408  1  0.72677273  0.13485795  0.22570036  1
  O  O409  1  0.73497213  0.14019197  0.56471967  1
  O  O410  1  0.72737609  0.13893902  0.89996457  1
  O  O411  1  0.71553094  0.64368738  0.21471881  1
  O  O412  1  0.71984987  0.64131364  0.55927082  1
  O  O413  1  0.71419202  0.63899893  0.88846403  1
  O  O414  1  0.49213378  0.33565650  0.02950094  1
  O  O415  1  0.50308910  0.35365543  0.36051274  1
  O  O416  1  0.48618627  0.33125052  0.69847465  1
  O  O417  1  0.49196757  0.83594625  0.03146146  1
  O  O418  1  0.49178720  0.83784786  0.36411512  1
  O  O419  1  0.48707370  0.82935590  0.69555997  1
  O  O420  1  1.00232560  0.33930452  0.02486281  1
  O  O421  1  0.99027276  0.32356683  0.36988501  1
  O  O422  1  0.99062364  0.32912627  0.69569981  1
  O  O423  1  0.98977766  0.82679098  0.02787522  1
  O  O424  1  0.99362977  0.83513796  0.36180724  1
  O  O425  1  0.99647962  0.83357232  0.69915008  1
  O  O426  1  0.17106201  0.00910460  0.13831050  1
  O  O427  1  0.16399756  -0.00069370  0.47145312  1
  O  O428  1  0.16702321  0.00492218  0.80508772  1
  O  O429  1  0.16232913  0.50576538  0.13028728  1
  O  O430  1  0.16230022  0.50761669  0.47575123  1
  O  O431  1  0.16153847  0.50507416  0.80030912  1
  O  O432  1  0.66671050  0.00653847  0.13425502  1
  O  O433  1  0.67373095  0.01437385  0.47190946  1
  O  O434  1  0.67745091  0.00925144  0.80829988  1
  O  O435  1  0.65981629  0.51186567  0.13091818  1
  O  O436  1  0.66327025  0.50767293  0.47518095  1
  O  O437  1  0.66302314  0.50750365  0.80136488  1
  O  O438  1  0.01365755  0.16201446  0.29544455  1
  O  O439  1  0.00336935  0.15902777  0.64189300  1
  O  O440  1  0.01170116  0.16748091  0.97238284  1
  O  O441  1  0.00128530  0.67235264  0.29907281  1
  O  O442  1  0.00700711  0.67015597  0.63900529  1
  O  O443  1  0.00083068  0.66208584  0.96751473  1
  O  O444  1  0.51251985  0.17535442  0.30227457  1
  O  O445  1  0.49533988  0.14537544  0.64015918  1
  O  O446  1  0.51134278  0.16770401  0.96715729  1
  O  O447  1  0.50675059  0.67276338  0.30713216  1
  O  O448  1  0.50517142  0.66765359  0.63875815  1
  O  O449  1  0.50504509  0.67148039  0.96931618  1
  O  O450  1  0.32857731  0.49317481  0.19456898  1
  O  O451  1  0.33304726  0.49399741  0.53097065  1
  O  O452  1  0.32996904  0.49442666  0.86391837  1
  O  O453  1  0.33552444  0.99715285  0.19726713  1
  O  O454  1  0.32709619  0.98739001  0.52865168  1
  O  O455  1  0.33303988  0.99293286  0.86492397  1
  O  O456  1  0.82834254  0.49449890  0.18755929  1
  O  O457  1  0.83843963  0.48758656  0.52963243  1
  O  O458  1  0.83094203  0.49236364  0.86241049  1
  O  O459  1  0.83070076  0.98871128  0.19474091  1
  O  O460  1  0.84297816  0.99863897  0.52611582  1
  O  O461  1  0.83927900  0.99151032  0.86999618  1
