# generated using pymatgen
data_Na31Fe20(SO4)36
_symmetry_space_group_name_H-M   'P 1'
_cell_length_a   18.08539000
_cell_length_b   18.08254772
_cell_length_c   19.72535401
_cell_angle_alpha   107.59093905
_cell_angle_beta   107.59919890
_cell_angle_gamma   90.72674975
_symmetry_Int_Tables_number   1
_chemical_formula_structural   Na31Fe20(SO4)36
_chemical_formula_sum   'Na62 Fe40 S72 O288'
_cell_volume   5822.75520668
_cell_formula_units_Z   2
loop_
 _symmetry_equiv_pos_site_id
 _symmetry_equiv_pos_as_xyz
  1  'x, y, z'
loop_
 _atom_site_type_symbol
 _atom_site_label
 _atom_site_symmetry_multiplicity
 _atom_site_fract_x
 _atom_site_fract_y
 _atom_site_fract_z
 _atom_site_occupancy
  Na  Na0  1  0.13316963  0.36793261  0.08340969  1
  Na  Na1  1  0.13277735  0.37249450  0.41945969  1
  Na  Na2  1  0.13112159  0.36499247  0.74637521  1
  Na  Na3  1  0.14104438  0.86625710  0.08158655  1
  Na  Na4  1  0.12991085  0.87072597  0.42770026  1
  Na  Na5  1  0.13726637  0.86308206  0.74582851  1
  Na  Na6  1  0.63412149  0.36213891  0.07649067  1
  Na  Na7  1  0.64334563  0.35806497  0.42917444  1
  Na  Na8  1  0.63055057  0.30152582  0.71894467  1
  Na  Na9  1  0.62984920  0.86847613  0.07804726  1
  Na  Na10  1  0.63289984  0.87643846  0.41789668  1
  Na  Na11  1  0.63387330  0.87794016  0.75241192  1
  Na  Na12  1  0.36375083  0.11663378  0.23913669  1
  Na  Na13  1  0.37596290  0.12862350  0.58423260  1
  Na  Na14  1  0.35639056  0.13243028  0.91555650  1
  Na  Na15  1  0.36687184  0.63443292  0.25016064  1
  Na  Na16  1  0.36747363  0.63354274  0.58489692  1
  Na  Na17  1  0.37756520  0.63515682  0.91367988  1
  Na  Na18  1  0.86427597  0.13746911  0.25211845  1
  Na  Na19  1  0.83511072  0.13986025  0.55992580  1
  Na  Na20  1  0.85670101  0.13420617  0.90003655  1
  Na  Na21  1  0.87313608  0.63869181  0.26223783  1
  Na  Na22  1  0.86422865  0.63483802  0.58126198  1
  Na  Na23  1  0.86550721  0.63643056  0.92130792  1
  Na  Na24  1  0.51035763  0.05233799  0.44224268  1
  Na  Na25  1  1.01329702  -0.00429561  0.07967924  1
  Na  Na26  1  0.50216843  0.51107505  0.06069409  1
  Na  Na27  1  0.43073316  0.00315791  0.70485101  1
  Na  Na28  1  0.44782892  0.00301861  0.08560255  1
  Na  Na29  1  0.52049874  0.45378436  0.80320569  1
  Na  Na30  1  0.49232876  0.50140873  0.42373075  1
  Na  Na31  1  0.98533425  0.01969471  0.73114280  1
  Na  Na32  1  0.99248529  0.50754413  0.74888811  1
  Na  Na33  1  0.48523802  0.99129381  0.91959254  1
  Na  Na34  1  0.01177252  0.50372190  0.56459704  1
  Na  Na35  1  0.00706929  0.49607129  0.24514226  1
  Na  Na36  1  0.05644764  0.99665250  0.92174067  1
  Na  Na37  1  0.51263139  0.48974994  0.24495732  1
  Na  Na38  1  0.00173504  0.48966178  0.92941979  1
  Na  Na39  1  -0.00837364  0.99598927  0.27861699  1
  Na  Na40  1  0.01508841  0.98348443  0.54917748  1
  Na  Na41  1  0.50740197  0.48318193  0.60665989  1
  Na  Na42  1  0.24589024  0.24212862  0.33302831  1
  Na  Na43  1  0.26799145  0.76821373  -0.01291150  1
  Na  Na44  1  0.24115130  0.23656085  0.00661268  1
  Na  Na45  1  0.75403068  0.75374929  0.66827811  1
  Na  Na46  1  0.73751020  0.22465660  0.35137566  1
  Na  Na47  1  0.24960557  0.75237659  0.33981101  1
  Na  Na48  1  0.76644268  0.76381932  0.33390750  1
  Na  Na49  1  0.76004898  0.26430657  -0.01099460  1
  Na  Na50  1  0.73579007  0.74140254  0.00457136  1
  Na  Na51  1  0.26525051  0.26238665  0.66913718  1
  Na  Na52  1  0.74713026  0.74637877  0.16901110  1
  Na  Na53  1  0.24134571  0.23090555  0.16808128  1
  Na  Na54  1  0.26773582  0.76989798  0.82097982  1
  Na  Na55  1  0.73575747  0.74184124  0.83934543  1
  Na  Na56  1  0.76309630  0.76048500  0.49294389  1
  Na  Na57  1  0.25592252  0.75687645  0.16319304  1
  Na  Na58  1  0.74416823  0.24304629  0.17148271  1
  Na  Na59  1  0.25298731  0.25400265  0.83317313  1
  Na  Na60  1  0.25863582  0.25556812  0.50376831  1
  Na  Na61  1  0.24732651  0.74976328  0.51536392  1
  Fe  Fe62  1  0.46828431  0.30220406  0.45667102  1
  Fe  Fe63  1  0.96232594  0.80871035  0.12077698  1
  Fe  Fe64  1  0.96374489  0.30864052  0.11538607  1
  Fe  Fe65  1  0.46595335  0.81556817  0.46186058  1
  Fe  Fe66  1  0.47004672  0.80116008  0.78665845  1
  Fe  Fe67  1  0.96533601  0.30716236  0.44834560  1
  Fe  Fe68  1  0.96144042  0.30485010  0.77765091  1
  Fe  Fe69  1  0.96715862  0.80751543  0.78947846  1
  Fe  Fe70  1  0.47171187  0.80494105  0.12157048  1
  Fe  Fe71  1  0.46593220  0.30632659  0.11871545  1
  Fe  Fe72  1  0.20808888  0.02403297  0.70667262  1
  Fe  Fe73  1  0.69235234  0.53236883  0.04231804  1
  Fe  Fe74  1  0.19606592  0.53494308  0.38347334  1
  Fe  Fe75  1  0.68921913  0.03734304  0.04024906  1
  Fe  Fe76  1  0.66567632  0.05479513  0.70378495  1
  Fe  Fe77  1  0.19529233  0.03488422  0.38394046  1
  Fe  Fe78  1  0.69623357  0.52978910  0.38269699  1
  Fe  Fe79  1  0.69741226  0.53268869  0.71837330  1
  Fe  Fe80  1  0.19417789  0.53705816  0.04959370  1
  Fe  Fe81  1  0.19213206  0.54333038  0.71806609  1
  Fe  Fe82  1  0.03363652  0.19382303  0.87578574  1
  Fe  Fe83  1  0.53998474  0.69210802  0.21710528  1
  Fe  Fe84  1  0.03253296  0.69377084  0.21590998  1
  Fe  Fe85  1  0.52826616  0.20028781  0.87829098  1
  Fe  Fe86  1  0.03108099  0.69994413  0.54465242  1
  Fe  Fe87  1  0.53422176  0.18985866  0.21481527  1
  Fe  Fe88  1  0.54139095  0.69021786  0.54847211  1
  Fe  Fe89  1  0.03506277  0.19691180  0.54618461  1
  Fe  Fe90  1  0.03407291  0.19155680  0.21016697  1
  Fe  Fe91  1  0.03359650  0.69212348  0.88424957  1
  Fe  Fe92  1  0.30594851  0.47235135  0.62448599  1
  Fe  Fe93  1  0.80604796  0.46039959  0.61710312  1
  Fe  Fe94  1  0.80696966  0.97077570  0.94997927  1
  Fe  Fe95  1  0.80389237  0.96978261  0.61722882  1
  Fe  Fe96  1  0.30662690  0.46406329  0.28366189  1
  Fe  Fe97  1  0.31245696  0.96198784  0.29354893  1
  Fe  Fe98  1  0.81073359  0.46056712  0.94997717  1
  Fe  Fe99  1  0.81158164  0.46149903  0.28706002  1
  Fe  Fe100  1  0.30575896  0.46472183  0.94941082  1
  Fe  Fe101  1  0.80147222  0.96896639  0.29255082  1
  S  S102  1  0.36006701  0.14337020  0.08103183  1
  S  S103  1  0.35699680  0.14222933  0.41548232  1
  S  S104  1  0.35233664  0.15170936  0.75932895  1
  S  S105  1  0.36341732  0.63870767  0.08466742  1
  S  S106  1  0.36456459  0.63686212  0.41612328  1
  S  S107  1  0.35845431  0.64187377  0.75161801  1
  S  S108  1  0.85769155  0.14278038  0.08239053  1
  S  S109  1  0.86572175  0.14036496  0.41210397  1
  S  S110  1  0.86026788  0.14033929  0.74702968  1
  S  S111  1  0.86041243  0.63874492  0.08311176  1
  S  S112  1  0.85951624  0.63504395  0.41762235  1
  S  S113  1  0.86180536  0.63806724  0.75214023  1
  S  S114  1  0.14141442  0.35995213  0.24738837  1
  S  S115  1  0.13723680  0.36734795  0.58375021  1
  S  S116  1  0.13713498  0.36186585  0.91713307  1
  S  S117  1  0.13774343  0.86011910  0.25131276  1
  S  S118  1  0.13674667  0.86055629  0.58303045  1
  S  S119  1  0.14046743  0.85266496  0.91791773  1
  S  S120  1  0.64068173  0.35880695  0.25037278  1
  S  S121  1  0.63563816  0.36446322  0.58452859  1
  S  S122  1  0.64486937  0.35894960  0.91651928  1
  S  S123  1  0.64269082  0.85477732  0.24938064  1
  S  S124  1  0.64440252  0.85888278  0.58556398  1
  S  S125  1  0.64447936  0.86209318  0.91255018  1
  S  S126  1  0.06086797  0.16903843  0.04085309  1
  S  S127  1  0.07259564  0.17592361  0.37617116  1
  S  S128  1  0.06804649  0.17248319  0.70494039  1
  S  S129  1  0.06710973  0.66967141  0.04630738  1
  S  S130  1  0.07337779  0.66650464  0.37593238  1
  S  S131  1  0.06359637  0.66795925  0.70895830  1
  S  S132  1  0.56681012  0.17330426  0.04095094  1
  S  S133  1  0.55932023  0.17107661  0.37090150  1
  S  S134  1  0.54913497  0.15206560  0.70976924  1
  S  S135  1  0.56844821  0.66936556  0.04377694  1
  S  S136  1  0.57120103  0.66090989  0.37509420  1
  S  S137  1  0.57109566  0.66892118  0.70768817  1
  S  S138  1  0.32866939  0.43211902  0.12259087  1
  S  S139  1  0.33053499  0.43164149  0.45692466  1
  S  S140  1  0.32168868  0.43700400  0.78986618  1
  S  S141  1  0.33297135  0.92370735  0.12961879  1
  S  S142  1  0.32765880  0.93412811  0.45878870  1
  S  S143  1  0.33434712  0.93583486  0.79102868  1
  S  S144  1  0.83086435  0.43518069  0.12540957  1
  S  S145  1  0.83132207  0.42857932  0.45630581  1
  S  S146  1  0.83591281  0.43401820  0.79343791  1
  S  S147  1  0.83159630  0.93527051  0.12413943  1
  S  S148  1  0.82628777  0.93330811  0.45573395  1
  S  S149  1  0.84070892  0.93364749  0.79433402  1
  S  S150  1  0.43166766  0.33214647  0.29246016  1
  S  S151  1  0.43122511  0.34049651  0.62723164  1
  S  S152  1  0.43369563  0.33304608  0.96096534  1
  S  S153  1  0.43402610  0.82332366  0.29346908  1
  S  S154  1  0.43597121  0.81872910  0.61835887  1
  S  S155  1  0.43953338  0.83230892  0.95727478  1
  S  S156  1  0.93606201  0.33074457  0.28635257  1
  S  S157  1  0.93341680  0.33449378  0.62250510  1
  S  S158  1  0.93563801  0.32913449  0.95730900  1
  S  S159  1  0.93197442  0.82902853  0.28926151  1
  S  S160  1  0.92781367  0.82804715  0.62624370  1
  S  S161  1  0.92879348  0.83062103  0.95829783  1
  S  S162  1  0.16538963  0.06289510  0.20941797  1
  S  S163  1  0.16990374  0.07535987  0.54548493  1
  S  S164  1  0.16628543  0.07178590  0.86597950  1
  S  S165  1  0.17075096  0.56817634  0.21116497  1
  S  S166  1  0.16925498  0.57191766  0.54179033  1
  S  S167  1  0.16678935  0.56794034  0.87835592  1
  S  S168  1  0.67021925  0.06738020  0.20316488  1
  S  S169  1  0.66221016  0.06489653  0.55076195  1
  S  S170  1  0.66969241  0.07841487  0.87685382  1
  S  S171  1  0.67121156  0.56326559  0.20791661  1
  S  S172  1  0.67353927  0.56607105  0.54343268  1
  S  S173  1  0.67639922  0.56322768  0.87964202  1
  O  O174  1  0.37226187  0.22603912  0.07797167  1
  O  O175  1  0.36673728  0.22217354  0.40764385  1
  O  O176  1  0.34878773  0.23415471  0.76661337  1
  O  O177  1  0.37142661  0.71687489  0.07552835  1
  O  O178  1  0.37487272  0.71571487  0.40923607  1
  O  O179  1  0.36981224  0.72295715  0.74922735  1
  O  O180  1  0.86543810  0.22293585  0.07687075  1
  O  O181  1  0.87989247  0.21592937  0.39631369  1
  O  O182  1  0.87016779  0.22038544  0.74264477  1
  O  O183  1  0.86926823  0.71659914  0.07168475  1
  O  O184  1  0.86261220  0.71120047  0.40681543  1
  O  O185  1  0.87088296  0.71664181  0.74414933  1
  O  O186  1  0.28145945  0.13504008  0.08582314  1
  O  O187  1  0.27578589  0.13637796  0.42113408  1
  O  O188  1  0.27476281  0.12376775  0.76581128  1
  O  O189  1  0.28493137  0.62969862  0.09462077  1
  O  O190  1  0.28648912  0.62877639  0.42625008  1
  O  O191  1  0.27759983  0.63587279  0.75986727  1
  O  O192  1  0.77886661  0.13156724  0.08998539  1
  O  O193  1  0.78771192  0.13645226  0.41793046  1
  O  O194  1  0.78610546  0.12591859  0.75915695  1
  O  O195  1  0.77950369  0.63146484  0.08807837  1
  O  O196  1  0.78260019  0.62129436  0.43038211  1
  O  O197  1  0.78407292  0.63015973  0.76275980  1
  O  O198  1  0.13302043  0.27855451  0.25027272  1
  O  O199  1  0.12909750  0.28959039  0.59420384  1
  O  O200  1  0.12908678  0.28456188  0.92873273  1
  O  O201  1  0.12852559  0.78188862  0.26136714  1
  O  O202  1  0.12259299  0.78681014  0.59968222  1
  O  O203  1  0.12479544  0.77375831  0.92763533  1
  O  O204  1  0.63172816  0.27839831  0.25373221  1
  O  O205  1  0.62479606  0.29025315  0.59513996  1
  O  O206  1  0.62784289  0.28200017  0.92758109  1
  O  O207  1  0.63755291  0.77190512  0.25342760  1
  O  O208  1  0.63657939  0.77917969  0.59358361  1
  O  O209  1  0.64377802  0.78457252  0.92071713  1
  O  O210  1  0.21868765  0.36889387  0.23557428  1
  O  O211  1  0.21544703  0.37513792  0.57366605  1
  O  O212  1  0.21603598  0.37050542  0.90923578  1
  O  O213  1  0.21781681  0.86835445  0.24573789  1
  O  O214  1  0.21276578  0.86499437  0.57235760  1
  O  O215  1  0.21934095  0.85608766  0.91340371  1
  O  O216  1  0.71826263  0.36937215  0.23978124  1
  O  O217  1  0.71200194  0.37637692  0.57157663  1
  O  O218  1  0.73043839  0.36432406  0.92582994  1
  O  O219  1  0.72338999  0.86567435  0.24402292  1
  O  O220  1  0.72278527  0.86686543  0.57578936  1
  O  O221  1  0.72162403  0.87876738  0.90135879  1
  O  O222  1  0.41850807  0.13557775  0.15122656  1
  O  O223  1  0.41406365  0.13268112  0.48138687  1
  O  O224  1  0.41406301  0.13921531  0.82467320  1
  O  O225  1  0.42319995  0.63078506  0.15246720  1
  O  O226  1  0.42495125  0.62310976  0.48031068  1
  O  O227  1  0.41571447  0.62447789  0.81224757  1
  O  O228  1  0.91675212  0.13415041  0.15029498  1
  O  O229  1  0.92444278  0.13805530  0.48287969  1
  O  O230  1  0.92435514  0.13046225  0.81295355  1
  O  O231  1  0.91615988  0.63459344  0.15434299  1
  O  O232  1  0.92134922  0.62911471  0.48508817  1
  O  O233  1  0.92193790  0.62895336  0.81958954  1
  O  O234  1  0.37416035  0.08768512  0.01622589  1
  O  O235  1  0.36203480  0.08368199  0.34562202  1
  O  O236  1  0.36130171  0.10456698  0.68836932  1
  O  O237  1  0.37067060  0.57823123  0.01709460  1
  O  O238  1  0.36877533  0.57787363  0.34559936  1
  O  O239  1  0.35755907  0.58718343  0.67688275  1
  O  O240  1  0.86622218  0.08537919  0.01382715  1
  O  O241  1  0.87653009  0.07709960  0.34709566  1
  O  O242  1  0.87037404  0.08364122  0.67800200  1
  O  O243  1  0.87171174  0.57830701  0.01814058  1
  O  O244  1  0.86597257  0.57400894  0.34948361  1
  O  O245  1  0.86890131  0.57821102  0.68400313  1
  O  O246  1  0.07996280  0.37339936  0.18370221  1
  O  O247  1  0.07720078  0.37424357  0.51515638  1
  O  O248  1  0.07773292  0.36782482  0.84846939  1
  O  O249  1  0.08060093  0.86464347  0.18060138  1
  O  O250  1  0.07420054  0.86996336  0.51974246  1
  O  O251  1  0.08372743  0.85739377  0.84546886  1
  O  O252  1  0.57935444  0.37158891  0.18552671  1
  O  O253  1  0.57368508  0.37443551  0.51644135  1
  O  O254  1  0.59869761  0.36394666  0.84402932  1
  O  O255  1  0.58724023  0.85837144  0.17755226  1
  O  O256  1  0.58438528  0.86305309  0.51643545  1
  O  O257  1  0.58269849  0.86873911  0.84538806  1
  O  O258  1  0.13798665  0.41566856  0.31887130  1
  O  O259  1  0.12844454  0.42820316  0.65012562  1
  O  O260  1  0.12828281  0.42330633  0.98384371  1
  O  O261  1  0.12626604  0.92102669  0.31659217  1
  O  O262  1  0.13519760  0.92607645  0.65396610  1
  O  O263  1  0.12696534  0.91295263  0.98076938  1
  O  O264  1  0.63469509  0.41553155  0.32075075  1
  O  O265  1  0.62883361  0.42980918  0.65041204  1
  O  O266  1  0.62970610  0.42034575  0.98067769  1
  O  O267  1  0.62966921  0.90934751  0.31433458  1
  O  O268  1  0.63869500  0.91768242  0.65381380  1
  O  O269  1  0.63584491  0.92122977  0.98078590  1
  O  O270  1  0.02398660  0.20632130  0.10126568  1
  O  O271  1  0.04094539  0.20853732  0.43992184  1
  O  O272  1  0.03331935  0.20436858  0.76766141  1
  O  O273  1  0.03044849  0.69761094  0.10697779  1
  O  O274  1  0.04013323  0.68917121  0.43704522  1
  O  O275  1  0.02623823  0.69467601  0.76952526  1
  O  O276  1  0.53231092  0.20136423  0.10355826  1
  O  O277  1  0.52417140  0.20783437  0.43178113  1
  O  O278  1  0.52590083  0.19450750  0.77730277  1
  O  O279  1  0.53347216  0.69841838  0.10747933  1
  O  O280  1  0.53754241  0.69183682  0.43678549  1
  O  O281  1  0.53384528  0.70026242  0.76520890  1
  O  O282  1  0.29896436  0.46783867  0.06108396  1
  O  O283  1  0.30061737  0.46621576  0.39411802  1
  O  O284  1  0.28896946  0.47557825  0.72973702  1
  O  O285  1  0.31648906  0.96155318  0.07255149  1
  O  O286  1  0.29584992  0.97008029  0.39471910  1
  O  O287  1  0.30465530  0.96889946  0.72578463  1
  O  O288  1  0.80175243  0.47280185  0.06599192  1
  O  O289  1  0.79918688  0.46188262  0.39317855  1
  O  O290  1  0.80330759  0.46828709  0.73080237  1
  O  O291  1  0.80323282  0.97078750  0.06246379  1
  O  O292  1  0.79687372  0.96797877  0.39482115  1
  O  O293  1  0.82269331  0.96475824  0.73109953  1
  O  O294  1  0.47065085  0.30319007  0.23384710  1
  O  O295  1  0.45152753  0.31577984  0.55646571  1
  O  O296  1  0.47213840  0.30337324  0.90368718  1
  O  O297  1  0.47261400  0.79440276  0.23381728  1
  O  O298  1  0.47660515  0.78584726  0.55878639  1
  O  O299  1  0.47756934  0.80669652  0.89884601  1
  O  O300  1  0.97403055  0.29816322  0.22647169  1
  O  O301  1  0.96867674  0.30457052  0.56060252  1
  O  O302  1  0.97025715  0.29886380  0.89525504  1
  O  O303  1  0.96442528  0.79725288  0.22325968  1
  O  O304  1  0.96008456  0.79402192  0.56526596  1
  O  O305  1  0.96441783  0.79855842  0.89726276  1
  O  O306  1  0.19615363  0.03265697  0.27456877  1
  O  O307  1  0.19471655  0.04082636  0.60743331  1
  O  O308  1  0.18249723  0.03375772  0.92280143  1
  O  O309  1  0.20206824  0.53017037  0.27118039  1
  O  O310  1  0.19794855  0.53537847  0.60300255  1
  O  O311  1  0.19977732  0.53118369  0.93893902  1
  O  O312  1  0.69961877  0.02931926  0.26057761  1
  O  O313  1  0.70516730  0.02875481  0.61337750  1
  O  O314  1  0.69786864  0.03483994  0.93332846  1
  O  O315  1  0.69960696  0.52801348  0.26975757  1
  O  O316  1  0.70657736  0.53627496  0.60807691  1
  O  O317  1  0.71425345  0.52591887  0.94017669  1
  O  O318  1  0.07082414  0.08836004  0.03980949  1
  O  O319  1  0.09109750  0.09501686  0.37193838  1
  O  O320  1  0.08140144  0.08962736  0.69615878  1
  O  O321  1  0.08684226  0.58817537  0.03956055  1
  O  O322  1  0.09171743  0.58292050  0.36089107  1
  O  O323  1  0.07850616  0.58368828  0.70115379  1
  O  O324  1  0.58081495  0.08984077  0.02937186  1
  O  O325  1  0.57429999  0.09262778  0.37103871  1
  O  O326  1  0.54068973  0.06555389  0.69677795  1
  O  O327  1  0.59525136  0.59153325  0.04793829  1
  O  O328  1  0.58541931  0.57686989  0.36919997  1
  O  O329  1  0.59323632  0.58900358  0.70707434  1
  O  O330  1  0.41089281  0.41536946  0.12997764  1
  O  O331  1  0.41290389  0.41540072  0.46289867  1
  O  O332  1  0.39782950  0.41426740  0.78950741  1
  O  O333  1  0.41533187  0.90241546  0.14494732  1
  O  O334  1  0.40432130  0.90822158  0.45280489  1
  O  O335  1  0.41045095  0.90574107  0.78607572  1
  O  O336  1  0.91180477  0.41483109  0.12900920  1
  O  O337  1  0.91356807  0.41345313  0.46108747  1
  O  O338  1  0.91865565  0.41811920  0.79508864  1
  O  O339  1  0.91512256  0.91939767  0.13192393  1
  O  O340  1  0.90552435  0.91331090  0.46339043  1
  O  O341  1  0.92495425  0.91760775  0.81453612  1
  O  O342  1  0.41716003  0.41587020  0.29724970  1
  O  O343  1  0.40815483  0.42296466  0.63685281  1
  O  O344  1  0.41193811  0.41344910  0.96257667  1
  O  O345  1  0.41573356  0.90412829  0.30104254  1
  O  O346  1  0.41435806  0.89386315  0.61223147  1
  O  O347  1  0.42438302  0.91451142  0.96879005  1
  O  O348  1  0.91919421  0.41142249  0.28708125  1
  O  O349  1  0.91747172  0.41774654  0.62786764  1
  O  O350  1  0.91642756  0.40994026  0.95924866  1
  O  O351  1  0.90447587  0.90600214  0.28608097  1
  O  O352  1  0.90934918  0.90909581  0.62853943  1
  O  O353  1  0.91310473  0.91293674  0.96481160  1
  O  O354  1  0.08529331  0.08840328  0.20804358  1
  O  O355  1  0.08708919  0.09207686  0.53562720  1
  O  O356  1  0.08073310  0.08727493  0.84727156  1
  O  O357  1  0.08992756  0.58563136  0.20775071  1
  O  O358  1  0.08928680  0.59258730  0.53967154  1
  O  O359  1  0.08421772  0.58239589  0.87599429  1
  O  O360  1  0.58853342  0.08605169  0.19630687  1
  O  O361  1  0.58839817  0.08382615  0.56536115  1
  O  O362  1  0.59066349  0.10010861  0.87798155  1
  O  O363  1  0.58788977  0.57907364  0.20074251  1
  O  O364  1  0.59050365  0.58044166  0.53630067  1
  O  O365  1  0.59694796  0.57435450  0.87869087  1
  O  O366  1  0.13521796  0.21816292  0.05926577  1
  O  O367  1  0.14246687  0.22844824  0.38861336  1
  O  O368  1  0.14097473  0.22280448  0.72230115  1
  O  O369  1  0.13723022  0.72257401  0.06237017  1
  O  O370  1  0.14437845  0.71904247  0.39157695  1
  O  O371  1  0.13557898  0.71789809  0.72710119  1
  O  O372  1  0.64003615  0.22361479  0.05975749  1
  O  O373  1  0.62861657  0.22316929  0.38167253  1
  O  O374  1  0.63473256  0.17463126  0.72844145  1
  O  O375  1  0.63814470  0.72456322  0.05998581  1
  O  O376  1  0.64323091  0.70895303  0.38726102  1
  O  O377  1  0.64171211  0.72111560  0.72004653  1
  O  O378  1  0.27639979  0.36152642  0.10702938  1
  O  O379  1  0.27883702  0.36008957  0.44064598  1
  O  O380  1  0.26445047  0.36957057  0.77472804  1
  O  O381  1  0.27752640  0.85203255  0.10854192  1
  O  O382  1  0.27169016  0.86518015  0.44179328  1
  O  O383  1  0.27573962  0.87332591  0.78118512  1
  O  O384  1  0.77802110  0.36459446  0.10975939  1
  O  O385  1  0.78199466  0.35724241  0.44278007  1
  O  O386  1  0.78707861  0.36535874  0.78445508  1
  O  O387  1  0.78096860  0.86257874  0.10682620  1
  O  O388  1  0.77114902  0.86265676  0.44026246  1
  O  O389  1  0.78808020  0.86210457  0.77685328  1
  O  O390  1  0.35824168  0.28308092  0.27431776  1
  O  O391  1  0.36280008  0.28733248  0.61769818  1
  O  O392  1  0.36356783  0.28128801  0.94863059  1
  O  O393  1  0.36142232  0.77013425  0.27304431  1
  O  O394  1  0.36839053  0.76222623  0.60168256  1
  O  O395  1  0.36683492  0.77873626  0.93658734  1
  O  O396  1  0.86414545  0.28003760  0.26983008  1
  O  O397  1  0.86374481  0.28516147  0.61048361  1
  O  O398  1  0.86739033  0.27716769  0.94637110  1
  O  O399  1  0.86353566  0.77256895  0.27436838  1
  O  O400  1  0.85648861  0.77758047  0.61559384  1
  O  O401  1  0.85739540  0.77955901  0.94327249  1
  O  O402  1  0.21937964  0.13197648  0.22123494  1
  O  O403  1  0.22167377  0.14668993  0.56138297  1
  O  O404  1  0.21624606  0.14667883  0.88884895  1
  O  O405  1  0.22283633  0.63977031  0.22798522  1
  O  O406  1  0.22285835  0.63935230  0.55352644  1
  O  O407  1  0.21661419  0.63928699  0.89317563  1
  O  O408  1  0.72255760  0.14053013  0.22169900  1
  O  O409  1  0.71284311  0.13284368  0.55972202  1
  O  O410  1  0.72619263  0.14689385  0.89782498  1
  O  O411  1  0.72253136  0.63483113  0.22425856  1
  O  O412  1  0.72168652  0.63807257  0.55501965  1
  O  O413  1  0.72663566  0.63709928  0.89736166  1
  O  O414  1  0.49324115  0.34319680  0.03696809  1
  O  O415  1  0.48782565  0.33558862  0.36697872  1
  O  O416  1  0.49909325  0.34542279  0.69202786  1
  O  O417  1  0.49439388  0.82782355  0.03054991  1
  O  O418  1  0.49114164  0.82029141  0.36510825  1
  O  O419  1  0.49452032  0.82458560  0.69248127  1
  O  O420  1  0.99709753  0.33576688  0.03035273  1
  O  O421  1  0.99380987  0.33444929  0.35983268  1
  O  O422  1  0.99552298  0.34017546  0.69543861  1
  O  O423  1  0.98884883  0.83300144  0.03104731  1
  O  O424  1  0.99457898  0.83654154  0.35784374  1
  O  O425  1  0.98806271  0.83435794  0.70043301  1
  O  O426  1  0.15483721  0.00038845  0.13892153  1
  O  O427  1  0.17093939  0.01494613  0.47464745  1
  O  O428  1  0.17446591  0.01684194  0.79393773  1
  O  O429  1  0.16947269  0.50981611  0.13841273  1
  O  O430  1  0.16406347  0.50932369  0.46924113  1
  O  O431  1  0.16077057  0.50943970  0.80421849  1
  O  O432  1  0.66809127  0.01166399  0.12805234  1
  O  O433  1  0.64722300  0.00323298  0.47815212  1
  O  O434  1  0.66538398  0.02311721  0.80194745  1
  O  O435  1  0.66960483  0.50375654  0.13573585  1
  O  O436  1  0.67176315  0.50358451  0.47283757  1
  O  O437  1  0.67868821  0.50664746  0.80758151  1
  O  O438  1  0.01026287  0.17203886  0.30482848  1
  O  O439  1  0.00828009  0.17629118  0.63519657  1
  O  O440  1  0.00652129  0.16887902  0.96671532  1
  O  O441  1  0.01193924  0.66725868  0.30457343  1
  O  O442  1  0.00514911  0.66628345  0.63629414  1
  O  O443  1  0.00641701  0.66667124  0.97402069  1
  O  O444  1  0.49877456  0.16842898  0.29704527  1
  O  O445  1  0.50140297  0.17439139  0.64730363  1
  O  O446  1  0.50795747  0.17782138  0.97084977  1
  O  O447  1  0.51116459  0.65683637  0.30182067  1
  O  O448  1  0.51269634  0.65825459  0.63127356  1
  O  O449  1  0.50877712  0.66009585  0.97323989  1
  O  O450  1  0.33065483  0.49247342  0.19474113  1
  O  O451  1  0.33050347  0.49158717  0.52771684  1
  O  O452  1  0.32547578  0.49699073  0.86340467  1
  O  O453  1  0.32786206  0.98019082  0.20184487  1
  O  O454  1  0.33654424  0.99446850  0.52921815  1
  O  O455  1  0.35135726  1.00014789  0.86191736  1
  O  O456  1  0.83627852  0.49394617  0.19935412  1
  O  O457  1  0.83384468  0.49006585  0.52791768  1
  O  O458  1  0.84556737  0.49706076  0.86692949  1
  O  O459  1  0.83249478  0.99357784  0.19644539  1
  O  O460  1  0.82425098  0.99336140  0.52743015  1
  O  O461  1  0.83236105  0.99523284  0.86168126  1
