# generated using pymatgen
data_Na31Fe20(SO4)36
_symmetry_space_group_name_H-M   'P 1'
_cell_length_a   18.07453650
_cell_length_b   18.06863030
_cell_length_c   19.69635109
_cell_angle_alpha   107.57044666
_cell_angle_beta   107.55238711
_cell_angle_gamma   90.71237907
_symmetry_Int_Tables_number   1
_chemical_formula_structural   Na31Fe20(SO4)36
_chemical_formula_sum   'Na62 Fe40 S72 O288'
_cell_volume   5808.85738061
_cell_formula_units_Z   2
loop_
 _symmetry_equiv_pos_site_id
 _symmetry_equiv_pos_as_xyz
  1  'x, y, z'
loop_
 _atom_site_type_symbol
 _atom_site_label
 _atom_site_symmetry_multiplicity
 _atom_site_fract_x
 _atom_site_fract_y
 _atom_site_fract_z
 _atom_site_occupancy
  Na  Na0  1  0.13082936  0.36287214  0.07841931  1
  Na  Na1  1  0.12870203  0.36656080  0.41739808  1
  Na  Na2  1  0.13533321  0.36525699  0.74682321  1
  Na  Na3  1  0.12888451  0.85804154  0.06846546  1
  Na  Na4  1  0.12606807  0.87679301  0.42043978  1
  Na  Na5  1  0.12036294  0.86597181  0.73853146  1
  Na  Na6  1  0.62708291  0.38296477  0.08368254  1
  Na  Na7  1  0.68550483  0.34485168  0.43739148  1
  Na  Na8  1  0.62621155  0.36688355  0.74293228  1
  Na  Na9  1  0.64036360  0.85773626  0.08908143  1
  Na  Na10  1  0.65145289  0.87243306  0.43111649  1
  Na  Na11  1  0.63153086  0.85424512  0.74085898  1
  Na  Na12  1  0.36579400  0.13017805  0.24619163  1
  Na  Na13  1  0.37352591  0.14288098  0.59508131  1
  Na  Na14  1  0.37023702  0.13197118  0.91322268  1
  Na  Na15  1  0.37334679  0.62908875  0.25294443  1
  Na  Na16  1  0.37322919  0.65036134  0.60418127  1
  Na  Na17  1  0.36919967  0.63117754  0.91769608  1
  Na  Na18  1  0.86085968  0.14794859  0.26161873  1
  Na  Na19  1  0.82752185  0.11855287  0.54275398  1
  Na  Na20  1  0.86892670  0.12302314  0.90642592  1
  Na  Na21  1  0.83788356  0.63114363  0.22125470  1
  Na  Na22  1  0.85991152  0.64013605  0.58721424  1
  Na  Na23  1  0.86332655  0.64438044  0.91744207  1
  Na  Na24  1  0.52255211  0.48679915  0.39672200  1
  Na  Na25  1  0.49308183  0.01157630  0.07788965  1
  Na  Na26  1  0.53495388  0.47971030  0.90696311  1
  Na  Na27  1  0.98193165  0.51101914  0.08158728  1
  Na  Na28  1  0.52008934  -0.01165542  0.40523226  1
  Na  Na29  1  0.98162330  0.52998390  0.75025833  1
  Na  Na30  1  0.49504841  0.00925183  0.74723459  1
  Na  Na31  1  0.99371816  0.01305624  0.07932932  1
  Na  Na32  1  0.99244070  0.54632871  0.43427357  1
  Na  Na33  1  0.51752386  0.99163429  0.57875111  1
  Na  Na34  1  0.00303378  0.49811214  0.25851925  1
  Na  Na35  1  -0.01494867  0.52044494  0.90983471  1
  Na  Na36  1  0.55532286  0.99526219  0.25830451  1
  Na  Na37  1  0.50268516  0.92714592  0.88756718  1
  Na  Na38  1  -0.02474924  1.00606240  0.28492117  1
  Na  Na39  1  -0.00740648  0.51907741  0.59141125  1
  Na  Na40  1  0.51011366  0.48695753  0.58955569  1
  Na  Na41  1  -0.04473284  1.01698302  0.62834033  1
  Na  Na42  1  0.24238269  0.74657654  0.34113324  1
  Na  Na43  1  0.26041120  0.25787260  -0.00720738  1
  Na  Na44  1  0.75655428  0.75874826  0.32646599  1
  Na  Na45  1  0.24942953  0.25050706  0.32993231  1
  Na  Na46  1  0.75698095  0.26493856  0.64496120  1
  Na  Na47  1  0.23724015  0.73836637  0.00148864  1
  Na  Na48  1  0.24026715  0.74428343  0.67688038  1
  Na  Na49  1  0.73553666  0.72692944  0.01611757  1
  Na  Na50  1  0.26447426  0.26317667  0.66585432  1
  Na  Na51  1  0.75192834  0.25424237  -0.00170485  1
  Na  Na52  1  0.26374451  0.25679310  0.82647658  1
  Na  Na53  1  0.75460575  0.25461913  0.82432811  1
  Na  Na54  1  0.74795299  0.75238575  0.50845031  1
  Na  Na55  1  0.25094775  0.25130173  0.49792220  1
  Na  Na56  1  0.25386407  0.25371191  0.16034212  1
  Na  Na57  1  0.73939001  0.24370347  0.17519961  1
  Na  Na58  1  0.23732502  0.74212559  0.83911846  1
  Na  Na59  1  0.75711739  0.75398095  0.82438698  1
  Na  Na60  1  0.24288558  0.74413335  0.17032784  1
  Na  Na61  1  0.23943142  0.74496940  0.51279897  1
  Fe  Fe62  1  0.94736106  0.32304325  0.45575751  1
  Fe  Fe63  1  0.96500752  0.81128307  0.12268780  1
  Fe  Fe64  1  0.96779660  0.80159764  0.46712729  1
  Fe  Fe65  1  0.46391559  0.80450341  0.11826651  1
  Fe  Fe66  1  0.46877433  0.30920235  0.12176386  1
  Fe  Fe67  1  0.96483399  0.30907899  0.78082964  1
  Fe  Fe68  1  0.96558766  0.30639719  0.11813286  1
  Fe  Fe69  1  0.46277953  0.80590477  0.45009143  1
  Fe  Fe70  1  0.46413520  0.30631902  0.45085948  1
  Fe  Fe71  1  0.96881975  0.80332349  0.79225309  1
  Fe  Fe72  1  0.69074815  0.03129152  0.04283816  1
  Fe  Fe73  1  0.19320448  0.53511177  0.38600359  1
  Fe  Fe74  1  0.19138230  0.53578070  0.71690690  1
  Fe  Fe75  1  0.70326074  0.02705857  0.71098306  1
  Fe  Fe76  1  0.70068037  0.53431161  0.70771812  1
  Fe  Fe77  1  0.18973951  0.03728279  0.71192053  1
  Fe  Fe78  1  0.19048778  0.53272106  0.04584151  1
  Fe  Fe79  1  0.19397594  0.03475454  0.37977839  1
  Fe  Fe80  1  0.19084856  0.03617185  0.04237960  1
  Fe  Fe81  1  0.69235057  0.53508722  0.38039846  1
  Fe  Fe82  1  0.53161784  0.69089396  0.87399578  1
  Fe  Fe83  1  0.53919087  0.19430927  0.21963141  1
  Fe  Fe84  1  0.53451120  0.19881738  0.87678395  1
  Fe  Fe85  1  0.53716350  0.67908018  0.20475393  1
  Fe  Fe86  1  0.03227069  0.19551243  0.21550792  1
  Fe  Fe87  1  0.03244187  0.19610013  0.54575519  1
  Fe  Fe88  1  0.03365504  0.69481908  0.21650330  1
  Fe  Fe89  1  0.53204682  0.69016160  0.54621285  1
  Fe  Fe90  1  0.53273393  0.19171311  0.54662918  1
  Fe  Fe91  1  0.03301515  0.19074198  0.87642372  1
  Fe  Fe92  1  0.80146171  0.96585713  0.29318086  1
  Fe  Fe93  1  0.30631161  0.96692485  0.94612862  1
  Fe  Fe94  1  0.30640999  0.96523974  0.28285916  1
  Fe  Fe95  1  0.30695564  0.46562083  0.28763293  1
  Fe  Fe96  1  0.80512556  0.46918194  0.28294107  1
  Fe  Fe97  1  0.30685289  0.96690950  0.61629970  1
  Fe  Fe98  1  0.79930394  0.46928935  0.95236981  1
  Fe  Fe99  1  0.31181112  0.46329918  0.62501659  1
  Fe  Fe100  1  0.31073870  0.46385681  0.95400265  1
  Fe  Fe101  1  0.80813639  0.96200944  0.95193835  1
  S  S102  1  0.36275078  0.13920997  0.08356677  1
  S  S103  1  0.35730213  0.14017296  0.41331579  1
  S  S104  1  0.36125204  0.13798500  0.74978465  1
  S  S105  1  0.35634012  0.64036218  0.08477710  1
  S  S106  1  0.35649937  0.64083928  0.41691223  1
  S  S107  1  0.35661818  0.64046568  0.75012977  1
  S  S108  1  0.85866281  0.14090186  0.08353272  1
  S  S109  1  0.86727449  0.13882739  0.41256158  1
  S  S110  1  0.86089285  0.14500374  0.74614057  1
  S  S111  1  0.86480410  0.64007029  0.08002923  1
  S  S112  1  0.85572003  0.64254263  0.41517525  1
  S  S113  1  0.86409406  0.64155080  0.75554664  1
  S  S114  1  0.13969884  0.36069329  0.24997070  1
  S  S115  1  0.13683070  0.36094693  0.58198148  1
  S  S116  1  0.14059796  0.35719257  0.91718891  1
  S  S117  1  0.14016696  0.86080537  0.25136867  1
  S  S118  1  0.14126535  0.86299548  0.58063740  1
  S  S119  1  0.14308198  0.86258583  0.91367881  1
  S  S120  1  0.64178065  0.35875455  0.25166172  1
  S  S121  1  0.63538803  0.36130369  0.57993865  1
  S  S122  1  0.64555072  0.35542456  0.91421802  1
  S  S123  1  0.63582054  0.85445083  0.25130647  1
  S  S124  1  0.63311019  0.85983740  0.58059480  1
  S  S125  1  0.64777736  0.85253880  0.91987934  1
  S  S126  1  0.06633637  0.17080786  0.04342051  1
  S  S127  1  0.07340717  0.17093785  0.37452453  1
  S  S128  1  0.06971754  0.17418374  0.70988303  1
  S  S129  1  0.06629651  0.66692563  0.04531408  1
  S  S130  1  0.06546845  0.67133322  0.37730338  1
  S  S131  1  0.06369829  0.67151835  0.71180407  1
  S  S132  1  0.56821854  0.17038989  0.04055718  1
  S  S133  1  0.55948716  0.16771895  0.37447283  1
  S  S134  1  0.56930124  0.16202943  0.70793839  1
  S  S135  1  0.56048178  0.66729781  0.03809052  1
  S  S136  1  0.56624247  0.67219867  0.37586217  1
  S  S137  1  0.56941336  0.66522207  0.70792306  1
  S  S138  1  0.32576297  0.42950671  0.12363731  1
  S  S139  1  0.32911826  0.43383674  0.45809535  1
  S  S140  1  0.33126224  0.43496219  0.79270022  1
  S  S141  1  0.32842103  0.93159852  0.12128505  1
  S  S142  1  0.33084879  0.93584956  0.45488461  1
  S  S143  1  0.32944953  0.93711851  0.78492289  1
  S  S144  1  0.84008993  0.43409641  0.12571627  1
  S  S145  1  0.84566720  0.44716290  0.45835619  1
  S  S146  1  0.82886117  0.43309610  0.78964817  1
  S  S147  1  0.83042777  0.93331665  0.12641988  1
  S  S148  1  0.83683733  0.92506048  0.46088491  1
  S  S149  1  0.82798836  0.92523923  0.79398212  1
  S  S150  1  0.42993998  0.32781111  0.28805431  1
  S  S151  1  0.43231731  0.32919818  0.62082350  1
  S  S152  1  0.43357799  0.32789094  0.95819492  1
  S  S153  1  0.42879454  0.82808638  0.28766795  1
  S  S154  1  0.43163461  0.83532179  0.62162266  1
  S  S155  1  0.43153469  0.83159320  0.95866771  1
  S  S156  1  0.93291599  0.33379099  0.28992173  1
  S  S157  1  0.93924646  0.34034705  0.62633380  1
  S  S158  1  0.93378687  0.33052124  0.95626011  1
  S  S159  1  0.92835298  0.82294683  0.29229021  1
  S  S160  1  0.93212528  0.82524438  0.62629271  1
  S  S161  1  0.93693984  0.83420862  0.96008535  1
  S  S162  1  0.16784755  0.06746699  0.20560133  1
  S  S163  1  0.17585506  0.07754462  0.54479321  1
  S  S164  1  0.17382983  0.07366944  0.87708568  1
  S  S165  1  0.16762494  0.56453893  0.21019618  1
  S  S166  1  0.17216752  0.56270473  0.54661822  1
  S  S167  1  0.16610829  0.55751930  0.87661168  1
  S  S168  1  0.66993786  0.06456557  0.20377665  1
  S  S169  1  0.65928860  0.06659827  0.54107292  1
  S  S170  1  0.67409861  0.06618372  0.87564499  1
  S  S171  1  0.66899814  0.56430528  0.21219603  1
  S  S172  1  0.66410978  0.56822475  0.53646380  1
  S  S173  1  0.67199228  0.56821781  0.87171419  1
  O  O174  1  0.36903066  0.21920206  0.07729991  1
  O  O175  1  0.36524631  0.21858223  0.40329844  1
  O  O176  1  0.36621829  0.21315888  0.73727890  1
  O  O177  1  0.36205157  0.71999733  0.07673831  1
  O  O178  1  0.36526552  0.71774675  0.40435974  1
  O  O179  1  0.36360283  0.71435242  0.73547733  1
  O  O180  1  0.86908381  0.22004438  0.07587830  1
  O  O181  1  0.88503102  0.21377206  0.39903667  1
  O  O182  1  0.86579601  0.22944679  0.74842754  1
  O  O183  1  0.88012463  0.71833639  0.07117477  1
  O  O184  1  0.87155247  0.72456643  0.41291724  1
  O  O185  1  0.87575555  0.72776957  0.76310458  1
  O  O186  1  0.28484101  0.12821049  0.09385412  1
  O  O187  1  0.27656863  0.13165955  0.41821190  1
  O  O188  1  0.28377343  0.12605857  0.76112113  1
  O  O189  1  0.27695655  0.62946017  0.09314933  1
  O  O190  1  0.27563855  0.63373929  0.42237654  1
  O  O191  1  0.27676472  0.63050293  0.75944060  1
  O  O192  1  0.77845642  0.13113183  0.08799215  1
  O  O193  1  0.79050246  0.13193516  0.42010529  1
  O  O194  1  0.78434439  0.12988800  0.75764973  1
  O  O195  1  0.78792686  0.63433584  0.08799389  1
  O  O196  1  0.77385237  0.63734837  0.41693883  1
  O  O197  1  0.78122530  0.63216728  0.75564652  1
  O  O198  1  0.13025889  0.28154867  0.25756293  1
  O  O199  1  0.13096302  0.28435959  0.59617848  1
  O  O200  1  0.12923021  0.27949350  0.92774731  1
  O  O201  1  0.13302101  0.78230424  0.26142053  1
  O  O202  1  0.14628939  0.78833151  0.59506866  1
  O  O203  1  0.14191833  0.78738071  0.92702549  1
  O  O204  1  0.63306056  0.27653831  0.25290227  1
  O  O205  1  0.62082430  0.28518140  0.59321227  1
  O  O206  1  0.63616826  0.27287903  0.91733848  1
  O  O207  1  0.62533295  0.77252054  0.25187888  1
  O  O208  1  0.61849177  0.78130473  0.58749873  1
  O  O209  1  0.63346714  0.77554750  0.92999537  1
  O  O210  1  0.22041934  0.36906379  0.24529600  1
  O  O211  1  0.21593246  0.36871762  0.57272156  1
  O  O212  1  0.22164359  0.36304275  0.91255948  1
  O  O213  1  0.21922713  0.86964967  0.24297899  1
  O  O214  1  0.21369321  0.88136684  0.56291436  1
  O  O215  1  0.21901129  0.87655260  0.89982909  1
  O  O216  1  0.72017874  0.36996050  0.24278312  1
  O  O217  1  0.71060216  0.36431071  0.56769741  1
  O  O218  1  0.72969397  0.36384975  0.91489432  1
  O  O219  1  0.71506255  0.86721903  0.24600448  1
  O  O220  1  0.70696237  0.86748995  0.56703458  1
  O  O221  1  0.73141508  0.86185776  0.92387620  1
  O  O222  1  0.42398469  0.12987684  0.14975167  1
  O  O223  1  0.41336172  0.13349614  0.48275965  1
  O  O224  1  0.42215791  0.13217862  0.81828310  1
  O  O225  1  0.41502790  0.63421331  0.15324073  1
  O  O226  1  0.41276784  0.63537816  0.48681613  1
  O  O227  1  0.41413897  0.63711251  0.82086618  1
  O  O228  1  0.91627096  0.13479270  0.15385030  1
  O  O229  1  0.92711628  0.13213093  0.48177438  1
  O  O230  1  0.92213778  0.13555741  0.81328657  1
  O  O231  1  0.92533650  0.62897863  0.14723671  1
  O  O232  1  0.91001039  0.62932967  0.48106998  1
  O  O233  1  0.91665436  0.62387025  0.82085626  1
  O  O234  1  0.37066670  0.08118971  0.01464746  1
  O  O235  1  0.36622372  0.08057436  0.34596008  1
  O  O236  1  0.37162228  0.07475460  0.68419884  1
  O  O237  1  0.36349279  0.58248393  0.01644027  1
  O  O238  1  0.36572714  0.57965265  0.35051304  1
  O  O239  1  0.36593712  0.57642723  0.68544512  1
  O  O240  1  0.87078713  0.08147577  0.01788627  1
  O  O241  1  0.87549351  0.07539197  0.34525147  1
  O  O242  1  0.86786575  0.09483794  0.67578225  1
  O  O243  1  0.87400806  0.57960726  0.01227271  1
  O  O244  1  0.86467290  0.58719622  0.34473797  1
  O  O245  1  0.87588262  0.59308533  0.68606126  1
  O  O246  1  0.08328337  0.36838081  0.18064005  1
  O  O247  1  0.07719150  0.36337935  0.51229594  1
  O  O248  1  0.08459367  0.36474541  0.84795510  1
  O  O249  1  0.08143632  0.86725145  0.18292619  1
  O  O250  1  0.07609897  0.85916618  0.51020281  1
  O  O251  1  0.08046763  0.86529175  0.84477699  1
  O  O252  1  0.58193531  0.36875948  0.18501568  1
  O  O253  1  0.57240634  0.37117426  0.51392080  1
  O  O254  1  0.59306712  0.36414086  0.84502101  1
  O  O255  1  0.57798459  0.86622551  0.18263141  1
  O  O256  1  0.56915121  0.87292411  0.51575108  1
  O  O257  1  0.59661892  0.85887484  0.84887697  1
  O  O258  1  0.12881064  0.42002112  0.31665134  1
  O  O259  1  0.12840610  0.42294542  0.64791253  1
  O  O260  1  0.13167352  0.41764035  0.98429257  1
  O  O261  1  0.13209686  0.92033181  0.31915712  1
  O  O262  1  0.12897907  0.92499857  0.64438983  1
  O  O263  1  0.13524853  0.92470552  0.98048061  1
  O  O264  1  0.63488358  0.41259593  0.32248928  1
  O  O265  1  0.63019325  0.42400634  0.64799569  1
  O  O266  1  0.63415673  0.41079315  0.98076536  1
  O  O267  1  0.62347171  0.90929135  0.31839498  1
  O  O268  1  0.62817959  0.91917874  0.65072042  1
  O  O269  1  0.63286461  0.91448254  0.98413246  1
  O  O270  1  0.02971787  0.20217371  0.10501124  1
  O  O271  1  0.04658482  0.19917840  0.44000228  1
  O  O272  1  0.03266839  0.20604617  0.77049105  1
  O  O273  1  0.04140783  0.70297627  0.11362034  1
  O  O274  1  0.02688379  0.69961293  0.43536269  1
  O  O275  1  0.03010240  0.70556219  0.77412699  1
  O  O276  1  0.53084818  0.20022464  0.10129356  1
  O  O277  1  0.52450013  0.20399523  0.43666798  1
  O  O278  1  0.53279786  0.18595175  0.76742250  1
  O  O279  1  0.52060848  0.69855269  0.09869580  1
  O  O280  1  0.52448177  0.69947572  0.43385536  1
  O  O281  1  0.53198267  0.68341839  0.76711254  1
  O  O282  1  0.29657417  0.46683202  0.06304147  1
  O  O283  1  0.29679695  0.47013406  0.39664169  1
  O  O284  1  0.29190276  0.46750734  0.72912379  1
  O  O285  1  0.30046441  0.96729374  0.05962984  1
  O  O286  1  0.29921012  0.97073526  0.39246951  1
  O  O287  1  0.28689759  0.96720420  0.72128077  1
  O  O288  1  0.81870340  0.46940380  0.06562795  1
  O  O289  1  0.80176004  0.47184354  0.39132956  1
  O  O290  1  0.80149147  0.46956879  0.73056090  1
  O  O291  1  0.80249456  0.97363756  0.06794075  1
  O  O292  1  0.81864548  0.95390526  0.39574190  1
  O  O293  1  0.80139017  0.96303175  0.73550799  1
  O  O294  1  0.46736432  0.29723802  0.22798399  1
  O  O295  1  0.46000991  0.29332161  0.55326153  1
  O  O296  1  0.47223638  0.30038743  0.90073360  1
  O  O297  1  0.46344570  0.79816915  0.22638520  1
  O  O298  1  0.45735594  0.79762235  0.55370566  1
  O  O299  1  0.46922490  0.80416562  0.90020581  1
  O  O300  1  0.97358572  0.30381415  0.23122751  1
  O  O301  1  0.96797925  0.29963413  0.56012355  1
  O  O302  1  0.97148367  0.30255613  0.89625498  1
  O  O303  1  0.97062622  0.79728525  0.23375958  1
  O  O304  1  0.97605102  0.79984495  0.56965549  1
  O  O305  1  0.97865913  0.81840588  0.90389094  1
  O  O306  1  0.19776296  0.03083266  0.26625309  1
  O  O307  1  0.20748314  0.04238961  0.60651776  1
  O  O308  1  0.20696714  0.03845672  0.93929065  1
  O  O309  1  0.19874252  0.52999132  0.27250505  1
  O  O310  1  0.20906473  0.52737188  0.60731563  1
  O  O311  1  0.20493407  0.52302255  0.93875332  1
  O  O312  1  0.69694958  0.02828780  0.26343251  1
  O  O313  1  0.68421767  0.03740577  0.60596338  1
  O  O314  1  0.70106537  0.02606642  0.93541865  1
  O  O315  1  0.69895922  0.52743283  0.27529659  1
  O  O316  1  0.69364709  0.53694969  0.59865672  1
  O  O317  1  0.69956428  0.52786256  0.92894194  1
  O  O318  1  0.08393620  0.09003260  0.04156493  1
  O  O319  1  0.09115180  0.08794078  0.36284840  1
  O  O320  1  0.08650784  0.09273350  0.70710850  1
  O  O321  1  0.08484142  0.58474814  0.04418726  1
  O  O322  1  0.08573581  0.58978801  0.37609577  1
  O  O323  1  0.08868755  0.59270879  0.71816379  1
  O  O324  1  0.58331771  0.08761990  0.03554228  1
  O  O325  1  0.56603634  0.08530257  0.36915593  1
  O  O326  1  0.58737883  0.07888283  0.69917806  1
  O  O327  1  0.56967451  0.58540902  0.02792668  1
  O  O328  1  0.58572110  0.59153535  0.37273286  1
  O  O329  1  0.59082810  0.58357825  0.69233703  1
  O  O330  1  0.40413710  0.40684183  0.12699382  1
  O  O331  1  0.40973187  0.41541991  0.45932403  1
  O  O332  1  0.41096918  0.42278710  0.79548040  1
  O  O333  1  0.41088957  0.91522647  0.12983938  1
  O  O334  1  0.41228676  0.91809262  0.45840289  1
  O  O335  1  0.41062312  0.93214623  0.78476289  1
  O  O336  1  0.92487073  0.41685806  0.13779341  1
  O  O337  1  0.93116523  0.44521393  0.46225969  1
  O  O338  1  0.91210601  0.41514895  0.79630882  1
  O  O339  1  0.91474965  0.92042747  0.13511267  1
  O  O340  1  0.91842399  0.89841975  0.47457469  1
  O  O341  1  0.90510902  0.89583099  0.79436907  1
  O  O342  1  0.41023041  0.40852947  0.29123566  1
  O  O343  1  0.41327343  0.41000220  0.61961266  1
  O  O344  1  0.40938514  0.40683444  0.96023366  1
  O  O345  1  0.41055077  0.91022116  0.29309617  1
  O  O346  1  0.41472706  0.91766637  0.62160697  1
  O  O347  1  0.41350788  0.91470275  0.96232043  1
  O  O348  1  0.91969318  0.41688349  0.29576660  1
  O  O349  1  0.93803690  0.42331402  0.63218904  1
  O  O350  1  0.91472289  0.41191465  0.96216838  1
  O  O351  1  0.90933121  0.90340912  0.29539740  1
  O  O352  1  0.91762047  0.90594004  0.63818936  1
  O  O353  1  0.91571005  0.91632612  0.97593760  1
  O  O354  1  0.08674524  0.08754735  0.20120829  1
  O  O355  1  0.09755758  0.09905607  0.54357625  1
  O  O356  1  0.09607248  0.09578302  0.87895033  1
  O  O357  1  0.08494980  0.57961444  0.20468572  1
  O  O358  1  0.09199091  0.57488813  0.54531267  1
  O  O359  1  0.08496677  0.56600973  0.87432376  1
  O  O360  1  0.58724731  0.08419320  0.19956184  1
  O  O361  1  0.57321768  0.08166277  0.52838990  1
  O  O362  1  0.59322515  0.08603245  0.87026239  1
  O  O363  1  0.58647465  0.57853207  0.20619539  1
  O  O364  1  0.57848210  0.58062865  0.52494848  1
  O  O365  1  0.59098273  0.58678874  0.86934503  1
  O  O366  1  0.13856268  0.22206026  0.06041865  1
  O  O367  1  0.14298904  0.22265361  0.38403866  1
  O  O368  1  0.14235102  0.22464594  0.72668747  1
  O  O369  1  0.13817688  0.71539542  0.05476241  1
  O  O370  1  0.13683134  0.72365989  0.39354507  1
  O  O371  1  0.13439332  0.72357380  0.72400516  1
  O  O372  1  0.64114675  0.22086258  0.05867579  1
  O  O373  1  0.63235510  0.21315320  0.38735281  1
  O  O374  1  0.63948714  0.21460730  0.72302596  1
  O  O375  1  0.63343432  0.71909854  0.06093581  1
  O  O376  1  0.63643531  0.72672926  0.39599205  1
  O  O377  1  0.63769369  0.72142534  0.72695998  1
  O  O378  1  0.26987183  0.35987555  0.10710990  1
  O  O379  1  0.27698015  0.36205255  0.44131025  1
  O  O380  1  0.28057373  0.36206659  0.77852917  1
  O  O381  1  0.27611679  0.86041826  0.10547620  1
  O  O382  1  0.27936343  0.86477138  0.43992680  1
  O  O383  1  0.28703349  0.86269159  0.77546336  1
  O  O384  1  0.78878423  0.36295086  0.11020831  1
  O  O385  1  0.81694229  0.36537363  0.44600391  1
  O  O386  1  0.77687616  0.36148058  0.77348977  1
  O  O387  1  0.78099525  0.85982406  0.10567723  1
  O  O388  1  0.78004960  0.85681157  0.44412897  1
  O  O389  1  0.77005020  0.86218099  0.78541196  1
  O  O390  1  0.35891782  0.27468682  0.27135043  1
  O  O391  1  0.35870729  0.28066233  0.60747379  1
  O  O392  1  0.36361474  0.27243195  0.94220434  1
  O  O393  1  0.35797180  0.77629022  0.27408455  1
  O  O394  1  0.35873280  0.78893705  0.61231375  1
  O  O395  1  0.35967298  0.78121029  0.94432609  1
  O  O396  1  0.85963900  0.28364483  0.26795114  1
  O  O397  1  0.86475703  0.29863320  0.61567677  1
  O  O398  1  0.86444922  0.27597349  0.94022801  1
  O  O399  1  0.85840684  0.76848746  0.27098543  1
  O  O400  1  0.86148632  0.77047555  0.60218564  1
  O  O401  1  0.86746018  0.77801475  0.93630668  1
  O  O402  1  0.22082442  0.13819789  0.22126615  1
  O  O403  1  0.23062653  0.14617857  0.55735053  1
  O  O404  1  0.22810974  0.14255510  0.89033980  1
  O  O405  1  0.21753381  0.63756768  0.22667837  1
  O  O406  1  0.22137059  0.63557790  0.56019982  1
  O  O407  1  0.21341216  0.63218600  0.89245411  1
  O  O408  1  0.72095618  0.13403240  0.21542922  1
  O  O409  1  0.70659402  0.14039381  0.55603590  1
  O  O410  1  0.72974035  0.13596056  0.89580737  1
  O  O411  1  0.71808097  0.63896007  0.23478992  1
  O  O412  1  0.71073625  0.63978681  0.54580979  1
  O  O413  1  0.72482719  0.64075763  0.89203211  1
  O  O414  1  0.49059945  0.33398444  0.03369507  1
  O  O415  1  0.48870566  0.33361595  0.36139575  1
  O  O416  1  0.49322123  0.33162370  0.68874776  1
  O  O417  1  0.48930420  0.83901446  0.03424732  1
  O  O418  1  0.48873053  0.83299610  0.36097894  1
  O  O419  1  0.49485709  0.84115081  0.69007725  1
  O  O420  1  0.99311684  0.33348920  0.02982184  1
  O  O421  1  0.98734473  0.33137857  0.36278144  1
  O  O422  1  0.99931483  0.33409638  0.69637113  1
  O  O423  1  0.99425239  0.83122885  0.03254350  1
  O  O424  1  0.98525554  0.82349912  0.36588786  1
  O  O425  1  0.98739080  0.81757564  0.69923527  1
  O  O426  1  0.16375898  0.00802841  0.13249636  1
  O  O427  1  0.17084405  0.01585545  0.47215124  1
  O  O428  1  0.16723278  0.01264203  0.80459759  1
  O  O429  1  0.16732646  0.50570365  0.13838401  1
  O  O430  1  0.17048445  0.50474291  0.47221387  1
  O  O431  1  0.16763895  0.50106554  0.80392145  1
  O  O432  1  0.66150395  0.00392662  0.12901458  1
  O  O433  1  0.66021083  0.00586619  0.47241386  1
  O  O434  1  0.67277846  0.00795213  0.80317655  1
  O  O435  1  0.67492400  0.50856058  0.14393364  1
  O  O436  1  0.66337556  0.50501468  0.46460413  1
  O  O437  1  0.67015765  0.51309859  0.79725396  1
  O  O438  1  0.00895500  0.16899483  0.30429492  1
  O  O439  1  0.01090001  0.17050956  0.63740760  1
  O  O440  1  0.00825346  0.16967040  0.97141675  1
  O  O441  1  0.00887700  0.66219572  0.30132464  1
  O  O442  1  0.00452664  0.65609780  0.63837510  1
  O  O443  1  0.00287125  0.66032366  0.97678846  1
  O  O444  1  0.50035751  0.16921661  0.30149859  1
  O  O445  1  0.50920068  0.16127588  0.63527660  1
  O  O446  1  0.51125761  0.17027274  0.96803866  1
  O  O447  1  0.50960781  0.66992346  0.30215883  1
  O  O448  1  0.50859889  0.66762667  0.63632995  1
  O  O449  1  0.50477749  0.67641631  0.96726442  1
  O  O450  1  0.32803368  0.48938217  0.19609867  1
  O  O451  1  0.33315446  0.49254023  0.53071819  1
  O  O452  1  0.32882915  0.49390370  0.86444399  1
  O  O453  1  0.32718357  0.99156348  0.19271676  1
  O  O454  1  0.33358952  0.99645641  0.52648092  1
  O  O455  1  0.33032987  0.99607984  0.85811536  1
  O  O456  1  0.84135473  0.49393403  0.19837928  1
  O  O457  1  0.84050291  0.50376062  0.52662658  1
  O  O458  1  0.83453863  0.49077019  0.86494361  1
  O  O459  1  0.82965174  0.98901080  0.19992309  1
  O  O460  1  0.83913005  0.98891668  0.52824570  1
  O  O461  1  0.84077598  0.98784867  0.86940874  1
