# generated using pymatgen
data_Na31Fe20(SO4)36
_symmetry_space_group_name_H-M   'P 1'
_cell_length_a   18.08667851
_cell_length_b   18.08631709
_cell_length_c   19.72823651
_cell_angle_alpha   107.55760499
_cell_angle_beta   107.57540275
_cell_angle_gamma   90.72293415
_symmetry_Int_Tables_number   1
_chemical_formula_structural   Na31Fe20(SO4)36
_chemical_formula_sum   'Na62 Fe40 S72 O288'
_cell_volume   5827.36268964
_cell_formula_units_Z   2
loop_
 _symmetry_equiv_pos_site_id
 _symmetry_equiv_pos_as_xyz
  1  'x, y, z'
loop_
 _atom_site_type_symbol
 _atom_site_label
 _atom_site_symmetry_multiplicity
 _atom_site_fract_x
 _atom_site_fract_y
 _atom_site_fract_z
 _atom_site_occupancy
  Na  Na0  1  0.11734198  0.37380980  0.08223820  1
  Na  Na1  1  0.12746378  0.36561135  0.41246726  1
  Na  Na2  1  0.13362093  0.36454809  0.74905886  1
  Na  Na3  1  0.13236617  0.87162757  0.08720455  1
  Na  Na4  1  0.13347771  0.85774582  0.41331107  1
  Na  Na5  1  0.13566333  0.85722752  0.73901488  1
  Na  Na6  1  0.64581560  0.37037712  0.08577718  1
  Na  Na7  1  0.63169653  0.36332722  0.41213562  1
  Na  Na8  1  0.62366572  0.36352522  0.74467867  1
  Na  Na9  1  0.64042014  0.86448241  0.09351562  1
  Na  Na10  1  0.66382135  0.86751879  0.44187761  1
  Na  Na11  1  0.63706449  0.85045824  0.72836110  1
  Na  Na12  1  0.36631079  0.13302680  0.24745665  1
  Na  Na13  1  0.37115919  0.13471324  0.58902577  1
  Na  Na14  1  0.37137151  0.13221251  0.91348144  1
  Na  Na15  1  0.37381703  0.63317781  0.25775162  1
  Na  Na16  1  0.35521569  0.66361069  0.59095806  1
  Na  Na17  1  0.36509894  0.63153552  0.91365305  1
  Na  Na18  1  0.85864353  0.12345421  0.24197573  1
  Na  Na19  1  0.86427796  0.12795949  0.58305732  1
  Na  Na20  1  0.87325277  0.13647206  0.92851075  1
  Na  Na21  1  0.86116795  0.64002993  0.25083812  1
  Na  Na22  1  0.80292734  0.65776912  0.55487878  1
  Na  Na23  1  0.87067922  0.63002607  0.92025242  1
  Na  Na24  1  0.98581737  0.51356755  0.74833840  1
  Na  Na25  1  0.50452604  0.00703173  0.05632628  1
  Na  Na26  1  0.94833507  0.00287061  0.73883894  1
  Na  Na27  1  0.95628971  0.00689158  0.40146136  1
  Na  Na28  1  0.54707368  0.66813230  0.53561584  1
  Na  Na29  1  0.52215504  0.49272726  0.06769920  1
  Na  Na30  1  0.52102968  -0.01993622  0.41515555  1
  Na  Na31  1  0.49744768  -0.00118168  0.77596671  1
  Na  Na32  1  0.98192722  0.51031403  0.41847268  1
  Na  Na33  1  0.51939407  0.99234999  0.24349156  1
  Na  Na34  1  0.48402134  0.50610652  0.59894320  1
  Na  Na35  1  0.00310800  0.98074574  0.93057159  1
  Na  Na36  1  -0.00219523  0.99037018  0.23501037  1
  Na  Na37  1  0.00617449  0.98531092  0.58254394  1
  Na  Na38  1  0.52690916  0.47231927  0.88998846  1
  Na  Na39  1  -0.01424888  0.54229385  0.19123303  1
  Na  Na40  1  0.56453332  0.50609458  0.28186614  1
  Na  Na41  1  0.51031360  0.98417292  0.59108390  1
  Na  Na42  1  0.24429229  0.74730863  0.00036426  1
  Na  Na43  1  0.75825714  0.25510129  0.32880801  1
  Na  Na44  1  0.25668552  0.25947074  0.32881247  1
  Na  Na45  1  0.74188496  0.73610201  0.35112479  1
  Na  Na46  1  0.76599473  0.26049294  -0.00277748  1
  Na  Na47  1  0.23189747  0.73441537  0.34317844  1
  Na  Na48  1  0.26721755  0.26064134  0.66333150  1
  Na  Na49  1  0.25187379  0.25291453  -0.00229944  1
  Na  Na50  1  0.74942296  0.24695069  0.66728034  1
  Na  Na51  1  0.74409295  0.73741475  0.00509172  1
  Na  Na52  1  0.26409354  0.25708167  0.82630884  1
  Na  Na53  1  0.25841573  0.75687593  0.82354957  1
  Na  Na54  1  0.24928323  0.25587552  0.16348276  1
  Na  Na55  1  0.77156203  0.26084639  0.15883269  1
  Na  Na56  1  0.75183330  0.25112819  0.49623819  1
  Na  Na57  1  0.75395003  0.75388585  0.82304582  1
  Na  Na58  1  0.25360755  0.25615297  0.49515416  1
  Na  Na59  1  0.74793270  0.74760813  0.17313304  1
  Na  Na60  1  0.74918479  0.25219633  0.83349051  1
  Na  Na61  1  0.23179726  0.73621743  0.17623923  1
  Fe  Fe62  1  0.46483031  0.80637480  0.78289764  1
  Fe  Fe63  1  0.46124407  0.80648504  0.11708601  1
  Fe  Fe64  1  0.96251226  0.80214428  0.77701946  1
  Fe  Fe65  1  0.96722603  0.80297138  0.44651844  1
  Fe  Fe66  1  0.96431675  0.31538971  0.46106551  1
  Fe  Fe67  1  0.46794980  0.30790698  0.11963256  1
  Fe  Fe68  1  0.46555918  0.30772915  0.45356808  1
  Fe  Fe69  1  0.46180884  0.80800824  0.45316834  1
  Fe  Fe70  1  0.96328928  0.31788530  0.79582197  1
  Fe  Fe71  1  0.97075819  0.79670220  0.12222694  1
  Fe  Fe72  1  0.70333596  0.02915357  0.70925519  1
  Fe  Fe73  1  0.18949789  0.53627310  0.71200669  1
  Fe  Fe74  1  0.19070081  0.53313388  0.04607517  1
  Fe  Fe75  1  0.70806879  0.02325495  0.37756066  1
  Fe  Fe76  1  0.18943254  0.53783786  0.38153549  1
  Fe  Fe77  1  0.19120649  0.03757249  0.38008495  1
  Fe  Fe78  1  0.68756363  0.53533675  0.71502000  1
  Fe  Fe79  1  0.19307394  0.03343474  0.71469575  1
  Fe  Fe80  1  0.69550986  0.02907930  0.04526162  1
  Fe  Fe81  1  0.19345082  0.03581025  0.04729385  1
  Fe  Fe82  1  0.03507730  0.19356758  0.54894805  1
  Fe  Fe83  1  0.53589901  0.68634910  0.87782159  1
  Fe  Fe84  1  0.53596406  0.19060650  0.21128850  1
  Fe  Fe85  1  0.03863425  0.69116761  0.54851670  1
  Fe  Fe86  1  0.53610103  0.19620887  0.87502479  1
  Fe  Fe87  1  0.03291683  0.19626276  0.88326552  1
  Fe  Fe88  1  0.53356787  0.19047946  0.54545360  1
  Fe  Fe89  1  0.03069393  0.20207988  0.21235782  1
  Fe  Fe90  1  0.53217970  0.68854858  0.21086978  1
  Fe  Fe91  1  0.03457336  0.69294169  0.87947783  1
  Fe  Fe92  1  0.79828484  0.46994283  0.28794899  1
  Fe  Fe93  1  0.80964895  0.95965188  0.95513634  1
  Fe  Fe94  1  0.80176050  0.46653148  0.61682645  1
  Fe  Fe95  1  0.30704853  0.96197328  0.61794700  1
  Fe  Fe96  1  0.31350353  0.46757758  0.29262556  1
  Fe  Fe97  1  0.30794306  0.46593751  0.62348631  1
  Fe  Fe98  1  0.30884880  0.46407706  0.95339729  1
  Fe  Fe99  1  0.80355284  0.46811022  0.96414486  1
  Fe  Fe100  1  0.30390333  0.96640199  0.94822965  1
  Fe  Fe101  1  0.30789724  0.96919595  0.28473016  1
  S  S102  1  0.36170283  0.14024185  0.08156037  1
  S  S103  1  0.35860783  0.14097021  0.41581835  1
  S  S104  1  0.35887508  0.13583609  0.75050539  1
  S  S105  1  0.35597334  0.64076988  0.08226385  1
  S  S106  1  0.35480035  0.64423453  0.41817266  1
  S  S107  1  0.35950812  0.64048370  0.74910543  1
  S  S108  1  0.86067921  0.13380365  0.08591026  1
  S  S109  1  0.86167943  0.14577068  0.41866133  1
  S  S110  1  0.86170435  0.14516326  0.75300926  1
  S  S111  1  0.85637057  0.64038138  0.08018842  1
  S  S112  1  0.86187142  0.64009061  0.41700262  1
  S  S113  1  0.85944544  0.63801211  0.75163266  1
  S  S114  1  0.14623322  0.36117733  0.25502267  1
  S  S115  1  0.14140936  0.35783458  0.58636161  1
  S  S116  1  0.14282701  0.35800730  0.91651447  1
  S  S117  1  0.14387645  0.86485109  0.24855716  1
  S  S118  1  0.13991709  0.86147935  0.58136767  1
  S  S119  1  0.13866691  0.85985877  0.91427744  1
  S  S120  1  0.64203648  0.35322191  0.24737476  1
  S  S121  1  0.63902176  0.35486850  0.58343653  1
  S  S122  1  0.64206945  0.35650862  0.91730363  1
  S  S123  1  0.63491207  0.85749275  0.24993988  1
  S  S124  1  0.63178394  0.86473260  0.57919619  1
  S  S125  1  0.63819209  0.85779061  0.91535907  1
  S  S126  1  0.07246010  0.16945263  0.04247840  1
  S  S127  1  0.06590955  0.17053016  0.37591666  1
  S  S128  1  0.06903372  0.17012726  0.71182722  1
  S  S129  1  0.07405931  0.67453290  0.04160786  1
  S  S130  1  0.06092257  0.66297749  0.37425778  1
  S  S131  1  0.06750861  0.66839645  0.71078222  1
  S  S132  1  0.57318780  0.17222076  0.04155855  1
  S  S133  1  0.56587591  0.16329129  0.37318635  1
  S  S134  1  0.57174905  0.16315446  0.70625893  1
  S  S135  1  0.55846325  0.66976725  0.03930907  1
  S  S136  1  0.56445077  0.67929239  0.37794866  1
  S  S137  1  0.56311915  0.66965748  0.71178035  1
  S  S138  1  0.33312427  0.43198712  0.12586120  1
  S  S139  1  0.32850605  0.43245685  0.45939262  1
  S  S140  1  0.32891231  0.43539930  0.79080300  1
  S  S141  1  0.33024251  0.93571504  0.12160943  1
  S  S142  1  0.32918765  0.93420142  0.45443273  1
  S  S143  1  0.32865518  0.93057541  0.79092407  1
  S  S144  1  0.83153335  0.43559660  0.12732689  1
  S  S145  1  0.82911016  0.43343760  0.45932938  1
  S  S146  1  0.82297862  0.43154586  0.79314453  1
  S  S147  1  0.83044888  0.92280293  0.12180974  1
  S  S148  1  0.84165077  0.93537279  0.45775175  1
  S  S149  1  0.83340924  0.93184352  0.79605239  1
  S  S150  1  0.43232511  0.32497252  0.28803579  1
  S  S151  1  0.43226452  0.32544264  0.62117054  1
  S  S152  1  0.43492751  0.32778891  0.95736018  1
  S  S153  1  0.42628264  0.83197102  0.28763940  1
  S  S154  1  0.43229396  0.84454093  0.62982529  1
  S  S155  1  0.42986645  0.83126789  0.95696917  1
  S  S156  1  0.92862608  0.32848802  0.29503816  1
  S  S157  1  0.93051934  0.33005814  0.62851375  1
  S  S158  1  0.92834312  0.33025521  0.95863399  1
  S  S159  1  0.94205572  0.82954434  0.28595433  1
  S  S160  1  0.94054422  0.82955415  0.62261518  1
  S  S161  1  0.93386287  0.82474235  0.95737347  1
  S  S162  1  0.17055028  0.07492994  0.21055447  1
  S  S163  1  0.16806803  0.07005704  0.54190878  1
  S  S164  1  0.16873102  0.06815933  0.87566942  1
  S  S165  1  0.18044714  0.56617857  0.21303832  1
  S  S166  1  0.17028238  0.56454143  0.54294293  1
  S  S167  1  0.16951116  0.56531391  0.87442885  1
  S  S168  1  0.66296489  0.06378125  0.20607106  1
  S  S169  1  0.67328916  0.07258320  0.53970433  1
  S  S170  1  0.67772215  0.06873408  0.87612186  1
  S  S171  1  0.66635583  0.56451600  0.20444216  1
  S  S172  1  0.65111866  0.54603252  0.54465946  1
  S  S173  1  0.67195555  0.56272421  0.87656612  1
  O  O174  1  0.37098024  0.21935151  0.07397961  1
  O  O175  1  0.36683648  0.22034350  0.40815134  1
  O  O176  1  0.36302685  0.21387788  0.74396993  1
  O  O177  1  0.36452149  0.71946686  0.07287152  1
  O  O178  1  0.36513629  0.72239934  0.40650757  1
  O  O179  1  0.36950071  0.71969805  0.74212637  1
  O  O180  1  0.86105823  0.21022326  0.07486448  1
  O  O181  1  0.86880890  0.22929604  0.42079708  1
  O  O182  1  0.86995522  0.22665738  0.74982794  1
  O  O183  1  0.87934424  0.71325853  0.06438103  1
  O  O184  1  0.87502382  0.71608417  0.40250584  1
  O  O185  1  0.86882297  0.71744609  0.74567708  1
  O  O186  1  0.28283117  0.13181871  0.08965778  1
  O  O187  1  0.27940847  0.13225793  0.42381827  1
  O  O188  1  0.28361214  0.12261303  0.76624860  1
  O  O189  1  0.27625731  0.63170076  0.08836266  1
  O  O190  1  0.27099402  0.63398082  0.41436563  1
  O  O191  1  0.28058018  0.63148909  0.75756202  1
  O  O192  1  0.78438607  0.11788383  0.09925519  1
  O  O193  1  0.78127270  0.13097323  0.42167498  1
  O  O194  1  0.78180254  0.13372361  0.75842015  1
  O  O195  1  0.77633344  0.64529754  0.08219480  1
  O  O196  1  0.78540554  0.63720789  0.42725353  1
  O  O197  1  0.78214973  0.62943156  0.76253985  1
  O  O198  1  0.13152845  0.28316296  0.26535469  1
  O  O199  1  0.13169259  0.27955066  0.59666685  1
  O  O200  1  0.13185322  0.27830171  0.92254766  1
  O  O201  1  0.14536862  0.78727042  0.25641690  1
  O  O202  1  0.13272804  0.78518798  0.59296243  1
  O  O203  1  0.13154058  0.78051866  0.92150438  1
  O  O204  1  0.63262037  0.27170484  0.25106679  1
  O  O205  1  0.62947697  0.27650115  0.59359733  1
  O  O206  1  0.63684624  0.27410457  0.92008158  1
  O  O207  1  0.62245596  0.77744828  0.25482876  1
  O  O208  1  0.61425372  0.79055914  0.58918395  1
  O  O209  1  0.62912383  0.77966759  0.92539567  1
  O  O210  1  0.23086688  0.36447886  0.25673050  1
  O  O211  1  0.22224255  0.36533321  0.58145210  1
  O  O212  1  0.22252052  0.36543982  0.90872004  1
  O  O213  1  0.21709546  0.88246069  0.23173794  1
  O  O214  1  0.21657854  0.87457366  0.57114666  1
  O  O215  1  0.21766538  0.87032653  0.90667044  1
  O  O216  1  0.72147706  0.36273496  0.24047922  1
  O  O217  1  0.72035401  0.36356393  0.58051774  1
  O  O218  1  0.72788609  0.36945071  0.92207933  1
  O  O219  1  0.70783102  0.86580996  0.23481238  1
  O  O220  1  0.70560128  0.87357496  0.56627398  1
  O  O221  1  0.71676700  0.86601023  0.90618299  1
  O  O222  1  0.42051449  0.13159682  0.14918599  1
  O  O223  1  0.41685862  0.13204725  0.48329202  1
  O  O224  1  0.42331925  0.12518656  0.81443639  1
  O  O225  1  0.41364896  0.63437367  0.15118914  1
  O  O226  1  0.40648066  0.64245165  0.49037709  1
  O  O227  1  0.41774571  0.63221224  0.81740390  1
  O  O228  1  0.92317555  0.13127499  0.15442998  1
  O  O229  1  0.91918015  0.13567722  0.48755807  1
  O  O230  1  0.91904545  0.13563515  0.82233714  1
  O  O231  1  0.90997181  0.63053792  0.14781353  1
  O  O232  1  0.92375364  0.63115239  0.48311473  1
  O  O233  1  0.92068855  0.62851588  0.81875894  1
  O  O234  1  0.37013441  0.08116508  0.01363658  1
  O  O235  1  0.36653766  0.08332908  0.34710029  1
  O  O236  1  0.36115237  0.07676919  0.67966035  1
  O  O237  1  0.36495355  0.58133848  0.01499088  1
  O  O238  1  0.36958289  0.58366144  0.35427371  1
  O  O239  1  0.36671465  0.58179543  0.68066166  1
  O  O240  1  0.86918003  0.07311469  0.01917816  1
  O  O241  1  0.87449847  0.09377738  0.35154786  1
  O  O242  1  0.87330086  0.08945174  0.68699108  1
  O  O243  1  0.86072958  0.57533034  0.01153650  1
  O  O244  1  0.86740015  0.57754956  0.34892795  1
  O  O245  1  0.86752620  0.57837770  0.68430215  1
  O  O246  1  0.09498734  0.36775288  0.18573616  1
  O  O247  1  0.08524172  0.36155827  0.51551313  1
  O  O248  1  0.08465050  0.36709425  0.84903870  1
  O  O249  1  0.07761295  0.87202616  0.18372692  1
  O  O250  1  0.07854350  0.86967567  0.51430286  1
  O  O251  1  0.07868437  0.86856708  0.84765871  1
  O  O252  1  0.58412350  0.36249028  0.17874648  1
  O  O253  1  0.58378477  0.35603501  0.51089844  1
  O  O254  1  0.59233523  0.36326440  0.84625818  1
  O  O255  1  0.56945153  0.87169026  0.18739845  1
  O  O256  1  0.56692140  0.88014613  0.51432190  1
  O  O257  1  0.57886591  0.86557698  0.84772104  1
  O  O258  1  0.13799927  0.42148508  0.32244999  1
  O  O259  1  0.13124545  0.41777556  0.65196481  1
  O  O260  1  0.13794714  0.41574966  0.98595925  1
  O  O261  1  0.13782481  0.92348698  0.31815629  1
  O  O262  1  0.13116628  0.92312670  0.64899370  1
  O  O263  1  0.13099570  0.91842113  0.98335172  1
  O  O264  1  0.63244779  0.40870804  0.31433599  1
  O  O265  1  0.62560897  0.41480274  0.64724453  1
  O  O266  1  0.62379592  0.41029843  0.98080633  1
  O  O267  1  0.63203565  0.91497697  0.32216559  1
  O  O268  1  0.62741146  0.92825606  0.64897896  1
  O  O269  1  0.63164766  0.91791486  0.98394115  1
  O  O270  1  0.04222209  0.19298516  0.10565809  1
  O  O271  1  0.03083592  0.19856698  0.43817058  1
  O  O272  1  0.03236630  0.19810130  0.77225717  1
  O  O273  1  0.03965586  0.70498310  0.10226812  1
  O  O274  1  0.03508192  0.70220245  0.44221538  1
  O  O275  1  0.02734807  0.69926448  0.76972661  1
  O  O276  1  0.53163638  0.19916808  0.09937601  1
  O  O277  1  0.52771122  0.19510499  0.43243038  1
  O  O278  1  0.53450699  0.18525230  0.76501715  1
  O  O279  1  0.52224394  0.70305589  0.10126537  1
  O  O280  1  0.52265131  0.71584351  0.43320961  1
  O  O281  1  0.52938968  0.70313017  0.77570932  1
  O  O282  1  0.30245880  0.46827783  0.06441408  1
  O  O283  1  0.30095946  0.47249494  0.40162862  1
  O  O284  1  0.29351729  0.47247426  0.73012042  1
  O  O285  1  0.29987828  0.97210390  0.06033979  1
  O  O286  1  0.30121116  0.97368083  0.39550632  1
  O  O287  1  0.29642556  0.96313252  0.72757014  1
  O  O288  1  0.80200114  0.47138739  0.06537045  1
  O  O289  1  0.80402419  0.46486653  0.39645765  1
  O  O290  1  0.79272808  0.46934502  0.73358378  1
  O  O291  1  0.79829993  0.95327066  0.05562917  1
  O  O292  1  0.81108426  0.96900937  0.39482921  1
  O  O293  1  0.80695711  0.97024679  0.73779873  1
  O  O294  1  0.47147051  0.29643817  0.22851288  1
  O  O295  1  0.46616259  0.29462365  0.55651199  1
  O  O296  1  0.47057691  0.29700186  0.89829107  1
  O  O297  1  0.46035358  0.79802012  0.22614645  1
  O  O298  1  0.45643199  0.81862016  0.56211477  1
  O  O299  1  0.46514361  0.80220354  0.89610894  1
  O  O300  1  0.96680707  0.30133020  0.23716739  1
  O  O301  1  0.97150975  0.30380123  0.57072027  1
  O  O302  1  0.96778028  0.30464504  0.89719991  1
  O  O303  1  0.97331717  0.79077977  0.22354700  1
  O  O304  1  0.97381224  0.79157990  0.56008696  1
  O  O305  1  0.97233578  0.79799817  0.89722147  1
  O  O306  1  0.20325861  0.04016380  0.27253419  1
  O  O307  1  0.19836231  0.03591779  0.60417463  1
  O  O308  1  0.19987579  0.03154249  0.93719114  1
  O  O309  1  0.20964621  0.52366039  0.27013431  1
  O  O310  1  0.19920798  0.52669285  0.60417762  1
  O  O311  1  0.19792801  0.52765521  0.93469756  1
  O  O312  1  0.67867517  0.02974563  0.26727176  1
  O  O313  1  0.70155227  0.04542133  0.60462318  1
  O  O314  1  0.70422364  0.03079503  0.93668925  1
  O  O315  1  0.69416296  0.52942807  0.26613768  1
  O  O316  1  0.70417422  0.52679633  0.61485914  1
  O  O317  1  0.70163956  0.52152958  0.93262823  1
  O  O318  1  0.09048132  0.08579359  0.02770313  1
  O  O319  1  0.08205377  0.08730193  0.36727582  1
  O  O320  1  0.08595197  0.08744232  0.70340750  1
  O  O321  1  0.09754602  0.59644155  0.04106860  1
  O  O322  1  0.08536589  0.58547490  0.38145477  1
  O  O323  1  0.08424286  0.58753344  0.71099638  1
  O  O324  1  0.59204295  0.09111784  0.03790166  1
  O  O325  1  0.58304698  0.08196000  0.36963007  1
  O  O326  1  0.59519653  0.08254587  0.69742508  1
  O  O327  1  0.56567533  0.58711510  0.02927841  1
  O  O328  1  0.58315676  0.60379838  0.38638030  1
  O  O329  1  0.58264350  0.58960758  0.71196863  1
  O  O330  1  0.41387113  0.41307009  0.12876230  1
  O  O331  1  0.40756696  0.40889853  0.46134641  1
  O  O332  1  0.40841302  0.42121853  0.79396943  1
  O  O333  1  0.41231586  0.91886297  0.12739166  1
  O  O334  1  0.41130206  0.91590216  0.45869020  1
  O  O335  1  0.40976138  0.91235835  0.79464866  1
  O  O336  1  0.91297563  0.42331629  0.13893257  1
  O  O337  1  0.91289365  0.41720629  0.47130974  1
  O  O338  1  0.90523000  0.41764974  0.79675200  1
  O  O339  1  0.90891742  0.89602638  0.12183176  1
  O  O340  1  0.92312981  0.91422360  0.45713618  1
  O  O341  1  0.91572310  0.91238581  0.79943958  1
  O  O342  1  0.41177917  0.40439152  0.29143581  1
  O  O343  1  0.40831610  0.40443124  0.62068184  1
  O  O344  1  0.41442048  0.40913121  0.96078354  1
  O  O345  1  0.41508210  0.91602071  0.29218221  1
  O  O346  1  0.42309015  0.93163592  0.64581465  1
  O  O347  1  0.40844982  0.91208783  0.96109827  1
  O  O348  1  0.90314950  0.40723726  0.29899897  1
  O  O349  1  0.90770077  0.40978419  0.63297403  1
  O  O350  1  0.89633986  0.40586773  0.95588786  1
  O  O351  1  0.94063633  0.91320964  0.29300789  1
  O  O352  1  0.93722862  0.91245610  0.62802412  1
  O  O353  1  0.91721956  0.90670610  0.96339433  1
  O  O354  1  0.09123026  0.09460087  0.20963180  1
  O  O355  1  0.08496375  0.08495930  0.53518292  1
  O  O356  1  0.08775666  0.08637615  0.87127267  1
  O  O357  1  0.10592506  0.59270219  0.21604255  1
  O  O358  1  0.08843615  0.58208849  0.53756754  1
  O  O359  1  0.08861555  0.58527032  0.86820129  1
  O  O360  1  0.57783594  0.08028314  0.18764586  1
  O  O361  1  0.58811869  0.08545421  0.52569920  1
  O  O362  1  0.59693363  0.08974840  0.87017946  1
  O  O363  1  0.58360875  0.58406194  0.20209360  1
  O  O364  1  0.57056651  0.54142868  0.54740819  1
  O  O365  1  0.59249428  0.58388630  0.87860126  1
  O  O366  1  0.14313794  0.22138067  0.05543122  1
  O  O367  1  0.13858124  0.22152710  0.39383424  1
  O  O368  1  0.14098667  0.22166325  0.72880633  1
  O  O369  1  0.14302219  0.72950744  0.05436101  1
  O  O370  1  0.12669015  0.71403721  0.37804143  1
  O  O371  1  0.13962628  0.72007839  0.73089375  1
  O  O372  1  0.64454749  0.22526435  0.06140997  1
  O  O373  1  0.63681844  0.21546392  0.38862525  1
  O  O374  1  0.63986390  0.21967840  0.72223094  1
  O  O375  1  0.63279011  0.71884974  0.05916811  1
  O  O376  1  0.63293969  0.73222387  0.38957373  1
  O  O377  1  0.63381788  0.72094938  0.72615507  1
  O  O378  1  0.28040881  0.36070903  0.10951810  1
  O  O379  1  0.27272851  0.36294742  0.44218788  1
  O  O380  1  0.27657674  0.36290906  0.77342936  1
  O  O381  1  0.27886903  0.86460109  0.10518002  1
  O  O382  1  0.27652172  0.86402103  0.43669423  1
  O  O383  1  0.27770688  0.86184743  0.78113388  1
  O  O384  1  0.77970255  0.36169084  0.10669518  1
  O  O385  1  0.77830740  0.36026116  0.44334012  1
  O  O386  1  0.77290602  0.35790276  0.77438732  1
  O  O387  1  0.77512312  0.85542183  0.11014720  1
  O  O388  1  0.79134841  0.86421197  0.44381427  1
  O  O389  1  0.78128401  0.86238069  0.78202465  1
  O  O390  1  0.36225919  0.26955350  0.26908003  1
  O  O391  1  0.36102916  0.27090729  0.60304011  1
  O  O392  1  0.36374277  0.27601914  0.94433321  1
  O  O393  1  0.35263853  0.78577422  0.27380120  1
  O  O394  1  0.36025689  0.80088310  0.62200292  1
  O  O395  1  0.35973304  0.77841163  0.94318219  1
  O  O396  1  0.86057225  0.27111639  0.27967602  1
  O  O397  1  0.86192798  0.27338709  0.60970501  1
  O  O398  1  0.86202031  0.26963222  0.93844312  1
  O  O399  1  0.86501598  0.78845493  0.27210336  1
  O  O400  1  0.86623844  0.78741818  0.61114294  1
  O  O401  1  0.86135930  0.77319837  0.93729211  1
  O  O402  1  0.22413494  0.14426615  0.22318667  1
  O  O403  1  0.21815773  0.14236294  0.55701108  1
  O  O404  1  0.22191847  0.13860450  0.89198339  1
  O  O405  1  0.23920142  0.63344607  0.23045475  1
  O  O406  1  0.22187369  0.63421116  0.55857797  1
  O  O407  1  0.22327610  0.63584361  0.89162835  1
  O  O408  1  0.71622932  0.13471834  0.22596735  1
  O  O409  1  0.72117978  0.14526405  0.55103843  1
  O  O410  1  0.73244459  0.13881273  0.89471262  1
  O  O411  1  0.71727437  0.63765890  0.22247027  1
  O  O412  1  0.67932228  0.62649157  0.55429894  1
  O  O413  1  0.72436797  0.63362386  0.89230136  1
  O  O414  1  0.49374966  0.33571052  0.03264061  1
  O  O415  1  0.48991568  0.32609152  0.36074394  1
  O  O416  1  0.49139776  0.32858049  0.69040699  1
  O  O417  1  0.49001832  0.83822468  0.03076596  1
  O  O418  1  0.48491985  0.83520087  0.36094671  1
  O  O419  1  0.49688906  0.84003532  0.69748311  1
  O  O420  1  0.98729679  0.33845486  0.02939367  1
  O  O421  1  0.98774807  0.33622997  0.37056933  1
  O  O422  1  0.98876265  0.33498749  0.70271102  1
  O  O423  1  0.99147355  0.82419446  0.02956080  1
  O  O424  1  0.99796738  0.82281756  0.35727289  1
  O  O425  1  0.99939649  0.82718321  0.69552085  1
  O  O426  1  0.16697405  0.01405147  0.13808597  1
  O  O427  1  0.16817708  0.01080513  0.47038708  1
  O  O428  1  0.16697407  0.00784471  0.80411938  1
  O  O429  1  0.17378509  0.50854417  0.13778355  1
  O  O430  1  0.16795930  0.50327557  0.47127792  1
  O  O431  1  0.16687911  0.50624717  0.80175859  1
  O  O432  1  0.66738282  0.00411847  0.13601770  1
  O  O433  1  0.67605153  0.01011232  0.47002482  1
  O  O434  1  0.67581452  0.00967899  0.80388998  1
  O  O435  1  0.65853747  0.50711451  0.13152270  1
  O  O436  1  0.65997162  0.48852365  0.47877921  1
  O  O437  1  0.66318811  0.50636519  0.80048225  1
  O  O438  1  0.00768808  0.17148233  0.30462719  1
  O  O439  1  0.01041640  0.16989971  0.63934294  1
  O  O440  1  0.01043203  0.17110720  0.97242353  1
  O  O441  1  -0.00562057  0.64758874  0.30562667  1
  O  O442  1  0.01233765  0.66518200  0.63738766  1
  O  O443  1  0.01366003  0.66697801  0.96777752  1
  O  O444  1  0.50801598  0.15932441  0.29867954  1
  O  O445  1  0.51135628  0.15933985  0.63261931  1
  O  O446  1  0.51617314  0.17036992  0.96820187  1
  O  O447  1  0.50697331  0.66774270  0.30034144  1
  O  O448  1  0.50185594  0.66422188  0.64119291  1
  O  O449  1  0.50245918  0.67744387  0.96843012  1
  O  O450  1  0.33621323  0.49036989  0.19849866  1
  O  O451  1  0.33522081  0.49036505  0.53394109  1
  O  O452  1  0.32718364  0.49236770  0.86383071  1
  O  O453  1  0.33213190  0.99561673  0.19359623  1
  O  O454  1  0.33396559  0.99206958  0.52862257  1
  O  O455  1  0.33281933  0.99408313  0.86213463  1
  O  O456  1  0.82196277  0.49267738  0.19668145  1
  O  O457  1  0.82621245  0.49297406  0.52946098  1
  O  O458  1  0.82268080  0.48682941  0.86663307  1
  O  O459  1  0.84054831  0.98747925  0.19062196  1
  O  O460  1  0.85149446  0.99569590  0.52981825  1
  O  O461  1  0.84212375  0.99068558  0.87167765  1
