# generated using pymatgen
data_Na31Fe20(SO4)36
_symmetry_space_group_name_H-M   'P 1'
_cell_length_a   18.09031077
_cell_length_b   18.08347289
_cell_length_c   19.71697940
_cell_angle_alpha   107.57877122
_cell_angle_beta   107.58767038
_cell_angle_gamma   90.75025507
_symmetry_Int_Tables_number   1
_chemical_formula_structural   Na31Fe20(SO4)36
_chemical_formula_sum   'Na62 Fe40 S72 O288'
_cell_volume   5822.72138526
_cell_formula_units_Z   2
loop_
 _symmetry_equiv_pos_site_id
 _symmetry_equiv_pos_as_xyz
  1  'x, y, z'
loop_
 _atom_site_type_symbol
 _atom_site_label
 _atom_site_symmetry_multiplicity
 _atom_site_fract_x
 _atom_site_fract_y
 _atom_site_fract_z
 _atom_site_occupancy
  Na  Na0  1  0.13170817  0.36126660  0.08033138  1
  Na  Na1  1  0.13326486  0.36695151  0.41809991  1
  Na  Na2  1  0.12427852  0.37337957  0.75337033  1
  Na  Na3  1  0.14641644  0.86400242  0.08042878  1
  Na  Na4  1  0.13518659  0.86392802  0.41368628  1
  Na  Na5  1  0.13241155  0.84864945  0.74152316  1
  Na  Na6  1  0.63424971  0.36616491  0.08366847  1
  Na  Na7  1  0.63221040  0.37461148  0.42073700  1
  Na  Na8  1  0.62748843  0.37218283  0.75177584  1
  Na  Na9  1  0.64440874  0.87069883  0.09197547  1
  Na  Na10  1  0.64488625  0.86467872  0.41988128  1
  Na  Na11  1  0.63651525  0.86562932  0.75671674  1
  Na  Na12  1  0.36434913  0.12887823  0.24195108  1
  Na  Na13  1  0.36207163  0.12947010  0.57993715  1
  Na  Na14  1  0.36637073  0.13070281  0.91579899  1
  Na  Na15  1  0.34626792  0.63136572  0.24044186  1
  Na  Na16  1  0.37373585  0.66292971  0.62170164  1
  Na  Na17  1  0.36762401  0.64144578  0.92208076  1
  Na  Na18  1  0.86040360  0.13625855  0.25260702  1
  Na  Na19  1  0.85517211  0.12392032  0.56855630  1
  Na  Na20  1  0.87440578  0.13450742  0.91781982  1
  Na  Na21  1  0.86625276  0.63539415  0.24797037  1
  Na  Na22  1  0.87771762  0.64652438  0.60771205  1
  Na  Na23  1  0.86051399  0.66310047  0.92272970  1
  Na  Na24  1  0.48502654  0.00116821  0.09707228  1
  Na  Na25  1  0.54544940  -0.01677946  0.34567816  1
  Na  Na26  1  0.93319217  0.00189368  0.39640986  1
  Na  Na27  1  1.02517242  -0.00345270  0.08181145  1
  Na  Na28  1  0.98961642  0.03674181  0.76927896  1
  Na  Na29  1  0.46041993  0.50785679  0.42542543  1
  Na  Na30  1  0.98866929  0.50950149  0.43898739  1
  Na  Na31  1  0.49192926  0.50880042  0.07708780  1
  Na  Na32  1  0.99245578  0.51854947  0.06109517  1
  Na  Na33  1  0.01379920  0.98321892  0.58743709  1
  Na  Na34  1  0.00221478  0.98925784  0.24985819  1
  Na  Na35  1  -0.01795904  0.55105397  0.83123049  1
  Na  Na36  1  0.47343608  0.50926264  0.25976507  1
  Na  Na37  1  0.51129649  0.98933603  0.58489584  1
  Na  Na38  1  0.01854704  0.48957895  0.24900309  1
  Na  Na39  1  0.50471070  0.93942380  0.89028348  1
  Na  Na40  1  0.48945431  0.52307808  0.87498862  1
  Na  Na41  1  0.02991351  0.95457973  0.90451085  1
  Na  Na42  1  0.23759041  0.73960126  0.00563454  1
  Na  Na43  1  0.76329165  0.76701034  0.32207791  1
  Na  Na44  1  0.73801363  0.23646308  0.34387363  1
  Na  Na45  1  0.74367023  0.24274433  0.66749937  1
  Na  Na46  1  0.25292145  0.75112338  0.32825384  1
  Na  Na47  1  0.24002570  0.24365055  0.67126049  1
  Na  Na48  1  0.25400267  0.25845063  0.32819932  1
  Na  Na49  1  0.22218724  0.22224144  0.00172639  1
  Na  Na50  1  0.74360101  0.74469914  0.68669550  1
  Na  Na51  1  0.74769985  0.24978941  0.00055535  1
  Na  Na52  1  0.75285455  0.74747797  0.50552381  1
  Na  Na53  1  0.74222908  0.24356620  0.17357798  1
  Na  Na54  1  0.75056117  0.25166109  0.83482146  1
  Na  Na55  1  0.76605746  0.76847954  0.15128954  1
  Na  Na56  1  0.25270915  0.25395649  0.49847462  1
  Na  Na57  1  0.73319998  0.23479829  0.50390396  1
  Na  Na58  1  0.25324057  0.75102797  0.82448975  1
  Na  Na59  1  0.23455244  0.23904702  0.84140586  1
  Na  Na60  1  0.24972520  0.25096800  0.16750263  1
  Na  Na61  1  0.25135992  0.74284618  0.51163114  1
  Fe  Fe62  1  0.46494436  0.30900613  0.11839117  1
  Fe  Fe63  1  0.46495275  0.80627407  0.12290338  1
  Fe  Fe64  1  0.46356600  0.31095843  0.45561604  1
  Fe  Fe65  1  0.96639192  0.30381228  0.79170182  1
  Fe  Fe66  1  0.96398357  0.30610234  0.11768338  1
  Fe  Fe67  1  0.96379406  0.31377248  0.45917761  1
  Fe  Fe68  1  0.46579307  0.80790012  0.45364068  1
  Fe  Fe69  1  0.46346329  0.30526975  0.78435692  1
  Fe  Fe70  1  0.96954269  0.80359768  0.45276165  1
  Fe  Fe71  1  0.96700842  0.80598272  0.10593118  1
  Fe  Fe72  1  0.19224383  0.03282767  0.71477420  1
  Fe  Fe73  1  0.20000594  0.53013022  0.37905378  1
  Fe  Fe74  1  0.19114683  0.53451593  0.71433093  1
  Fe  Fe75  1  0.69597794  0.03161720  0.04775499  1
  Fe  Fe76  1  0.18912003  0.53360176  0.04412578  1
  Fe  Fe77  1  0.69227019  0.53794229  0.38092418  1
  Fe  Fe78  1  0.69337001  0.03518198  0.71457523  1
  Fe  Fe79  1  0.68737380  0.53473495  0.71320901  1
  Fe  Fe80  1  0.68896900  0.53938551  0.04601005  1
  Fe  Fe81  1  0.19275496  0.03486646  0.38270704  1
  Fe  Fe82  1  0.53473666  0.18862582  0.54380294  1
  Fe  Fe83  1  0.03180807  0.19080423  0.54551530  1
  Fe  Fe84  1  0.53202769  0.69281522  0.21661412  1
  Fe  Fe85  1  0.53584150  0.19550649  0.21479688  1
  Fe  Fe86  1  0.53381651  0.18799519  0.87743449  1
  Fe  Fe87  1  0.53693771  0.70421011  0.87739654  1
  Fe  Fe88  1  0.03817907  0.69166716  0.21020692  1
  Fe  Fe89  1  0.03332308  0.18963924  0.21283637  1
  Fe  Fe90  1  0.04057765  0.69630721  0.55678519  1
  Fe  Fe91  1  0.53228488  0.69501745  0.55236956  1
  Fe  Fe92  1  0.81569294  0.96488741  0.95524343  1
  Fe  Fe93  1  0.81156762  0.96328797  0.62257872  1
  Fe  Fe94  1  0.30807681  0.96836658  0.95613692  1
  Fe  Fe95  1  0.30900053  0.46608556  0.62343045  1
  Fe  Fe96  1  0.80072301  0.46954867  0.95080405  1
  Fe  Fe97  1  0.30647830  0.46000179  0.95018033  1
  Fe  Fe98  1  0.31815685  0.96128334  0.62801950  1
  Fe  Fe99  1  0.30863080  0.96657184  0.28535141  1
  Fe  Fe100  1  0.80645596  0.46453600  0.62123676  1
  Fe  Fe101  1  0.80644302  0.46575775  0.28619074  1
  S  S102  1  0.36241038  0.14258548  0.08148218  1
  S  S103  1  0.35810573  0.14109474  0.41707313  1
  S  S104  1  0.35673273  0.14147599  0.74903312  1
  S  S105  1  0.36179859  0.63513775  0.08475725  1
  S  S106  1  0.36046204  0.64208864  0.41513331  1
  S  S107  1  0.36263696  0.63540582  0.75875745  1
  S  S108  1  0.85675654  0.14399171  0.08531453  1
  S  S109  1  0.85806011  0.14686801  0.41562215  1
  S  S110  1  0.85452851  0.14290274  0.74622761  1
  S  S111  1  0.86017129  0.64080959  0.08350748  1
  S  S112  1  0.86172509  0.63949833  0.41555532  1
  S  S113  1  0.84996700  0.63807174  0.74630337  1
  S  S114  1  0.13709395  0.35793282  0.25167756  1
  S  S115  1  0.13975271  0.35835547  0.58406124  1
  S  S116  1  0.13929200  0.35716361  0.91737387  1
  S  S117  1  0.14133026  0.86219715  0.25046214  1
  S  S118  1  0.14400664  0.85943701  0.58083406  1
  S  S119  1  0.15688835  0.85464363  0.91521688  1
  S  S120  1  0.63950531  0.36267318  0.24924578  1
  S  S121  1  0.63966176  0.35939111  0.58345509  1
  S  S122  1  0.63680011  0.36153581  0.91674571  1
  S  S123  1  0.64075626  0.85029382  0.25012969  1
  S  S124  1  0.64197739  0.85880198  0.58408213  1
  S  S125  1  0.65106274  0.85874216  0.92116147  1
  S  S126  1  0.06007746  0.16944223  0.04608352  1
  S  S127  1  0.06770598  0.17026927  0.37664472  1
  S  S128  1  0.06287326  0.16722662  0.70623956  1
  S  S129  1  0.06362013  0.66927253  0.03803418  1
  S  S130  1  0.07026955  0.66738781  0.37542753  1
  S  S131  1  0.06695790  0.65460399  0.70447108  1
  S  S132  1  0.57048303  0.17209751  0.04111869  1
  S  S133  1  0.56586035  0.17925835  0.38020017  1
  S  S134  1  0.56577113  0.17109182  0.70857893  1
  S  S135  1  0.56628435  0.67015301  0.04347160  1
  S  S136  1  0.56562468  0.66904902  0.37827466  1
  S  S137  1  0.56883119  0.67072942  0.70885210  1
  S  S138  1  0.33013515  0.43093180  0.12138423  1
  S  S139  1  0.32715203  0.43167686  0.46027081  1
  S  S140  1  0.32639486  0.42698223  0.78912680  1
  S  S141  1  0.33792117  0.93346858  0.12514951  1
  S  S142  1  0.32913039  0.93246341  0.45816015  1
  S  S143  1  0.32566551  0.93008132  0.78817505  1
  S  S144  1  0.82818171  0.43452819  0.12434421  1
  S  S145  1  0.82642203  0.43408341  0.45662687  1
  S  S146  1  0.82423491  0.42771582  0.78946141  1
  S  S147  1  0.84026592  0.94162592  0.12886594  1
  S  S148  1  0.83453738  0.92544073  0.46002623  1
  S  S149  1  0.83546119  0.94307548  0.79157835  1
  S  S150  1  0.43609817  0.33259951  0.29145032  1
  S  S151  1  0.42980429  0.32367101  0.62195846  1
  S  S152  1  0.43252292  0.32798647  0.95442330  1
  S  S153  1  0.42909999  0.82751897  0.29298340  1
  S  S154  1  0.44185798  0.83733694  0.62636974  1
  S  S155  1  0.43630686  0.83278637  0.96262854  1
  S  S156  1  0.93161460  0.33687403  0.29456270  1
  S  S157  1  0.92594439  0.32219911  0.62263891  1
  S  S158  1  0.92576935  0.33500811  0.95999904  1
  S  S159  1  0.94024126  0.82596832  0.28739304  1
  S  S160  1  0.93962556  0.83203533  0.62567048  1
  S  S161  1  0.94550011  0.84550632  0.96279109  1
  S  S162  1  0.17036937  0.06690148  0.21360947  1
  S  S163  1  0.16591026  0.06576272  0.54188644  1
  S  S164  1  0.17194292  0.05909513  0.87471779  1
  S  S165  1  0.16056057  0.56249904  0.20571697  1
  S  S166  1  0.17781190  0.56946402  0.54199678  1
  S  S167  1  0.17935255  0.56764192  0.88316827  1
  S  S168  1  0.66638343  0.07243269  0.20870186  1
  S  S169  1  0.66330533  0.06039460  0.54151426  1
  S  S170  1  0.67238263  0.06972740  0.87683658  1
  S  S171  1  0.66814808  0.56818422  0.20940940  1
  S  S172  1  0.66755805  0.56836736  0.54079304  1
  S  S173  1  0.67105453  0.57140167  0.87705884  1
  O  O174  1  0.37679695  0.21879648  0.06898451  1
  O  O175  1  0.36355574  0.22118295  0.41045415  1
  O  O176  1  0.36679875  0.21962456  0.73911293  1
  O  O177  1  0.36996588  0.71337977  0.07529116  1
  O  O178  1  0.36879828  0.72393018  0.41219885  1
  O  O179  1  0.36623245  0.71209494  0.74989198  1
  O  O180  1  0.86432823  0.22454229  0.07954242  1
  O  O181  1  0.87466671  0.22729386  0.41025878  1
  O  O182  1  0.86673310  0.22289802  0.74074597  1
  O  O183  1  0.86968680  0.72089359  0.07954170  1
  O  O184  1  0.87131951  0.71660111  0.40417037  1
  O  O185  1  0.86309842  0.70933078  0.72925004  1
  O  O186  1  0.28511629  0.13875304  0.08973328  1
  O  O187  1  0.28104892  0.13042475  0.42918818  1
  O  O188  1  0.27701045  0.13482870  0.75617332  1
  O  O189  1  0.28369444  0.62348283  0.09219754  1
  O  O190  1  0.27876000  0.63087789  0.41678656  1
  O  O191  1  0.28707343  0.61956463  0.77218461  1
  O  O192  1  0.77715982  0.13356863  0.09194159  1
  O  O193  1  0.78237495  0.14483433  0.42787873  1
  O  O194  1  0.77180794  0.13766992  0.74820059  1
  O  O195  1  0.78215587  0.63078577  0.09373194  1
  O  O196  1  0.78267252  0.63222086  0.42393293  1
  O  O197  1  0.76553982  0.62817948  0.74250128  1
  O  O198  1  0.12283174  0.28075688  0.26314636  1
  O  O199  1  0.13011577  0.27775285  0.58901484  1
  O  O200  1  0.13282908  0.28134176  0.92842817  1
  O  O201  1  0.13392609  0.78377656  0.26017352  1
  O  O202  1  0.13648645  0.77951517  0.58558909  1
  O  O203  1  0.15306412  0.77307131  0.91233311  1
  O  O204  1  0.63381980  0.28359874  0.25757040  1
  O  O205  1  0.63083107  0.27777579  0.58747958  1
  O  O206  1  0.62804138  0.28192948  0.92362445  1
  O  O207  1  0.62654069  0.77028733  0.25872955  1
  O  O208  1  0.63291885  0.77922248  0.59023173  1
  O  O209  1  0.63840271  0.78158713  0.93075362  1
  O  O210  1  0.21401027  0.36209657  0.24302812  1
  O  O211  1  0.21784747  0.36753206  0.57409519  1
  O  O212  1  0.21605100  0.36745297  0.90387068  1
  O  O213  1  0.22025205  0.87413306  0.24456185  1
  O  O214  1  0.22335347  0.87279772  0.57532446  1
  O  O215  1  0.24291429  0.87185338  0.91581343  1
  O  O216  1  0.71722111  0.37281834  0.23822753  1
  O  O217  1  0.71842677  0.36774738  0.57416201  1
  O  O218  1  0.71501519  0.36989329  0.90698435  1
  O  O219  1  0.71712215  0.85276921  0.23922389  1
  O  O220  1  0.72116989  0.86840489  0.57677457  1
  O  O221  1  0.73146603  0.87067650  0.91892492  1
  O  O222  1  0.42250534  0.13351373  0.14876654  1
  O  O223  1  0.41892291  0.13275851  0.48364813  1
  O  O224  1  0.41476662  0.13546496  0.81805687  1
  O  O225  1  0.42114837  0.62885033  0.15441073  1
  O  O226  1  0.41563418  0.63390095  0.48562381  1
  O  O227  1  0.42650847  0.62923102  0.82629334  1
  O  O228  1  0.91482439  0.13792587  0.15458180  1
  O  O229  1  0.91898055  0.13346225  0.48166323  1
  O  O230  1  0.90865758  0.13157481  0.81295933  1
  O  O231  1  0.92050935  0.62821603  0.14888123  1
  O  O232  1  0.92145404  0.63124966  0.48271204  1
  O  O233  1  0.89858597  0.63644852  0.81984727  1
  O  O234  1  0.37046561  0.08029630  0.01379433  1
  O  O235  1  0.36407963  0.08407704  0.34738993  1
  O  O236  1  0.36405433  0.08172051  0.68137334  1
  O  O237  1  0.37485166  0.57522733  0.01927110  1
  O  O238  1  0.37425981  0.58648165  0.34961281  1
  O  O239  1  0.36916511  0.57446420  0.69059993  1
  O  O240  1  0.86538181  0.08743022  0.01717269  1
  O  O241  1  0.86224753  0.08871153  0.34728284  1
  O  O242  1  0.86273610  0.08506401  0.67702845  1
  O  O243  1  0.86604195  0.58301366  0.01369927  1
  O  O244  1  0.86836908  0.57839939  0.34749294  1
  O  O245  1  0.86445342  0.57078649  0.68521208  1
  O  O246  1  0.07633161  0.36825192  0.18476004  1
  O  O247  1  0.07978122  0.36715647  0.51663256  1
  O  O248  1  0.07815291  0.36311821  0.84887761  1
  O  O249  1  0.08165594  0.86982157  0.18304427  1
  O  O250  1  0.08547937  0.86774603  0.51210502  1
  O  O251  1  0.10544735  0.86949062  0.84835815  1
  O  O252  1  0.57922074  0.36950036  0.18137475  1
  O  O253  1  0.58048817  0.36969941  0.51740303  1
  O  O254  1  0.57671213  0.37084427  0.85002900  1
  O  O255  1  0.57998252  0.85766223  0.18201197  1
  O  O256  1  0.58332686  0.86782278  0.51594516  1
  O  O257  1  0.59458466  0.86685898  0.85328939  1
  O  O258  1  0.12961613  0.41894896  0.31970165  1
  O  O259  1  0.13424051  0.41499048  0.65341824  1
  O  O260  1  0.13229479  0.41964857  0.98424223  1
  O  O261  1  0.13064238  0.92123822  0.31819865  1
  O  O262  1  0.13118684  0.91696802  0.64730028  1
  O  O263  1  0.14605823  0.90832211  0.98353757  1
  O  O264  1  0.63249016  0.42114183  0.31744470  1
  O  O265  1  0.63396552  0.41488525  0.65360320  1
  O  O266  1  0.63164936  0.41995545  0.98628390  1
  O  O267  1  0.63581607  0.90820172  0.31830385  1
  O  O268  1  0.63278810  0.91753812  0.65174752  1
  O  O269  1  0.63871963  0.91925656  0.98853350  1
  O  O270  1  0.02638104  0.20610043  0.11155680  1
  O  O271  1  0.03364450  0.20019098  0.43875692  1
  O  O272  1  0.02636685  0.19566331  0.76510666  1
  O  O273  1  0.03214259  0.70531258  0.10417986  1
  O  O274  1  0.03250102  0.69706656  0.43535820  1
  O  O275  1  0.02982203  0.66617511  0.76137545  1
  O  O276  1  0.53606200  0.20466244  0.10305766  1
  O  O277  1  0.52387488  0.21074368  0.43796478  1
  O  O278  1  0.52945156  0.19985220  0.77011014  1
  O  O279  1  0.52648055  0.69547863  0.10229629  1
  O  O280  1  0.53022599  0.69887355  0.43968674  1
  O  O281  1  0.53369567  0.69398778  0.76948773  1
  O  O282  1  0.29628006  0.46033143  0.05554654  1
  O  O283  1  0.30087745  0.46932007  0.40141062  1
  O  O284  1  0.29364828  0.46009925  0.72677560  1
  O  O285  1  0.32312034  0.97351289  0.06706086  1
  O  O286  1  0.30083939  0.97041636  0.39808973  1
  O  O287  1  0.29431696  0.97401479  0.73135068  1
  O  O288  1  0.79829302  0.47050218  0.06335442  1
  O  O289  1  0.79682457  0.47149437  0.39551984  1
  O  O290  1  0.79199708  0.46303571  0.72814675  1
  O  O291  1  0.80633412  0.97435526  0.06472560  1
  O  O292  1  0.81273172  0.95633154  0.39802525  1
  O  O293  1  0.79736786  0.97915320  0.72945364  1
  O  O294  1  0.47183517  0.29734857  0.22961122  1
  O  O295  1  0.46941779  0.29495689  0.56298976  1
  O  O296  1  0.46876485  0.29774865  0.89341129  1
  O  O297  1  0.46326815  0.79528242  0.23054898  1
  O  O298  1  0.47264168  0.80143153  0.56006641  1
  O  O299  1  0.47592986  0.80961921  0.90522347  1
  O  O300  1  0.96489800  0.30643197  0.23229602  1
  O  O301  1  0.96798337  0.29587559  0.56474316  1
  O  O302  1  0.95726842  0.30995844  0.89760453  1
  O  O303  1  0.97629884  0.79082141  0.22713140  1
  O  O304  1  0.97366193  0.79976731  0.56065638  1
  O  O305  1  0.97516148  0.82368792  0.90025696  1
  O  O306  1  0.20424760  0.03624031  0.27914595  1
  O  O307  1  0.19587348  0.03169449  0.60399489  1
  O  O308  1  0.21385432  0.02573322  0.93476231  1
  O  O309  1  0.17973261  0.52716029  0.26605797  1
  O  O310  1  0.20476349  0.53241706  0.60292850  1
  O  O311  1  0.21161685  0.52577751  0.94131243  1
  O  O312  1  0.68168471  0.04182660  0.27006033  1
  O  O313  1  0.69803557  0.02708555  0.60475307  1
  O  O314  1  0.70283795  0.03309511  0.93710852  1
  O  O315  1  0.69851203  0.53135482  0.27015576  1
  O  O316  1  0.69293616  0.52622069  0.59711693  1
  O  O317  1  0.69760144  0.53133409  0.93770189  1
  O  O318  1  0.07422620  0.08967960  0.04521607  1
  O  O319  1  0.08405336  0.08770396  0.36937366  1
  O  O320  1  0.08299326  0.08527533  0.70255944  1
  O  O321  1  0.08973657  0.59236060  0.04576905  1
  O  O322  1  0.08838587  0.58597416  0.37136971  1
  O  O323  1  0.08798191  0.57212204  0.68255488  1
  O  O324  1  0.58979872  0.09176213  0.03647997  1
  O  O325  1  0.59326165  0.10655540  0.38834492  1
  O  O326  1  0.58695503  0.09097089  0.70421736  1
  O  O327  1  0.57938327  0.58535013  0.03399078  1
  O  O328  1  0.58234451  0.58636589  0.37095161  1
  O  O329  1  0.58906224  0.58960117  0.69743388  1
  O  O330  1  0.41316961  0.41420669  0.12362585  1
  O  O331  1  0.40759344  0.40970822  0.46165260  1
  O  O332  1  0.40698823  0.40766784  0.79079929  1
  O  O333  1  0.42112120  0.91532334  0.14158816  1
  O  O334  1  0.41102654  0.91501880  0.46488349  1
  O  O335  1  0.40338975  0.91330256  0.78659599  1
  O  O336  1  0.91000746  0.41650999  0.13133471  1
  O  O337  1  0.90784842  0.41692275  0.45939455  1
  O  O338  1  0.90486113  0.40965477  0.79276035  1
  O  O339  1  0.91729631  0.91238338  0.12407379  1
  O  O340  1  0.91978482  0.90939209  0.47449711  1
  O  O341  1  0.91763586  0.94013446  0.79573382  1
  O  O342  1  0.42503472  0.41400953  0.29614966  1
  O  O343  1  0.40635912  0.40138986  0.62353465  1
  O  O344  1  0.41481546  0.40983344  0.95909621  1
  O  O345  1  0.41249847  0.90918963  0.29694685  1
  O  O346  1  0.42356560  0.91827470  0.62381451  1
  O  O347  1  0.41430887  0.91510235  0.96735939  1
  O  O348  1  0.91829069  0.42115266  0.30222388  1
  O  O349  1  0.90341518  0.40045215  0.62416381  1
  O  O350  1  0.90347004  0.41652072  0.97015760  1
  O  O351  1  0.93038952  0.90726141  0.29074018  1
  O  O352  1  0.92252836  0.91486570  0.62922618  1
  O  O353  1  0.92508760  0.92981151  0.97490181  1
  O  O354  1  0.08896070  0.08626722  0.21336310  1
  O  O355  1  0.08308969  0.08070072  0.53438501  1
  O  O356  1  0.09291950  0.06987206  0.87821273  1
  O  O357  1  0.07544180  0.57886639  0.19055325  1
  O  O358  1  0.09738564  0.59191894  0.53546286  1
  O  O359  1  0.10500246  0.59099127  0.88956424  1
  O  O360  1  0.58299909  0.09378079  0.18759552  1
  O  O361  1  0.58452925  0.08384438  0.54602604  1
  O  O362  1  0.59241692  0.08997171  0.87460443  1
  O  O363  1  0.58585720  0.58414208  0.20443635  1
  O  O364  1  0.58589785  0.58738812  0.53209513  1
  O  O365  1  0.59312218  0.59618788  0.87758071  1
  O  O366  1  0.13427999  0.22059552  0.06582907  1
  O  O367  1  0.13973429  0.22101721  0.39212282  1
  O  O368  1  0.13443162  0.21911587  0.72106453  1
  O  O369  1  0.13045851  0.72204822  0.04699064  1
  O  O370  1  0.14128859  0.72026875  0.39243657  1
  O  O371  1  0.13708844  0.71014597  0.72343146  1
  O  O372  1  0.64098292  0.22548137  0.05555725  1
  O  O373  1  0.63212939  0.23836281  0.39576699  1
  O  O374  1  0.63480983  0.22645898  0.72502206  1
  O  O375  1  0.63960540  0.71946915  0.06475119  1
  O  O376  1  0.63729592  0.71987681  0.39421922  1
  O  O377  1  0.63587001  0.72663284  0.72264422  1
  O  O378  1  0.28198710  0.35869322  0.10992258  1
  O  O379  1  0.27378438  0.36012591  0.44286087  1
  O  O380  1  0.27474992  0.35762637  0.77825460  1
  O  O381  1  0.28396875  0.86266348  0.10224786  1
  O  O382  1  0.27653059  0.86078415  0.43944811  1
  O  O383  1  0.27036519  0.86215302  0.77080463  1
  O  O384  1  0.77589601  0.36350096  0.10863166  1
  O  O385  1  0.77465870  0.36236930  0.43869656  1
  O  O386  1  0.77168466  0.35674981  0.77496860  1
  O  O387  1  0.78461508  0.87743830  0.12093463  1
  O  O388  1  0.78494859  0.85254292  0.44624279  1
  O  O389  1  0.78993076  0.86804017  0.77316588  1
  O  O390  1  0.36290788  0.28252530  0.27467080  1
  O  O391  1  0.36120754  0.26718725  0.60532343  1
  O  O392  1  0.36182463  0.27629409  0.93897716  1
  O  O393  1  0.35966726  0.77655309  0.28139784  1
  O  O394  1  0.36866129  0.78954807  0.61197950  1
  O  O395  1  0.36741544  0.77810362  0.94575398  1
  O  O396  1  0.85825011  0.28901981  0.27982706  1
  O  O397  1  0.85688805  0.26535123  0.60298131  1
  O  O398  1  0.85668754  0.28087919  0.94744839  1
  O  O399  1  0.86576272  0.77726135  0.26976291  1
  O  O400  1  0.86583920  0.78257907  0.60661403  1
  O  O401  1  0.87869277  0.79526832  0.95856282  1
  O  O402  1  0.22068011  0.13858041  0.22642441  1
  O  O403  1  0.21612448  0.13844982  0.55747031  1
  O  O404  1  0.21868128  0.13379379  0.88737256  1
  O  O405  1  0.21146557  0.63520827  0.22563035  1
  O  O406  1  0.23324166  0.63668830  0.55612728  1
  O  O407  1  0.23711767  0.63446268  0.90022073  1
  O  O408  1  0.72028560  0.14439652  0.22532925  1
  O  O409  1  0.71540863  0.13144937  0.55517258  1
  O  O410  1  0.72513403  0.14068231  0.89158176  1
  O  O411  1  0.72052808  0.63843015  0.22518814  1
  O  O412  1  0.72192711  0.63931067  0.56097354  1
  O  O413  1  0.72787136  0.63610376  0.89167093  1
  O  O414  1  0.49280024  0.33255991  0.02724516  1
  O  O415  1  0.49300470  0.33175893  0.36428330  1
  O  O416  1  0.48911428  0.32820363  0.69547432  1
  O  O417  1  0.49382064  0.84003183  0.03809496  1
  O  O418  1  0.49226348  0.83244283  0.36490649  1
  O  O419  1  0.50261461  0.84183789  0.69514314  1
  O  O420  1  0.98823191  0.33875456  0.03189736  1
  O  O421  1  0.99084056  0.33748164  0.36669161  1
  O  O422  1  0.98386157  0.32524037  0.69604182  1
  O  O423  1  1.00981367  0.85095547  0.03627210  1
  O  O424  1  0.99490724  0.82495524  0.36161499  1
  O  O425  1  0.99847546  0.83236533  0.69427719  1
  O  O426  1  0.16357506  0.00493173  0.14402494  1
  O  O427  1  0.16707778  0.00701550  0.47020987  1
  O  O428  1  0.16722227  0.00356993  0.79905847  1
  O  O429  1  0.16498289  0.50445554  0.13503421  1
  O  O430  1  0.17179197  0.50729226  0.46924142  1
  O  O431  1  0.17132689  0.50947429  0.80793184  1
  O  O432  1  0.67164439  0.01261497  0.13817581  1
  O  O433  1  0.65316730  0.00023776  0.46984273  1
  O  O434  1  0.66776401  0.01106921  0.80331868  1
  O  O435  1  0.66436729  0.50913196  0.13583535  1
  O  O436  1  0.66763274  0.51135461  0.46718117  1
  O  O437  1  0.66168420  0.50874360  0.80415654  1
  O  O438  1  0.00760933  0.17023142  0.30527518  1
  O  O439  1  0.00533528  0.16060987  0.63098320  1
  O  O440  1  0.00294877  0.17320428  0.97758486  1
  O  O441  1  0.01222741  0.66332952  0.30143151  1
  O  O442  1  0.00896144  0.66127451  0.63203602  1
  O  O443  1  -0.00197598  0.65481065  0.96908036  1
  O  O444  1  0.50842326  0.16861423  0.30422294  1
  O  O445  1  0.50547424  0.16719084  0.63637534  1
  O  O446  1  0.50960090  0.16995739  0.96924203  1
  O  O447  1  0.50524334  0.66550583  0.30570681  1
  O  O448  1  0.50618738  0.66992209  0.63712536  1
  O  O449  1  0.51031906  0.67215599  0.97103060  1
  O  O450  1  0.33621543  0.49378805  0.19079928  1
  O  O451  1  0.33328754  0.48857821  0.53437848  1
  O  O452  1  0.33526227  0.48892270  0.86224902  1
  O  O453  1  0.33158753  0.99155415  0.19536515  1
  O  O454  1  0.32925533  0.99016869  0.53077797  1
  O  O455  1  0.33155338  0.98794416  0.86512979  1
  O  O456  1  0.82980839  0.49409316  0.19672846  1
  O  O457  1  0.82860539  0.49193440  0.52887799  1
  O  O458  1  0.82700266  0.48809821  0.86138389  1
  O  O459  1  0.85886961  1.00565150  0.19999064  1
  O  O460  1  0.83158402  0.98551114  0.53124659  1
  O  O461  1  0.82989202  0.99818494  0.86363846  1
