# generated using pymatgen
data_Na31Fe20(SO4)36
_symmetry_space_group_name_H-M   'P 1'
_cell_length_a   18.08295442
_cell_length_b   18.09270815
_cell_length_c   19.71318053
_cell_angle_alpha   107.63422567
_cell_angle_beta   107.57255364
_cell_angle_gamma   90.70697809
_symmetry_Int_Tables_number   1
_chemical_formula_structural   Na31Fe20(SO4)36
_chemical_formula_sum   'Na62 Fe40 S72 O288'
_cell_volume   5821.29632471
_cell_formula_units_Z   2
loop_
 _symmetry_equiv_pos_site_id
 _symmetry_equiv_pos_as_xyz
  1  'x, y, z'
loop_
 _atom_site_type_symbol
 _atom_site_label
 _atom_site_symmetry_multiplicity
 _atom_site_fract_x
 _atom_site_fract_y
 _atom_site_fract_z
 _atom_site_occupancy
  Na  Na0  1  0.18973399  0.39571754  0.15124443  1
  Na  Na1  1  0.14448604  0.36540357  0.42174197  1
  Na  Na2  1  0.13837412  0.37078186  0.76054803  1
  Na  Na3  1  0.14610436  0.86539011  0.09134653  1
  Na  Na4  1  0.13989809  0.87221060  0.42159051  1
  Na  Na5  1  0.13375046  0.85638431  0.74046560  1
  Na  Na6  1  0.62586233  0.37506147  0.08421447  1
  Na  Na7  1  0.62774372  0.37250592  0.41986713  1
  Na  Na8  1  0.63631953  0.36318050  0.75040450  1
  Na  Na9  1  0.62775816  0.85858367  0.07693783  1
  Na  Na10  1  0.63228890  0.86176642  0.41896828  1
  Na  Na11  1  0.61626018  0.84535513  0.71744856  1
  Na  Na12  1  0.35759845  0.13825526  0.24238816  1
  Na  Na13  1  0.38036921  0.13321720  0.58187139  1
  Na  Na14  1  0.36324752  0.13189180  0.91355389  1
  Na  Na15  1  0.36406057  0.65306945  0.25798725  1
  Na  Na16  1  0.36860936  0.63567744  0.58452694  1
  Na  Na17  1  0.36114603  0.64662695  0.92542888  1
  Na  Na18  1  0.86624448  0.13313236  0.25349150  1
  Na  Na19  1  0.86399379  0.13466327  0.58650354  1
  Na  Na20  1  0.87192939  0.12933125  0.91978320  1
  Na  Na21  1  0.87693437  0.62996985  0.25361994  1
  Na  Na22  1  0.85737113  0.64072151  0.58699622  1
  Na  Na23  1  0.85541586  0.62640709  0.90031690  1
  Na  Na24  1  0.99311053  0.00037977  0.76134953  1
  Na  Na25  1  0.98022363  0.50920588  0.74627383  1
  Na  Na26  1  0.53716237  0.47913588  0.68227500  1
  Na  Na27  1  1.00602770  0.00155628  0.06383580  1
  Na  Na28  1  0.48745607  0.00575188  0.07978922  1
  Na  Na29  1  0.46199452  0.54068488  0.45334683  1
  Na  Na30  1  1.00804980  0.47607602  0.10844208  1
  Na  Na31  1  1.03527779  0.49058805  0.36821955  1
  Na  Na32  1  0.48980905  0.01914028  0.42667611  1
  Na  Na33  1  0.45926834  0.52048463  0.28269650  1
  Na  Na34  1  0.45755718  0.51367602  0.96541552  1
  Na  Na35  1  0.51300460  0.98822112  0.89840077  1
  Na  Na36  1  0.01176418  0.99218631  0.57272640  1
  Na  Na37  1  0.01241361  0.49963655  0.57013650  1
  Na  Na38  1  0.01639305  0.49193419  0.92527300  1
  Na  Na39  1  0.50646082  0.95196885  0.23378175  1
  Na  Na40  1  0.50306950  0.94465570  0.56997880  1
  Na  Na41  1  0.00968904  0.98618828  0.25687021  1
  Na  Na42  1  0.26026463  0.75145290  0.33639595  1
  Na  Na43  1  0.74606158  0.74687032  0.33842091  1
  Na  Na44  1  0.25858056  0.25994204  0.66378975  1
  Na  Na45  1  0.74244924  0.24393904  0.33982968  1
  Na  Na46  1  0.24330765  0.25326396  0.01435595  1
  Na  Na47  1  0.24693313  0.74924053  0.01024379  1
  Na  Na48  1  0.74849222  0.24664368  0.00559486  1
  Na  Na49  1  0.26574159  0.27566680  0.31706611  1
  Na  Na50  1  0.74799956  0.74368742  -0.00613110  1
  Na  Na51  1  0.73700221  0.23720218  0.67141384  1
  Na  Na52  1  0.72253059  0.73565486  0.51545977  1
  Na  Na53  1  0.74319562  0.24024219  0.83853701  1
  Na  Na54  1  0.74977098  0.74297774  0.17047286  1
  Na  Na55  1  0.26204017  0.26527405  0.83485477  1
  Na  Na56  1  0.25176816  0.72672324  0.49867872  1
  Na  Na57  1  0.25862174  0.76113353  0.82404574  1
  Na  Na58  1  0.73135364  0.23974389  0.50576682  1
  Na  Na59  1  0.26118102  0.25935903  0.49367488  1
  Na  Na60  1  0.74761637  0.74869212  0.81272260  1
  Na  Na61  1  0.74240794  0.24246442  0.17023849  1
  Fe  Fe62  1  0.96630794  0.30475870  0.12322763  1
  Fe  Fe63  1  0.96415341  0.80625672  0.78315110  1
  Fe  Fe64  1  0.46648735  0.30700573  0.79075395  1
  Fe  Fe65  1  0.96356822  0.30596533  0.78646401  1
  Fe  Fe66  1  0.47270186  0.29863066  0.45938045  1
  Fe  Fe67  1  0.96419504  0.80573515  0.44857262  1
  Fe  Fe68  1  0.96870405  0.80128476  0.11658150  1
  Fe  Fe69  1  0.96145424  0.30586047  0.45350227  1
  Fe  Fe70  1  0.45563652  0.80615557  0.78077292  1
  Fe  Fe71  1  0.45899350  0.31972614  0.12526220  1
  Fe  Fe72  1  0.69231609  0.03210045  0.38113836  1
  Fe  Fe73  1  0.68760590  0.53637324  0.04327341  1
  Fe  Fe74  1  0.20838853  0.53168979  0.04481895  1
  Fe  Fe75  1  0.69689116  0.02959279  0.04700318  1
  Fe  Fe76  1  0.68612494  0.53518509  0.37580445  1
  Fe  Fe77  1  0.19258954  0.03652996  0.71567393  1
  Fe  Fe78  1  0.18877617  0.04079612  0.04718752  1
  Fe  Fe79  1  0.19348797  0.53419947  0.71629887  1
  Fe  Fe80  1  0.19161801  0.03830006  0.38205832  1
  Fe  Fe81  1  0.69464573  0.03274043  0.71240181  1
  Fe  Fe82  1  0.53199010  0.68854235  0.87740529  1
  Fe  Fe83  1  0.03605335  0.69297858  0.88089661  1
  Fe  Fe84  1  0.03786998  0.69130948  0.54555796  1
  Fe  Fe85  1  0.53437565  0.19151776  0.21202661  1
  Fe  Fe86  1  0.03243639  0.19200865  0.54892778  1
  Fe  Fe87  1  0.52636516  0.70577144  0.20887315  1
  Fe  Fe88  1  0.04155571  0.69020095  0.21340019  1
  Fe  Fe89  1  0.03185539  0.19004626  0.21694541  1
  Fe  Fe90  1  0.03522992  0.19742495  0.88759674  1
  Fe  Fe91  1  0.53664257  0.18451827  0.87647622  1
  Fe  Fe92  1  0.30976660  0.46751939  0.62426760  1
  Fe  Fe93  1  0.30873825  0.96434881  0.28201163  1
  Fe  Fe94  1  0.81465354  0.96251274  0.28905855  1
  Fe  Fe95  1  0.80487494  0.46747139  0.28736421  1
  Fe  Fe96  1  0.30394030  0.96718522  0.95004179  1
  Fe  Fe97  1  0.79566639  0.46872593  0.61942849  1
  Fe  Fe98  1  0.81127055  0.96265174  0.61804883  1
  Fe  Fe99  1  0.80713514  0.95954705  0.94767657  1
  Fe  Fe100  1  0.80412684  0.46679037  0.95117781  1
  Fe  Fe101  1  0.30586588  0.96736496  0.61692444  1
  S  S102  1  0.35940293  0.14260306  0.08106864  1
  S  S103  1  0.35417066  0.13978324  0.41035940  1
  S  S104  1  0.35734585  0.14053261  0.75144159  1
  S  S105  1  0.36190951  0.64520083  0.08146129  1
  S  S106  1  0.36140038  0.65391479  0.40955743  1
  S  S107  1  0.35458132  0.64272781  0.75603212  1
  S  S108  1  0.86178649  0.13571325  0.08386591  1
  S  S109  1  0.85803717  0.13925134  0.41772865  1
  S  S110  1  0.86418613  0.13734914  0.75141321  1
  S  S111  1  0.86187662  0.63826006  0.08175529  1
  S  S112  1  0.86013994  0.63900481  0.41824613  1
  S  S113  1  0.86275760  0.63780890  0.74807408  1
  S  S114  1  0.13110527  0.35707874  0.25836770  1
  S  S115  1  0.13595447  0.36021074  0.58525034  1
  S  S116  1  0.13760026  0.36125789  0.91793995  1
  S  S117  1  0.14007732  0.86203186  0.24979991  1
  S  S118  1  0.13719774  0.86367139  0.58152358  1
  S  S119  1  0.13635338  0.86226081  0.91529981  1
  S  S120  1  0.64167694  0.35643472  0.24637604  1
  S  S121  1  0.64373250  0.35268178  0.58507765  1
  S  S122  1  0.64299919  0.35680193  0.91712743  1
  S  S123  1  0.64830338  0.85949071  0.24940465  1
  S  S124  1  0.64625072  0.86174838  0.58267073  1
  S  S125  1  0.64061976  0.85872254  0.91530853  1
  S  S126  1  0.06769146  0.17390183  0.04619133  1
  S  S127  1  0.06442383  0.17022316  0.37973279  1
  S  S128  1  0.06693099  0.17064373  0.71137614  1
  S  S129  1  0.07205668  0.67092744  0.03889013  1
  S  S130  1  0.07201962  0.67894971  0.38126008  1
  S  S131  1  0.06622237  0.66793544  0.70823215  1
  S  S132  1  0.56871180  0.15888192  0.03877022  1
  S  S133  1  0.56428377  0.16069468  0.36834234  1
  S  S134  1  0.56984855  0.16880094  0.71297553  1
  S  S135  1  0.56838714  0.67371279  0.04464213  1
  S  S136  1  0.57621100  0.67256716  0.36899281  1
  S  S137  1  0.55872350  0.67387006  0.71721838  1
  S  S138  1  0.33745632  0.44062876  0.12387367  1
  S  S139  1  0.34005554  0.42743919  0.46524486  1
  S  S140  1  0.33002678  0.43355877  0.79187430  1
  S  S141  1  0.32603713  0.94441468  0.11914095  1
  S  S142  1  0.32790820  0.94279554  0.45456389  1
  S  S143  1  0.32247220  0.93489272  0.78987052  1
  S  S144  1  0.82650425  0.43051781  0.12350183  1
  S  S145  1  0.82660439  0.43037640  0.45797987  1
  S  S146  1  0.83440859  0.42963995  0.79025586  1
  S  S147  1  0.83378186  0.92931742  0.12422617  1
  S  S148  1  0.83472064  0.93400570  0.45729655  1
  S  S149  1  0.83371211  0.93138087  0.79161885  1
  S  S150  1  0.43929650  0.32655973  0.29202289  1
  S  S151  1  0.43048229  0.32426360  0.62656053  1
  S  S152  1  0.43510921  0.31812792  0.95459214  1
  S  S153  1  0.44010071  0.84302248  0.29478064  1
  S  S154  1  0.42768229  0.83826955  0.62658268  1
  S  S155  1  0.43420981  0.84116120  0.95703306  1
  S  S156  1  0.92480460  0.32668340  0.29173731  1
  S  S157  1  0.92686295  0.32969708  0.62332966  1
  S  S158  1  0.92861163  0.33032165  0.95988125  1
  S  S159  1  0.93718871  0.82731600  0.28806910  1
  S  S160  1  0.93465547  0.83052004  0.62159047  1
  S  S161  1  0.93068036  0.82520535  0.95500711  1
  S  S162  1  0.15954557  0.06553945  0.20636147  1
  S  S163  1  0.16657808  0.07110394  0.54428384  1
  S  S164  1  0.16595728  0.07090350  0.87662472  1
  S  S165  1  0.17037015  0.56878512  0.20249816  1
  S  S166  1  0.16819377  0.56286741  0.54291848  1
  S  S167  1  0.16542953  0.56792124  0.87683619  1
  S  S168  1  0.67239543  0.06366639  0.20843803  1
  S  S169  1  0.67414618  0.06243992  0.54320612  1
  S  S170  1  0.67700189  0.06467352  0.87787418  1
  S  S171  1  0.67376779  0.57687064  0.20922431  1
  S  S172  1  0.66621991  0.56318581  0.53677744  1
  S  S173  1  0.66656682  0.56324348  0.87655998  1
  O  O174  1  0.37339953  0.22120209  0.07458197  1
  O  O175  1  0.36752668  0.21997710  0.40630213  1
  O  O176  1  0.36610416  0.22284347  0.75072071  1
  O  O177  1  0.36428542  0.72146817  0.07128949  1
  O  O178  1  0.38351193  0.72966078  0.40244763  1
  O  O179  1  0.35741863  0.72269045  0.75018861  1
  O  O180  1  0.87009418  0.21367080  0.07364184  1
  O  O181  1  0.86689036  0.21783083  0.40847558  1
  O  O182  1  0.87222549  0.21443932  0.73899850  1
  O  O183  1  0.87155099  0.71768879  0.07383218  1
  O  O184  1  0.86753608  0.71674938  0.40690233  1
  O  O185  1  0.87619152  0.71437244  0.73686522  1
  O  O186  1  0.28047669  0.13626102  0.08861645  1
  O  O187  1  0.27362999  0.13540754  0.41806810  1
  O  O188  1  0.27957907  0.13143866  0.76337409  1
  O  O189  1  0.28195865  0.62707006  0.08825726  1
  O  O190  1  0.27486191  0.64634614  0.39271008  1
  O  O191  1  0.27640210  0.62883686  0.76558088  1
  O  O192  1  0.78184653  0.12732744  0.09054805  1
  O  O193  1  0.77792673  0.13073682  0.42357377  1
  O  O194  1  0.78476907  0.13002131  0.75881220  1
  O  O195  1  0.78288655  0.63070258  0.08990756  1
  O  O196  1  0.78160102  0.62801617  0.42553730  1
  O  O197  1  0.78907960  0.63126527  0.76212491  1
  O  O198  1  0.11826477  0.27592291  0.26398618  1
  O  O199  1  0.12560255  0.28253696  0.59562973  1
  O  O200  1  0.12489315  0.28540024  0.93164036  1
  O  O201  1  0.13347340  0.78416860  0.25940622  1
  O  O202  1  0.12737162  0.78547970  0.58937961  1
  O  O203  1  0.12868139  0.78337147  0.92430738  1
  O  O204  1  0.63743601  0.27527341  0.25146191  1
  O  O205  1  0.64062535  0.27275282  0.58795445  1
  O  O206  1  0.63783914  0.27691476  0.92452941  1
  O  O207  1  0.63391991  0.77753848  0.25006143  1
  O  O208  1  0.64057863  0.78703724  0.59499452  1
  O  O209  1  0.62926987  0.78113474  0.92469580  1
  O  O210  1  0.21089249  0.36479807  0.25688523  1
  O  O211  1  0.21407563  0.36679472  0.57564986  1
  O  O212  1  0.21083087  0.36464807  0.90244063  1
  O  O213  1  0.21680789  0.87464121  0.24001960  1
  O  O214  1  0.21344099  0.87339320  0.56961630  1
  O  O215  1  0.21539862  0.87193982  0.90740328  1
  O  O216  1  0.72021501  0.37012952  0.23801826  1
  O  O217  1  0.72363613  0.36915006  0.57724613  1
  O  O218  1  0.72155391  0.36789321  0.90754330  1
  O  O219  1  0.73084163  0.86582314  0.24779960  1
  O  O220  1  0.72662841  0.87349654  0.57448758  1
  O  O221  1  0.72097448  0.86485132  0.90864805  1
  O  O222  1  0.41832837  0.13013938  0.14718215  1
  O  O223  1  0.41118437  0.12404493  0.47320672  1
  O  O224  1  0.41813122  0.12626043  0.81464297  1
  O  O225  1  0.41980836  0.64554001  0.15591447  1
  O  O226  1  0.39849364  0.64774312  0.48554827  1
  O  O227  1  0.41375762  0.63666289  0.82491844  1
  O  O228  1  0.91868606  0.12988717  0.15387767  1
  O  O229  1  0.91527143  0.13331237  0.48723357  1
  O  O230  1  0.92246753  0.13258230  0.82138163  1
  O  O231  1  0.92099997  0.63055891  0.14957620  1
  O  O232  1  0.91973836  0.63456165  0.48745455  1
  O  O233  1  0.92719611  0.62691621  0.81293707  1
  O  O234  1  0.36635979  0.08303326  0.01215653  1
  O  O235  1  0.35599308  0.08331198  0.33763413  1
  O  O236  1  0.35856077  0.08735258  0.67846380  1
  O  O237  1  0.37549996  0.58460222  0.01937663  1
  O  O238  1  0.38620975  0.59051973  0.35411626  1
  O  O239  1  0.36334767  0.58594904  0.68781046  1
  O  O240  1  0.87259293  0.07512231  0.01830727  1
  O  O241  1  0.86704556  0.08051342  0.35007869  1
  O  O242  1  0.87545621  0.07601702  0.68642350  1
  O  O243  1  0.86875678  0.57959644  0.01300808  1
  O  O244  1  0.86958259  0.57862993  0.35104596  1
  O  O245  1  0.86769387  0.57536033  0.67891621  1
  O  O246  1  0.07566441  0.36312094  0.18544155  1
  O  O247  1  0.07546673  0.36782460  0.51739275  1
  O  O248  1  0.07231792  0.36873126  0.85189416  1
  O  O249  1  0.07847047  0.86819535  0.18127855  1
  O  O250  1  0.07501287  0.87553969  0.51656021  1
  O  O251  1  0.07786774  0.86703233  0.84535574  1
  O  O252  1  0.58187728  0.36174231  0.17808366  1
  O  O253  1  0.58564413  0.35866098  0.51506870  1
  O  O254  1  0.58309837  0.36371616  0.84994792  1
  O  O255  1  0.59459457  0.87509459  0.18465211  1
  O  O256  1  0.58836506  0.87137991  0.51668730  1
  O  O257  1  0.58280060  0.87183795  0.85015327  1
  O  O258  1  0.11546703  0.41308287  0.32181265  1
  O  O259  1  0.12810937  0.42114637  0.65257666  1
  O  O260  1  0.13314737  0.42555975  0.98514839  1
  O  O261  1  0.12852152  0.92176135  0.31644796  1
  O  O262  1  0.13083128  0.92321506  0.65121394  1
  O  O263  1  0.12682192  0.92129071  0.98233668  1
  O  O264  1  0.63401468  0.41268211  0.31505947  1
  O  O265  1  0.63416384  0.40919993  0.65205496  1
  O  O266  1  0.63645679  0.41453691  0.98625135  1
  O  O267  1  0.64144127  0.91417169  0.32052041  1
  O  O268  1  0.63871587  0.92480042  0.65121156  1
  O  O269  1  0.63615215  0.91897193  0.98542474  1
  O  O270  1  0.03015890  0.20022495  0.10699765  1
  O  O271  1  0.02652503  0.19796953  0.44022716  1
  O  O272  1  0.03262160  0.20095596  0.77377971  1
  O  O273  1  0.03629919  0.69856688  0.10104098  1
  O  O274  1  0.02666293  0.70768517  0.43732609  1
  O  O275  1  0.03366214  0.70125494  0.77153738  1
  O  O276  1  0.53446450  0.18764973  0.10017521  1
  O  O277  1  0.52851305  0.19132520  0.42740397  1
  O  O278  1  0.53291200  0.20087690  0.77530003  1
  O  O279  1  0.53514253  0.70018279  0.10678397  1
  O  O280  1  0.54882971  0.69107264  0.43254752  1
  O  O281  1  0.52050690  0.71063260  0.77965635  1
  O  O282  1  0.29767661  0.46653799  0.05713680  1
  O  O283  1  0.32842111  0.46486552  0.40827821  1
  O  O284  1  0.29736841  0.46507027  0.72607134  1
  O  O285  1  0.28812536  0.97829902  0.05611484  1
  O  O286  1  0.29114377  0.97648237  0.39117181  1
  O  O287  1  0.29406217  0.96977575  0.72752184  1
  O  O288  1  0.79967962  0.46831870  0.06362111  1
  O  O289  1  0.79941361  0.46636057  0.39668540  1
  O  O290  1  0.81406633  0.46311916  0.72863845  1
  O  O291  1  0.80412148  0.96585003  0.06334801  1
  O  O292  1  0.80477637  0.97231921  0.39770899  1
  O  O293  1  0.80286206  0.96878452  0.73165569  1
  O  O294  1  0.47752820  0.29498817  0.22983149  1
  O  O295  1  0.46443193  0.29663573  0.56594781  1
  O  O296  1  0.47733439  0.28608773  0.89679229  1
  O  O297  1  0.47652374  0.80876774  0.23302895  1
  O  O298  1  0.46987501  0.82109192  0.57292630  1
  O  O299  1  0.46672665  0.80802887  0.89342293  1
  O  O300  1  0.95644708  0.29345509  0.22811888  1
  O  O301  1  0.96395244  0.29904986  0.56267793  1
  O  O302  1  0.96238463  0.29761295  0.89741968  1
  O  O303  1  0.97303003  0.79440590  0.22691737  1
  O  O304  1  0.96997667  0.79952922  0.56020553  1
  O  O305  1  0.96592865  0.79652588  0.89329967  1
  O  O306  1  0.19027227  0.02921867  0.26635533  1
  O  O307  1  0.19872209  0.03475208  0.60513941  1
  O  O308  1  0.19644954  0.03376730  0.93666079  1
  O  O309  1  0.18422149  0.52045527  0.25008574  1
  O  O310  1  0.20111273  0.53229680  0.60895504  1
  O  O311  1  0.19023504  0.53274585  0.93778988  1
  O  O312  1  0.70097715  0.02917408  0.27069277  1
  O  O313  1  0.71411384  0.03242359  0.60761949  1
  O  O314  1  0.70823403  0.02878112  0.93970073  1
  O  O315  1  0.69841527  0.53492983  0.26690653  1
  O  O316  1  0.69943662  0.52257927  0.59376781  1
  O  O317  1  0.70216666  0.53043996  0.94217505  1
  O  O318  1  0.08422298  0.09128043  0.03969956  1
  O  O319  1  0.08348455  0.08876063  0.37268185  1
  O  O320  1  0.08187436  0.08759650  0.70387938  1
  O  O321  1  0.09815910  0.59219065  0.03406935  1
  O  O322  1  0.09668208  0.60425153  0.38535590  1
  O  O323  1  0.07980106  0.58455443  0.70307601  1
  O  O324  1  0.58568273  0.07561175  0.03189997  1
  O  O325  1  0.58212946  0.07817217  0.36463085  1
  O  O326  1  0.59847608  0.09346250  0.71954557  1
  O  O327  1  0.58266719  0.58991680  0.03209659  1
  O  O328  1  0.58758794  0.58667959  0.34343859  1
  O  O329  1  0.58353726  0.60061781  0.72774523  1
  O  O330  1  0.41949122  0.42551321  0.12511956  1
  O  O331  1  0.42020447  0.40169221  0.48320697  1
  O  O332  1  0.40690663  0.40576738  0.79085729  1
  O  O333  1  0.40849231  0.94055048  0.12419219  1
  O  O334  1  0.40988985  0.93730976  0.45959722  1
  O  O335  1  0.40365622  0.91607386  0.79814556  1
  O  O336  1  0.90653572  0.40815637  0.12740534  1
  O  O337  1  0.90896072  0.41209835  0.46566693  1
  O  O338  1  0.91995729  0.41618603  0.80696106  1
  O  O339  1  0.91567737  0.91174834  0.12934284  1
  O  O340  1  0.91509961  0.91339488  0.45901615  1
  O  O341  1  0.91492353  0.91387402  0.79241830  1
  O  O342  1  0.42820222  0.40756426  0.29882670  1
  O  O343  1  0.41090666  0.40619013  0.63690626  1
  O  O344  1  0.41409342  0.39434488  0.95170996  1
  O  O345  1  0.41449580  0.92097817  0.28465059  1
  O  O346  1  0.40626670  0.92147824  0.63683203  1
  O  O347  1  0.41271335  0.92231244  0.95561731  1
  O  O348  1  0.90820657  0.40822683  0.29651238  1
  O  O349  1  0.90625015  0.41000233  0.62561505  1
  O  O350  1  0.91264941  0.41241595  0.96367799  1
  O  O351  1  0.91846642  0.90757519  0.28759460  1
  O  O352  1  0.92206004  0.91458874  0.62860798  1
  O  O353  1  0.91208903  0.90692895  0.96159118  1
  O  O354  1  0.07544374  0.07847878  0.20090289  1
  O  O355  1  0.08494638  0.08695034  0.54333364  1
  O  O356  1  0.08452492  0.08923381  0.87269000  1
  O  O357  1  0.08591412  0.58772601  0.18571394  1
  O  O358  1  0.09082668  0.59160647  0.54861062  1
  O  O359  1  0.08056030  0.58128109  0.86425164  1
  O  O360  1  0.59007434  0.08083419  0.19900952  1
  O  O361  1  0.59330672  0.07100178  0.53956805  1
  O  O362  1  0.59627980  0.08246681  0.87618960  1
  O  O363  1  0.59810939  0.60718876  0.20636749  1
  O  O364  1  0.58766932  0.57918156  0.53540402  1
  O  O365  1  0.59156776  0.59106646  0.88370974  1
  O  O366  1  0.13768407  0.22512917  0.06162450  1
  O  O367  1  0.13399586  0.22402906  0.39744995  1
  O  O368  1  0.13858663  0.22077206  0.72596621  1
  O  O369  1  0.13654700  0.72825461  0.05055648  1
  O  O370  1  0.13762257  0.73896069  0.40041180  1
  O  O371  1  0.13806652  0.71637385  0.72141199  1
  O  O372  1  0.64074093  0.20970128  0.05397710  1
  O  O373  1  0.63725300  0.21043801  0.38261672  1
  O  O374  1  0.63891041  0.22583385  0.72988350  1
  O  O375  1  0.64245850  0.72300456  0.06196446  1
  O  O376  1  0.65084886  0.72109001  0.38493582  1
  O  O377  1  0.62702256  0.72969642  0.73332809  1
  O  O378  1  0.29423486  0.36587886  0.11435836  1
  O  O379  1  0.28017948  0.35845613  0.44292293  1
  O  O380  1  0.27308095  0.36562385  0.77761778  1
  O  O381  1  0.28160728  0.86907076  0.10234489  1
  O  O382  1  0.28129505  0.86851876  0.43848240  1
  O  O383  1  0.26923274  0.86614107  0.77604379  1
  O  O384  1  0.77189072  0.36074677  0.10692759  1
  O  O385  1  0.77432977  0.35899616  0.44078299  1
  O  O386  1  0.78521011  0.35629764  0.77319543  1
  O  O387  1  0.78180206  0.85837137  0.10838364  1
  O  O388  1  0.78182757  0.86458466  0.44208378  1
  O  O389  1  0.78367164  0.86145792  0.77949350  1
  O  O390  1  0.36667381  0.27494517  0.27047679  1
  O  O391  1  0.35871662  0.27150737  0.61101049  1
  O  O392  1  0.36521513  0.26290372  0.93616986  1
  O  O393  1  0.37131110  0.79220774  0.28374028  1
  O  O394  1  0.35764945  0.78406312  0.60821478  1
  O  O395  1  0.36266939  0.79075766  0.94389821  1
  O  O396  1  0.85376371  0.27583737  0.27932878  1
  O  O397  1  0.85815681  0.27539839  0.60900521  1
  O  O398  1  0.85724326  0.27947860  0.94601541  1
  O  O399  1  0.86646748  0.77586336  0.27425173  1
  O  O400  1  0.86245800  0.78229815  0.60666736  1
  O  O401  1  0.86010634  0.77276348  0.93944305  1
  O  O402  1  0.20758515  0.13766181  0.22041395  1
  O  O403  1  0.21566723  0.14326034  0.55849403  1
  O  O404  1  0.21751548  0.14204761  0.89240874  1
  O  O405  1  0.22283488  0.64067848  0.22639694  1
  O  O406  1  0.22230027  0.62700857  0.54900545  1
  O  O407  1  0.21434061  0.64141907  0.89486871  1
  O  O408  1  0.72453737  0.13564715  0.22557065  1
  O  O409  1  0.72226356  0.13613663  0.55666446  1
  O  O410  1  0.72875566  0.13729217  0.89602805  1
  O  O411  1  0.73605359  0.64101984  0.22737270  1
  O  O412  1  0.72149196  0.63205338  0.55351333  1
  O  O413  1  0.72279428  0.62998123  0.88830021  1
  O  O414  1  0.49144421  0.32108851  0.02911620  1
  O  O415  1  0.49558649  0.32052463  0.36317585  1
  O  O416  1  0.49055213  0.32497009  0.69877522  1
  O  O417  1  0.49488992  0.85180378  0.02875038  1
  O  O418  1  0.50129519  0.86330667  0.36757585  1
  O  O419  1  0.48314678  0.84108920  0.70288999  1
  O  O420  1  0.98850925  0.33465382  0.03253051  1
  O  O421  1  0.98631915  0.32952834  0.36329009  1
  O  O422  1  0.98763563  0.33584990  0.69661009  1
  O  O423  1  0.99178609  0.82922808  0.02726312  1
  O  O424  1  0.99570711  0.83329247  0.36142343  1
  O  O425  1  0.99420952  0.83241662  0.69427876  1
  O  O426  1  0.15486529  0.00666458  0.13190016  1
  O  O427  1  0.16242922  0.01245317  0.47112374  1
  O  O428  1  0.16055643  0.01116618  0.80299738  1
  O  O429  1  0.17266155  0.51573669  0.12498358  1
  O  O430  1  0.14997899  0.49680943  0.47344973  1
  O  O431  1  0.16858900  0.50929581  0.80591039  1
  O  O432  1  0.67408682  0.00418344  0.13753856  1
  O  O433  1  0.67757391  0.00379529  0.47166816  1
  O  O434  1  0.67642975  0.00654588  0.80680776  1
  O  O435  1  0.66730249  0.51652457  0.13525565  1
  O  O436  1  0.66334164  0.50641629  0.46028039  1
  O  O437  1  0.65504151  0.49911524  0.80718372  1
  O  O438  1  0.00401544  0.16712003  0.30740408  1
  O  O439  1  0.00606363  0.16988296  0.63984949  1
  O  O440  1  0.00638939  0.17178790  0.97451854  1
  O  O441  1  0.01502486  0.67117310  0.30503462  1
  O  O442  1  0.00542755  0.66627085  0.63662225  1
  O  O443  1  0.00718315  0.66244728  0.96693383  1
  O  O444  1  0.50743730  0.15570349  0.29320887  1
  O  O445  1  0.51128413  0.15817971  0.64117447  1
  O  O446  1  0.51002700  0.15568531  0.96559337  1
  O  O447  1  0.51637126  0.68432014  0.30029018  1
  O  O448  1  0.49909378  0.66566196  0.64596760  1
  O  O449  1  0.50958001  0.67951431  0.97518596  1
  O  O450  1  0.34016430  0.50229592  0.19302758  1
  O  O451  1  0.33398202  0.48583500  0.53692149  1
  O  O452  1  0.33875006  0.49683301  0.86140292  1
  O  O453  1  0.31935394  1.00047725  0.18985157  1
  O  O454  1  0.32303635  0.99980845  0.52617531  1
  O  O455  1  0.32326151  0.99750003  0.86056353  1
  O  O456  1  0.83041163  0.48956106  0.19662636  1
  O  O457  1  0.82821511  0.48934218  0.53043879  1
  O  O458  1  0.82842566  0.48874098  0.85990954  1
  O  O459  1  0.83686867  0.98925354  0.19720227  1
  O  O460  1  0.84264192  0.99373324  0.53150959  1
  O  O461  1  0.83982824  0.99188567  0.86545528  1
