# generated using pymatgen
data_Na31Fe20(SO4)36
_symmetry_space_group_name_H-M   'P 1'
_cell_length_a   18.08262934
_cell_length_b   18.07588059
_cell_length_c   19.72212739
_cell_angle_alpha   107.56211699
_cell_angle_beta   107.58140820
_cell_angle_gamma   90.77434748
_symmetry_Int_Tables_number   1
_chemical_formula_structural   Na31Fe20(SO4)36
_chemical_formula_sum   'Na62 Fe40 S72 O288'
_cell_volume   5819.84362955
_cell_formula_units_Z   2
loop_
 _symmetry_equiv_pos_site_id
 _symmetry_equiv_pos_as_xyz
  1  'x, y, z'
loop_
 _atom_site_type_symbol
 _atom_site_label
 _atom_site_symmetry_multiplicity
 _atom_site_fract_x
 _atom_site_fract_y
 _atom_site_fract_z
 _atom_site_occupancy
  Na  Na0  1  0.13787050  0.37505056  0.08563621  1
  Na  Na1  1  0.13135331  0.36483333  0.41327860  1
  Na  Na2  1  0.12625440  0.36507552  0.74818803  1
  Na  Na3  1  0.13918133  0.86800668  0.09288396  1
  Na  Na4  1  0.14505383  0.86854083  0.42449907  1
  Na  Na5  1  0.13245828  0.86645782  0.74941841  1
  Na  Na6  1  0.62627270  0.34291763  0.05535405  1
  Na  Na7  1  0.63637181  0.36902458  0.42084989  1
  Na  Na8  1  0.64806377  0.36556456  0.75639893  1
  Na  Na9  1  0.63864756  0.86687972  0.08938118  1
  Na  Na10  1  0.63562911  0.86301143  0.40979264  1
  Na  Na11  1  0.63205181  0.86803119  0.75228112  1
  Na  Na12  1  0.36174518  0.13114749  0.25091809  1
  Na  Na13  1  0.38121913  0.14627171  0.60489669  1
  Na  Na14  1  0.36540868  0.13854066  0.91764166  1
  Na  Na15  1  0.36286594  0.63078681  0.24346347  1
  Na  Na16  1  0.35967550  0.63173547  0.57762413  1
  Na  Na17  1  0.36511013  0.63054184  0.91779843  1
  Na  Na18  1  0.86835284  0.13441202  0.25035397  1
  Na  Na19  1  0.87549810  0.14154718  0.59659729  1
  Na  Na20  1  0.87255411  0.13714863  0.91836830  1
  Na  Na21  1  0.85092393  0.65112529  0.25102733  1
  Na  Na22  1  0.85259373  0.63441235  0.58033117  1
  Na  Na23  1  0.86327062  0.62732513  0.90899005  1
  Na  Na24  1  0.99729075  0.02096509  0.74103580  1
  Na  Na25  1  0.99525520  0.50847677  0.09442986  1
  Na  Na26  1  0.48488976  0.50817403  0.09221239  1
  Na  Na27  1  0.93296975  0.48565954  0.72831427  1
  Na  Na28  1  0.98732312  0.00457973  0.43311871  1
  Na  Na29  1  0.46604858  0.00951342  0.39489723  1
  Na  Na30  1  0.51892885  0.48253474  0.75576633  1
  Na  Na31  1  0.99056191  0.51468880  0.40363578  1
  Na  Na32  1  0.99495072  0.01790376  0.06157993  1
  Na  Na33  1  0.48440084  1.03647051  0.19459150  1
  Na  Na34  1  0.50361047  0.47818250  0.27508152  1
  Na  Na35  1  0.56269875  0.49869897  0.59659386  1
  Na  Na36  1  0.02834210  0.47093438  0.91964264  1
  Na  Na37  1  0.48847503  1.04070990  0.86773741  1
  Na  Na38  1  0.49795952  0.43517547  0.90381902  1
  Na  Na39  1  0.50083513  0.99020104  0.59704513  1
  Na  Na40  1  0.01400139  0.98961050  0.24819396  1
  Na  Na41  1  -0.02268144  0.50890857  0.58670296  1
  Na  Na42  1  0.25677255  0.75693112  0.65366956  1
  Na  Na43  1  0.25412264  0.25294032  -0.00244302  1
  Na  Na44  1  0.75789324  0.26131043  0.67515259  1
  Na  Na45  1  0.73591897  0.72942983  0.67269460  1
  Na  Na46  1  0.24348175  0.73801887  0.00805558  1
  Na  Na47  1  0.25076780  0.25006016  0.33125166  1
  Na  Na48  1  0.73758991  0.24101555  0.33405786  1
  Na  Na49  1  0.74052460  0.73803223  0.01142083  1
  Na  Na50  1  0.26253079  0.25411917  0.66789419  1
  Na  Na51  1  0.24275677  0.74693262  0.34520243  1
  Na  Na52  1  0.74158073  0.73425594  0.83762411  1
  Na  Na53  1  0.74625886  0.24700721  0.50391413  1
  Na  Na54  1  0.25457492  0.25699632  0.16395994  1
  Na  Na55  1  0.75281248  0.75437244  0.49100287  1
  Na  Na56  1  0.74630012  0.25369451  0.15387866  1
  Na  Na57  1  0.24368573  0.74090217  0.17401755  1
  Na  Na58  1  0.24693192  0.74869401  0.83368434  1
  Na  Na59  1  0.73483432  0.24121853  0.85574992  1
  Na  Na60  1  0.26127365  0.25600225  0.82811250  1
  Na  Na61  1  0.25783481  0.25348159  0.50132909  1
  Fe  Fe62  1  0.46477938  0.80949510  0.78844989  1
  Fe  Fe63  1  0.47169988  0.29435951  0.12789148  1
  Fe  Fe64  1  0.46759506  0.30821454  0.45657393  1
  Fe  Fe65  1  0.96553720  0.81193507  0.45289140  1
  Fe  Fe66  1  0.96328202  0.31017332  0.45125086  1
  Fe  Fe67  1  0.96581413  0.81056654  0.78759186  1
  Fe  Fe68  1  0.96315873  0.80529667  0.11756903  1
  Fe  Fe69  1  0.96173857  0.31229052  0.11893084  1
  Fe  Fe70  1  0.46364107  0.80601693  0.44749645  1
  Fe  Fe71  1  0.46600242  0.81080837  0.12176072  1
  Fe  Fe72  1  0.69568752  0.03341779  0.71722510  1
  Fe  Fe73  1  0.18764450  0.54047671  0.38198710  1
  Fe  Fe74  1  0.19203339  0.03400051  0.71177672  1
  Fe  Fe75  1  0.69061405  0.03454122  0.37587464  1
  Fe  Fe76  1  0.20386853  0.03043821  0.37658878  1
  Fe  Fe77  1  0.18809263  0.53392084  0.71179722  1
  Fe  Fe78  1  0.68980740  0.53488450  0.04975898  1
  Fe  Fe79  1  0.68618664  0.03769697  0.04459647  1
  Fe  Fe80  1  0.18930968  0.03392289  0.04291962  1
  Fe  Fe81  1  0.69425891  0.53731660  0.38006446  1
  Fe  Fe82  1  0.54008907  0.69392552  0.21586449  1
  Fe  Fe83  1  0.53078319  0.69105272  0.54507636  1
  Fe  Fe84  1  0.03841253  0.19341542  0.54689425  1
  Fe  Fe85  1  0.03383197  0.20413549  0.87748939  1
  Fe  Fe86  1  0.03370310  0.69506993  0.21763898  1
  Fe  Fe87  1  0.03469430  0.69695553  0.54910628  1
  Fe  Fe88  1  0.03305362  0.19599903  0.21213391  1
  Fe  Fe89  1  0.03406015  0.68998867  0.88153651  1
  Fe  Fe90  1  0.53145607  0.69038007  0.88084335  1
  Fe  Fe91  1  0.53747778  0.19235124  0.54828164  1
  Fe  Fe92  1  0.80658777  0.96297251  0.95041807  1
  Fe  Fe93  1  0.80338152  0.46692468  0.28004505  1
  Fe  Fe94  1  0.31336056  0.46433089  0.62516641  1
  Fe  Fe95  1  0.30590710  0.46852645  0.29236065  1
  Fe  Fe96  1  0.30960994  0.96350979  0.61938835  1
  Fe  Fe97  1  0.30158147  0.46871164  0.95946122  1
  Fe  Fe98  1  0.80989331  0.46663271  0.95464051  1
  Fe  Fe99  1  0.80905361  0.96019723  0.28264759  1
  Fe  Fe100  1  0.80506309  0.96326605  0.61647530  1
  Fe  Fe101  1  0.30972788  0.96389876  0.95544121  1
  S  S102  1  0.35402831  0.13804071  0.08348919  1
  S  S103  1  0.36010920  0.14499167  0.41945378  1
  S  S104  1  0.35868173  0.13481167  0.75207217  1
  S  S105  1  0.36353693  0.64137218  0.08566208  1
  S  S106  1  0.35628721  0.64284158  0.41749365  1
  S  S107  1  0.35438620  0.64241292  0.74910772  1
  S  S108  1  0.86101997  0.14056123  0.08200134  1
  S  S109  1  0.86237791  0.13694574  0.41458842  1
  S  S110  1  0.86194882  0.13712002  0.74887316  1
  S  S111  1  0.85963768  0.64030314  0.08847899  1
  S  S112  1  0.86312075  0.64195188  0.41638491  1
  S  S113  1  0.86357482  0.64424383  0.74631677  1
  S  S114  1  0.13830477  0.36284307  0.25247543  1
  S  S115  1  0.14259233  0.35870674  0.58132671  1
  S  S116  1  0.14693354  0.35806211  0.91780647  1
  S  S117  1  0.13961753  0.85956789  0.24908715  1
  S  S118  1  0.14090535  0.86179257  0.58348682  1
  S  S119  1  0.13929838  0.85741402  0.91790120  1
  S  S120  1  0.63949700  0.36008217  0.25070004  1
  S  S121  1  0.64309665  0.35652309  0.58229514  1
  S  S122  1  0.64271545  0.36332382  0.91541901  1
  S  S123  1  0.64234457  0.85928737  0.24849803  1
  S  S124  1  0.63792147  0.85775611  0.58289507  1
  S  S125  1  0.64149951  0.85753652  0.91780340  1
  S  S126  1  0.06966409  0.17773719  0.04317781  1
  S  S127  1  0.07100035  0.16752377  0.37467272  1
  S  S128  1  0.07182411  0.16734791  0.70663642  1
  S  S129  1  0.05959556  0.66482532  0.04324029  1
  S  S130  1  0.06612964  0.67590446  0.37866117  1
  S  S131  1  0.06674730  0.67062916  0.70739693  1
  S  S132  1  0.56019212  0.16482327  0.04409034  1
  S  S133  1  0.56297734  0.16450364  0.37503877  1
  S  S134  1  0.57705501  0.16710568  0.70872423  1
  S  S135  1  0.56560198  0.66859601  0.04185747  1
  S  S136  1  0.56520802  0.67065225  0.37467641  1
  S  S137  1  0.55853175  0.66785805  0.71134044  1
  S  S138  1  0.33751309  0.42923033  0.13205026  1
  S  S139  1  0.32552281  0.43136269  0.45811086  1
  S  S140  1  0.32883353  0.43729136  0.79044365  1
  S  S141  1  0.32634342  0.93286936  0.12041228  1
  S  S142  1  0.33684691  0.93717101  0.46038420  1
  S  S143  1  0.32578087  0.92850829  0.79048191  1
  S  S144  1  0.82844355  0.43414712  0.12484675  1
  S  S145  1  0.83185343  0.43672669  0.45079443  1
  S  S146  1  0.83802079  0.43424015  0.80022656  1
  S  S147  1  0.83419459  0.93312342  0.12246574  1
  S  S148  1  0.83068189  0.93386147  0.45920496  1
  S  S149  1  0.82719264  0.92695451  0.78736036  1
  S  S150  1  0.42849044  0.32725438  0.29259385  1
  S  S151  1  0.43876566  0.33319436  0.62764819  1
  S  S152  1  0.42778270  0.32924399  0.96614342  1
  S  S153  1  0.43407501  0.82789352  0.28695417  1
  S  S154  1  0.43283041  0.82741859  0.62487566  1
  S  S155  1  0.43019832  0.82565779  0.95529301  1
  S  S156  1  0.92939984  0.32957554  0.28757863  1
  S  S157  1  0.93741278  0.32898369  0.61429273  1
  S  S158  1  0.93799667  0.33490279  0.96251370  1
  S  S159  1  0.93812207  0.83774344  0.29645592  1
  S  S160  1  0.93272079  0.83076433  0.62321612  1
  S  S161  1  0.93296784  0.82886981  0.95824821  1
  S  S162  1  0.16134343  0.06868217  0.20425208  1
  S  S163  1  0.17693936  0.06983974  0.54055543  1
  S  S164  1  0.16685830  0.06789865  0.87436614  1
  S  S165  1  0.16907900  0.56863371  0.21317948  1
  S  S166  1  0.16288633  0.56657192  0.54177144  1
  S  S167  1  0.16833172  0.56641020  0.87412591  1
  S  S168  1  0.67983824  0.06694469  0.21208661  1
  S  S169  1  0.67357106  0.06642799  0.54071999  1
  S  S170  1  0.67905058  0.06626101  0.88027352  1
  S  S171  1  0.66604598  0.56577721  0.20688391  1
  S  S172  1  0.66484383  0.57345861  0.53616062  1
  S  S173  1  0.66878427  0.56835661  0.87866239  1
  O  O174  1  0.36869376  0.22113356  0.08272349  1
  O  O175  1  0.36668141  0.22716374  0.41652001  1
  O  O176  1  0.36621971  0.21128780  0.74202347  1
  O  O177  1  0.37530531  0.71894592  0.07441564  1
  O  O178  1  0.36701895  0.72217046  0.41000808  1
  O  O179  1  0.36397563  0.72206096  0.74260040  1
  O  O180  1  0.87109296  0.21925820  0.07532862  1
  O  O181  1  0.87179884  0.21436193  0.40322279  1
  O  O182  1  0.86642432  0.20726373  0.72801313  1
  O  O183  1  0.86757861  0.71944164  0.07986007  1
  O  O184  1  0.87280796  0.72141279  0.41115875  1
  O  O185  1  0.87777352  0.72366948  0.73752578  1
  O  O186  1  0.27142249  0.13353684  0.08546302  1
  O  O187  1  0.27861656  0.13364395  0.42238701  1
  O  O188  1  0.27693734  0.12431084  0.75814645  1
  O  O189  1  0.28918383  0.63643251  0.09970464  1
  O  O190  1  0.27710044  0.63405949  0.42439966  1
  O  O191  1  0.27495246  0.63302648  0.75615440  1
  O  O192  1  0.78204406  0.12923056  0.08836527  1
  O  O193  1  0.78252825  0.12976531  0.42135386  1
  O  O194  1  0.78557982  0.12503185  0.76107930  1
  O  O195  1  0.78129163  0.62948091  0.09575509  1
  O  O196  1  0.78488993  0.63168377  0.42530831  1
  O  O197  1  0.78562047  0.64062070  0.75357730  1
  O  O198  1  0.12855824  0.28404039  0.26219601  1
  O  O199  1  0.13765671  0.27892821  0.58882202  1
  O  O200  1  0.13747747  0.27562799  0.92081219  1
  O  O201  1  0.12819234  0.78072930  0.25841654  1
  O  O202  1  0.13104411  0.78264140  0.59156030  1
  O  O203  1  0.13065623  0.77843255  0.92703062  1
  O  O204  1  0.63489632  0.28676952  0.26585927  1
  O  O205  1  0.63367511  0.27357695  0.58467861  1
  O  O206  1  0.63779521  0.28781945  0.92684357  1
  O  O207  1  0.63226353  0.78193106  0.25812646  1
  O  O208  1  0.62911453  0.78057879  0.59434814  1
  O  O209  1  0.63063101  0.77754190  0.92367505  1
  O  O210  1  0.21845463  0.37002388  0.24586026  1
  O  O211  1  0.22272537  0.37141849  0.57612231  1
  O  O212  1  0.22965846  0.36578367  0.91481673  1
  O  O213  1  0.21247419  0.86546106  0.23305103  1
  O  O214  1  0.22019980  0.87063859  0.57643238  1
  O  O215  1  0.21802127  0.86650970  0.90947229  1
  O  O216  1  0.71481542  0.37248504  0.23650159  1
  O  O217  1  0.71740448  0.36677612  0.56948594  1
  O  O218  1  0.72323338  0.37774370  0.91012562  1
  O  O219  1  0.71915539  0.86861996  0.23724517  1
  O  O220  1  0.71718709  0.86690234  0.57523095  1
  O  O221  1  0.71954858  0.86368565  0.90663053  1
  O  O222  1  0.40709367  0.12491657  0.14943814  1
  O  O223  1  0.41604254  0.13674650  0.48920306  1
  O  O224  1  0.41422295  0.12559783  0.81915702  1
  O  O225  1  0.42784610  0.62960517  0.14922495  1
  O  O226  1  0.41414842  0.63494090  0.48561516  1
  O  O227  1  0.41280242  0.63300837  0.81644894  1
  O  O228  1  0.91991953  0.13299758  0.15138038  1
  O  O229  1  0.92065919  0.12934819  0.48338198  1
  O  O230  1  0.92371726  0.13846183  0.82004262  1
  O  O231  1  0.91946508  0.63428539  0.15745542  1
  O  O232  1  0.92307092  0.63116166  0.48338509  1
  O  O233  1  0.92176704  0.63767587  0.81721122  1
  O  O234  1  0.35936044  0.08393255  0.01211218  1
  O  O235  1  0.37157328  0.09009305  0.35305731  1
  O  O236  1  0.36484273  0.07359214  0.68287316  1
  O  O237  1  0.36627089  0.58054305  0.01546569  1
  O  O238  1  0.36442795  0.58455180  0.34912219  1
  O  O239  1  0.36075928  0.58436062  0.67974178  1
  O  O240  1  0.87355692  0.08073761  0.01609805  1
  O  O241  1  0.87249031  0.07548968  0.34882896  1
  O  O242  1  0.87374594  0.06882466  0.68759081  1
  O  O243  1  0.87118361  0.58178689  0.02208242  1
  O  O244  1  0.87104359  0.58345445  0.34783071  1
  O  O245  1  0.87491756  0.58478373  0.68161741  1
  O  O246  1  0.08082457  0.36891895  0.18369408  1
  O  O247  1  0.08480615  0.36405104  0.51149769  1
  O  O248  1  0.09241399  0.36777644  0.85029343  1
  O  O249  1  0.07377189  0.87143055  0.18633395  1
  O  O250  1  0.08260859  0.87039698  0.51583877  1
  O  O251  1  0.08106641  0.86300738  0.84830107  1
  O  O252  1  0.57555035  0.36235547  0.18129632  1
  O  O253  1  0.57897633  0.36642662  0.51544767  1
  O  O254  1  0.58539741  0.37229429  0.84817927  1
  O  O255  1  0.58093252  0.86803216  0.18154429  1
  O  O256  1  0.57958543  0.86287047  0.51307489  1
  O  O257  1  0.58129924  0.86806278  0.85179984  1
  O  O258  1  0.13070923  0.42223464  0.32014857  1
  O  O259  1  0.13093668  0.41592124  0.64798523  1
  O  O260  1  0.13908764  0.41346312  0.98617813  1
  O  O261  1  0.13768461  0.91879072  0.32040369  1
  O  O262  1  0.13318283  0.91959734  0.65218325  1
  O  O263  1  0.13017462  0.91647868  0.98490090  1
  O  O264  1  0.62919548  0.42536049  0.31466929  1
  O  O265  1  0.63379756  0.41063602  0.65066044  1
  O  O266  1  0.63135846  0.42503124  0.98316931  1
  O  O267  1  0.63643898  0.91935311  0.31722181  1
  O  O268  1  0.62787185  0.91921046  0.64846883  1
  O  O269  1  0.63849818  0.91548013  0.98817520  1
  O  O270  1  0.03158816  0.20561495  0.10358398  1
  O  O271  1  0.03395669  0.19594131  0.43490566  1
  O  O272  1  0.03589885  0.19127037  0.76623812  1
  O  O273  1  0.02697452  0.70491091  0.10646487  1
  O  O274  1  0.03222222  0.70870706  0.44152017  1
  O  O275  1  0.03655300  0.70085001  0.77193393  1
  O  O276  1  0.52533999  0.19865855  0.10662215  1
  O  O277  1  0.52843357  0.19681735  0.43830848  1
  O  O278  1  0.54461164  0.18729107  0.76882535  1
  O  O279  1  0.53386964  0.70379148  0.10526386  1
  O  O280  1  0.52650147  0.69935703  0.43430488  1
  O  O281  1  0.52242021  0.70595224  0.77202122  1
  O  O282  1  0.32060754  0.46780805  0.07450453  1
  O  O283  1  0.29665967  0.47134044  0.39944943  1
  O  O284  1  0.29195439  0.47464169  0.73001567  1
  O  O285  1  0.29342898  0.96681960  0.05587828  1
  O  O286  1  0.30940505  0.97441695  0.40149243  1
  O  O287  1  0.29582462  0.96282394  0.72857455  1
  O  O288  1  0.79649153  0.46895631  0.06311150  1
  O  O289  1  0.79805132  0.46789267  0.38531060  1
  O  O290  1  0.80979901  0.46299356  0.73644616  1
  O  O291  1  0.80623375  0.97050550  0.06256602  1
  O  O292  1  0.80006059  0.96746985  0.39634752  1
  O  O293  1  0.79262460  0.96218329  0.72597448  1
  O  O294  1  0.46402870  0.30429244  0.23138505  1
  O  O295  1  0.46905365  0.29901655  0.56239459  1
  O  O296  1  0.46637622  0.31092444  0.90975333  1
  O  O297  1  0.47135822  0.79227664  0.22648924  1
  O  O298  1  0.46930376  0.79665458  0.56379346  1
  O  O299  1  0.46839784  0.79489421  0.89503959  1
  O  O300  1  0.96722309  0.30116270  0.22728394  1
  O  O301  1  0.97365800  0.29093281  0.55140522  1
  O  O302  1  0.97753148  0.30882293  0.90545308  1
  O  O303  1  0.96934773  0.80289078  0.23272251  1
  O  O304  1  0.97080485  0.80275164  0.56299197  1
  O  O305  1  0.96899085  0.80066745  0.89707705  1
  O  O306  1  0.18356280  0.03443922  0.26517177  1
  O  O307  1  0.20136455  0.03140578  0.60015537  1
  O  O308  1  0.19240215  0.02775977  0.93302671  1
  O  O309  1  0.19961699  0.53443502  0.27719402  1
  O  O310  1  0.19151269  0.52919055  0.60149045  1
  O  O311  1  0.19949410  0.52938758  0.93248141  1
  O  O312  1  0.71249704  0.02796033  0.27237668  1
  O  O313  1  0.70349520  0.02938920  0.60164061  1
  O  O314  1  0.70887648  0.02523817  0.94009191  1
  O  O315  1  0.70072190  0.53427563  0.27126587  1
  O  O316  1  0.68720029  0.54483197  0.59976639  1
  O  O317  1  0.70156857  0.54252771  0.94669781  1
  O  O318  1  0.08762525  0.09623388  0.03881383  1
  O  O319  1  0.09008430  0.08610527  0.36855608  1
  O  O320  1  0.08764488  0.08376429  0.69573925  1
  O  O321  1  0.06325369  0.58264876  0.03865319  1
  O  O322  1  0.08199926  0.59436833  0.37679253  1
  O  O323  1  0.08255288  0.58767936  0.69835145  1
  O  O324  1  0.58595524  0.08748628  0.04867026  1
  O  O325  1  0.58610077  0.08510910  0.37713446  1
  O  O326  1  0.59587843  0.08252884  0.69125426  1
  O  O327  1  0.58064745  0.58687449  0.04015698  1
  O  O328  1  0.58547584  0.58990728  0.36893752  1
  O  O329  1  0.56819810  0.58738007  0.71083870  1
  O  O330  1  0.41936776  0.40496929  0.14554329  1
  O  O331  1  0.40520236  0.41101869  0.46274852  1
  O  O332  1  0.40937044  0.42783752  0.79083539  1
  O  O333  1  0.40631886  0.91164281  0.11967649  1
  O  O334  1  0.41919271  0.91766155  0.46481571  1
  O  O335  1  0.40787710  0.91185164  0.79644128  1
  O  O336  1  0.91051381  0.41890737  0.12888885  1
  O  O337  1  0.91365061  0.41762622  0.45176113  1
  O  O338  1  0.92245074  0.42521241  0.81546995  1
  O  O339  1  0.91657886  0.91477279  0.12800250  1
  O  O340  1  0.91196217  0.91519246  0.46107939  1
  O  O341  1  0.90738322  0.91070770  0.78722218  1
  O  O342  1  0.40826687  0.40892451  0.30283478  1
  O  O343  1  0.41687378  0.41388701  0.62780614  1
  O  O344  1  0.40971955  0.41332153  0.98048795  1
  O  O345  1  0.41801608  0.90643030  0.28689005  1
  O  O346  1  0.41432975  0.90795372  0.62611738  1
  O  O347  1  0.40821855  0.90401838  0.95486429  1
  O  O348  1  0.91217034  0.41125517  0.29452032  1
  O  O349  1  0.91914600  0.40610026  0.60722362  1
  O  O350  1  0.92024233  0.41768930  0.97071571  1
  O  O351  1  0.92421301  0.92112537  0.29935312  1
  O  O352  1  0.91368063  0.91205644  0.62953861  1
  O  O353  1  0.91216879  0.90978370  0.96298696  1
  O  O354  1  0.07692272  0.08533978  0.19075421  1
  O  O355  1  0.09491112  0.08912148  0.53118521  1
  O  O356  1  0.08748121  0.09175359  0.86886600  1
  O  O357  1  0.08909004  0.59164473  0.21195436  1
  O  O358  1  0.08039846  0.58464429  0.53583952  1
  O  O359  1  0.08749681  0.58533370  0.87257902  1
  O  O360  1  0.60329929  0.08783952  0.21387506  1
  O  O361  1  0.59123837  0.08207277  0.53339887  1
  O  O362  1  0.60506169  0.09261708  0.88431690  1
  O  O363  1  0.58410372  0.58209599  0.20518676  1
  O  O364  1  0.58069616  0.59046692  0.52198089  1
  O  O365  1  0.58795470  0.59148109  0.87604642  1
  O  O366  1  0.14115902  0.23057077  0.06204053  1
  O  O367  1  0.14123431  0.22142968  0.39104870  1
  O  O368  1  0.14381733  0.21903730  0.72312039  1
  O  O369  1  0.13612672  0.70920401  0.05943342  1
  O  O370  1  0.13729679  0.72527539  0.39136163  1
  O  O371  1  0.13768770  0.72121853  0.71944660  1
  O  O372  1  0.62901935  0.21858991  0.05724926  1
  O  O373  1  0.63369169  0.21782534  0.39039368  1
  O  O374  1  0.64879439  0.21859821  0.72231831  1
  O  O375  1  0.63624467  0.71739760  0.05190257  1
  O  O376  1  0.63519065  0.72452028  0.39239007  1
  O  O377  1  0.63283172  0.71655174  0.72829283  1
  O  O378  1  0.28016921  0.36043884  0.11227982  1
  O  O379  1  0.27013542  0.36085181  0.43882407  1
  O  O380  1  0.28004681  0.36287771  0.77216209  1
  O  O381  1  0.27405477  0.86167170  0.10481077  1
  O  O382  1  0.28467423  0.86672726  0.44558511  1
  O  O383  1  0.27433321  0.85677584  0.77491869  1
  O  O384  1  0.77945998  0.36312606  0.11293822  1
  O  O385  1  0.78183091  0.36526084  0.43790773  1
  O  O386  1  0.79100075  0.36058487  0.78935053  1
  O  O387  1  0.78195877  0.86267131  0.10629185  1
  O  O388  1  0.78007420  0.86420549  0.44844739  1
  O  O389  1  0.77620422  0.85567211  0.77396805  1
  O  O390  1  0.35761130  0.27287876  0.27431448  1
  O  O391  1  0.36708970  0.28213378  0.61474658  1
  O  O392  1  0.35581336  0.27581105  0.94611502  1
  O  O393  1  0.36389754  0.77487851  0.27330895  1
  O  O394  1  0.36286869  0.77561102  0.61107005  1
  O  O395  1  0.36052174  0.77101250  0.93922705  1
  O  O396  1  0.85827152  0.27697255  0.26985464  1
  O  O397  1  0.86628183  0.27653088  0.59866653  1
  O  O398  1  0.86782545  0.28222112  0.94651444  1
  O  O399  1  0.86737950  0.79197017  0.28833151  1
  O  O400  1  0.86185793  0.77739903  0.60449213  1
  O  O401  1  0.86345464  0.77545711  0.94399386  1
  O  O402  1  0.21302897  0.14069916  0.22129317  1
  O  O403  1  0.23080729  0.14082575  0.55980773  1
  O  O404  1  0.22444408  0.13536093  0.89200752  1
  O  O405  1  0.22311215  0.63951851  0.23034410  1
  O  O406  1  0.21520493  0.63692940  0.55766561  1
  O  O407  1  0.21956509  0.63878333  0.88890867  1
  O  O408  1  0.73510321  0.13652951  0.22854322  1
  O  O409  1  0.72568655  0.13844186  0.55870293  1
  O  O410  1  0.73888762  0.12983918  0.89412528  1
  O  O411  1  0.71413897  0.63546152  0.21595849  1
  O  O412  1  0.71551419  0.64561503  0.54846345  1
  O  O413  1  0.72130246  0.63814478  0.88945300  1
  O  O414  1  0.48346572  0.32537749  0.04028988  1
  O  O415  1  0.48855457  0.32548156  0.36266852  1
  O  O416  1  0.50068819  0.34115544  0.69746646  1
  O  O417  1  0.48973525  0.83060191  0.02805378  1
  O  O418  1  0.49344284  0.83078371  0.36082822  1
  O  O419  1  0.49263920  0.83308338  0.69839715  1
  O  O420  1  0.99625528  0.33958912  0.03812668  1
  O  O421  1  0.98903704  0.32889526  0.35924013  1
  O  O422  1  0.99537431  0.33648699  0.68646087  1
  O  O423  1  0.99399865  0.83380402  0.03073499  1
  O  O424  1  1.00130120  0.84416601  0.36875124  1
  O  O425  1  0.99225557  0.83267088  0.69544525  1
  O  O426  1  0.16268961  0.00937315  0.13265563  1
  O  O427  1  0.17710060  0.01089965  0.46876003  1
  O  O428  1  0.16190641  0.00786927  0.80081214  1
  O  O429  1  0.16358057  0.50845523  0.14311328  1
  O  O430  1  0.15892835  0.50798366  0.46789244  1
  O  O431  1  0.16257607  0.50954493  0.79872070  1
  O  O432  1  0.67783814  0.00805772  0.13919436  1
  O  O433  1  0.67450789  0.00753301  0.46914178  1
  O  O434  1  0.66991127  0.00477108  0.80592339  1
  O  O435  1  0.65959097  0.50178798  0.13557290  1
  O  O436  1  0.66823826  0.51192163  0.46598736  1
  O  O437  1  0.66012312  0.50418399  0.81004835  1
  O  O438  1  0.01140028  0.16525766  0.30186674  1
  O  O439  1  0.01362767  0.16854239  0.63426644  1
  O  O440  1  0.01232960  0.17674333  0.97090923  1
  O  O441  1  0.00463875  0.67337511  0.30765292  1
  O  O442  1  0.00451915  0.66917644  0.63640950  1
  O  O443  1  0.00393032  0.67074612  0.97172401  1
  O  O444  1  0.50244538  0.15523567  0.30361485  1
  O  O445  1  0.51644724  0.16692677  0.63535946  1
  O  O446  1  0.49929935  0.15235787  0.97190017  1
  O  O447  1  0.50612452  0.66742352  0.30174800  1
  O  O448  1  0.50362260  0.66756890  0.63711405  1
  O  O449  1  0.50348475  0.66489066  0.97009612  1
  O  O450  1  0.33755820  0.48863041  0.20448532  1
  O  O451  1  0.32557443  0.48937203  0.53058076  1
  O  O452  1  0.32888109  0.49119236  0.86476064  1
  O  O453  1  0.33261346  0.99441991  0.18993530  1
  O  O454  1  0.34371188  0.99524696  0.53568667  1
  O  O455  1  0.32731598  0.98830617  0.86238909  1
  O  O456  1  0.83076546  0.49618038  0.19645834  1
  O  O457  1  0.83879087  0.49975535  0.52002586  1
  O  O458  1  0.83071969  0.49576442  0.87035779  1
  O  O459  1  0.83944726  0.99173701  0.19638330  1
  O  O460  1  0.83667128  0.99546223  0.53161386  1
  O  O461  1  0.83254118  0.98632367  0.86059783  1
