# generated using pymatgen
data_Na31Fe20(SO4)36
_symmetry_space_group_name_H-M   'P 1'
_cell_length_a   18.07818363
_cell_length_b   18.08234165
_cell_length_c   19.70683331
_cell_angle_alpha   107.58636114
_cell_angle_beta   107.56057936
_cell_angle_gamma   90.72696835
_symmetry_Int_Tables_number   1
_chemical_formula_structural   Na31Fe20(SO4)36
_chemical_formula_sum   'Na62 Fe40 S72 O288'
_cell_volume   5816.46978843
_cell_formula_units_Z   2
loop_
 _symmetry_equiv_pos_site_id
 _symmetry_equiv_pos_as_xyz
  1  'x, y, z'
loop_
 _atom_site_type_symbol
 _atom_site_label
 _atom_site_symmetry_multiplicity
 _atom_site_fract_x
 _atom_site_fract_y
 _atom_site_fract_z
 _atom_site_occupancy
  Na  Na0  1  0.12870482  0.36878184  0.08017805  1
  Na  Na1  1  0.12844736  0.36872510  0.41390020  1
  Na  Na2  1  0.13903713  0.36912886  0.75362524  1
  Na  Na3  1  0.13097690  0.84353015  0.06025778  1
  Na  Na4  1  0.14871426  0.86210371  0.42496593  1
  Na  Na5  1  0.13502493  0.86302935  0.75130435  1
  Na  Na6  1  0.64177703  0.37544767  0.09800039  1
  Na  Na7  1  0.63187783  0.37256579  0.41665455  1
  Na  Na8  1  0.63490429  0.36745127  0.74359227  1
  Na  Na9  1  0.62678026  0.86783433  0.08141114  1
  Na  Na10  1  0.63770243  0.86704087  0.42944896  1
  Na  Na11  1  0.62064584  0.85026027  0.73174763  1
  Na  Na12  1  0.36813752  0.12496925  0.24563677  1
  Na  Na13  1  0.37175840  0.13320583  0.58506269  1
  Na  Na14  1  0.35711680  0.13432100  0.91002122  1
  Na  Na15  1  0.39378143  0.64733752  0.27774312  1
  Na  Na16  1  0.35924094  0.65379385  0.57974845  1
  Na  Na17  1  0.36022343  0.64922614  0.93494497  1
  Na  Na18  1  0.86312539  0.13264358  0.25098373  1
  Na  Na19  1  0.85217803  0.13064842  0.58033936  1
  Na  Na20  1  0.86204547  0.13432314  0.91443694  1
  Na  Na21  1  0.86435561  0.63578160  0.24736581  1
  Na  Na22  1  0.87129247  0.63236208  0.57986226  1
  Na  Na23  1  0.87119643  0.64030827  0.91848487  1
  Na  Na24  1  0.95272239  0.00637508  0.73989870  1
  Na  Na25  1  0.99035871  0.01031282  0.08596896  1
  Na  Na26  1  0.97863765  0.01140273  0.42073594  1
  Na  Na27  1  1.00466223  0.56186902  0.77566320  1
  Na  Na28  1  0.48034302  0.51830891  0.74112600  1
  Na  Na29  1  0.51555687  -0.03091057  0.20497325  1
  Na  Na30  1  0.51683980  -0.01723854  0.67048490  1
  Na  Na31  1  0.51715404  -0.02251047  0.42966394  1
  Na  Na32  1  0.48209564  0.50501358  0.11107293  1
  Na  Na33  1  0.00345851  0.99197924  0.59058828  1
  Na  Na34  1  0.01387050  0.97919797  0.25309126  1
  Na  Na35  1  0.03959391  0.49510091  0.58792215  1
  Na  Na36  1  0.50353382  0.49291033  0.92383734  1
  Na  Na37  1  0.00710434  0.49797175  0.92827944  1
  Na  Na38  1  0.01113120  0.97943840  0.91251686  1
  Na  Na39  1  0.50362891  0.98821110  0.92061352  1
  Na  Na40  1  0.48590670  0.54205405  0.52592574  1
  Na  Na41  1  -0.03610052  0.51310669  0.29433105  1
  Na  Na42  1  0.74655397  0.74920788  0.00047307  1
  Na  Na43  1  0.25368970  0.25144164  0.32926610  1
  Na  Na44  1  0.74304137  0.75910970  0.65258479  1
  Na  Na45  1  0.24574111  0.74388394  0.67049739  1
  Na  Na46  1  0.75631461  0.26145596  -0.00242757  1
  Na  Na47  1  0.75309443  0.75903578  0.33643067  1
  Na  Na48  1  0.26364350  0.74872965  0.34316459  1
  Na  Na49  1  0.25804827  0.25881066  -0.01660088  1
  Na  Na50  1  0.73985155  0.24247625  0.34142717  1
  Na  Na51  1  0.24354768  0.24541789  0.67967939  1
  Na  Na52  1  0.75913486  0.76611869  0.50179806  1
  Na  Na53  1  0.25428484  0.25416291  0.15973376  1
  Na  Na54  1  0.73675683  0.23644840  0.50847550  1
  Na  Na55  1  0.27110339  0.75524114  0.14900213  1
  Na  Na56  1  0.74573749  0.74735859  0.17047702  1
  Na  Na57  1  0.24795587  0.25116301  0.50232428  1
  Na  Na58  1  0.74773292  0.75109580  0.82492333  1
  Na  Na59  1  0.22740599  0.72962162  0.84957099  1
  Na  Na60  1  0.76076512  0.26300182  0.81808271  1
  Na  Na61  1  0.75405713  0.25560622  0.16758565  1
  Fe  Fe62  1  0.96667845  0.80625913  0.45161629  1
  Fe  Fe63  1  0.96535126  0.31074496  0.12211601  1
  Fe  Fe64  1  0.46593669  0.30611816  0.78488864  1
  Fe  Fe65  1  0.97019473  0.80348127  0.11747490  1
  Fe  Fe66  1  0.45977699  0.80706953  0.78211761  1
  Fe  Fe67  1  0.96630883  0.79925913  0.78406213  1
  Fe  Fe68  1  0.46449273  0.31058067  0.45482904  1
  Fe  Fe69  1  0.46503060  0.30386024  0.12080678  1
  Fe  Fe70  1  0.96249183  0.30721182  0.78287512  1
  Fe  Fe71  1  0.96381713  0.31079676  0.45150754  1
  Fe  Fe72  1  0.19424281  0.03286263  0.38205439  1
  Fe  Fe73  1  0.19113069  0.53664657  0.37815359  1
  Fe  Fe74  1  0.68511028  0.53784702  0.70353701  1
  Fe  Fe75  1  0.69767737  0.53446404  0.04519273  1
  Fe  Fe76  1  0.19335754  0.53567119  0.05091050  1
  Fe  Fe77  1  0.69281277  0.03642788  0.04552299  1
  Fe  Fe78  1  0.19369105  0.03615700  0.71839004  1
  Fe  Fe79  1  0.70132709  0.03248070  0.70831772  1
  Fe  Fe80  1  0.70146433  0.53228162  0.37174453  1
  Fe  Fe81  1  0.19090699  0.03345634  0.04862519  1
  Fe  Fe82  1  0.03478787  0.19124114  0.21667686  1
  Fe  Fe83  1  0.52967540  0.69633098  0.88062792  1
  Fe  Fe84  1  0.03831019  0.68984701  0.54373906  1
  Fe  Fe85  1  0.04028102  0.68654415  0.21253737  1
  Fe  Fe86  1  0.53649776  0.19018416  0.54400061  1
  Fe  Fe87  1  0.53595654  0.70257234  0.21021643  1
  Fe  Fe88  1  0.03240632  0.19506037  0.55053152  1
  Fe  Fe89  1  0.53488222  0.18951701  0.21523786  1
  Fe  Fe90  1  0.03414207  0.19224127  0.88180193  1
  Fe  Fe91  1  0.53535396  0.19129271  0.87863378  1
  Fe  Fe92  1  0.80421862  0.96487667  0.95236485  1
  Fe  Fe93  1  0.80940765  0.46509006  0.61734554  1
  Fe  Fe94  1  0.30638456  0.46309801  0.28754450  1
  Fe  Fe95  1  0.29738609  0.47185921  0.62468221  1
  Fe  Fe96  1  0.30509880  0.96717044  0.61667795  1
  Fe  Fe97  1  0.81042031  0.46685373  0.95117939  1
  Fe  Fe98  1  0.80231917  0.96986040  0.29066207  1
  Fe  Fe99  1  0.31639210  0.96179724  0.28801971  1
  Fe  Fe100  1  0.31033339  0.96020150  0.95543547  1
  Fe  Fe101  1  0.30659077  0.46034081  0.95021241  1
  S  S102  1  0.35861582  0.13735709  0.08145249  1
  S  S103  1  0.35722164  0.14290761  0.41725122  1
  S  S104  1  0.35994970  0.14062402  0.75016896  1
  S  S105  1  0.36616844  0.63155826  0.08826630  1
  S  S106  1  0.35867092  0.63243728  0.41225395  1
  S  S107  1  0.35553539  0.64118694  0.75530326  1
  S  S108  1  0.86012062  0.13976567  0.08270261  1
  S  S109  1  0.86068171  0.14390655  0.41623502  1
  S  S110  1  0.86024104  0.14392482  0.75375122  1
  S  S111  1  0.86130740  0.64246529  0.08196823  1
  S  S112  1  0.86443796  0.63942237  0.41223607  1
  S  S113  1  0.85353890  0.64217839  0.74690459  1
  S  S114  1  0.14044104  0.35632268  0.25026187  1
  S  S115  1  0.13890066  0.35548912  0.58382203  1
  S  S116  1  0.13661670  0.35786464  0.91606232  1
  S  S117  1  0.14365074  0.85811089  0.24972699  1
  S  S118  1  0.14019161  0.86228261  0.58348174  1
  S  S119  1  0.13653900  0.86235888  0.91394248  1
  S  S120  1  0.63818582  0.35919215  0.24996308  1
  S  S121  1  0.63971411  0.36163343  0.58081598  1
  S  S122  1  0.64017665  0.36042937  0.91495226  1
  S  S123  1  0.64632641  0.85930460  0.25189833  1
  S  S124  1  0.63444074  0.86399552  0.58728302  1
  S  S125  1  0.63856193  0.86064309  0.91429580  1
  S  S126  1  0.06369647  0.16591985  0.04282064  1
  S  S127  1  0.06631140  0.16410292  0.37518603  1
  S  S128  1  0.06531409  0.16906041  0.70884523  1
  S  S129  1  0.06667751  0.66631899  0.04573404  1
  S  S130  1  0.06945941  0.67316201  0.37381310  1
  S  S131  1  0.06520656  0.66851739  0.70714108  1
  S  S132  1  0.56886757  0.17184949  0.04121816  1
  S  S133  1  0.56212201  0.16866221  0.37741047  1
  S  S134  1  0.57281310  0.17536286  0.71210671  1
  S  S135  1  0.57055136  0.66876948  0.04146068  1
  S  S136  1  0.59002203  0.67610265  0.37409514  1
  S  S137  1  0.55923018  0.66524792  0.70735642  1
  S  S138  1  0.32361037  0.42327252  0.12085649  1
  S  S139  1  0.32320714  0.42949016  0.45964936  1
  S  S140  1  0.33814775  0.43340847  0.79492888  1
  S  S141  1  0.32171036  0.93066024  0.12004825  1
  S  S142  1  0.33313067  0.94080765  0.45586582  1
  S  S143  1  0.32655360  0.93469574  0.79145910  1
  S  S144  1  0.83252690  0.43543241  0.12105977  1
  S  S145  1  0.82989301  0.43342968  0.45594168  1
  S  S146  1  0.83271514  0.43663815  0.79156579  1
  S  S147  1  0.83158963  0.93313389  0.12561624  1
  S  S148  1  0.84499864  0.93807491  0.46312849  1
  S  S149  1  0.82819572  0.93289625  0.79148143  1
  S  S150  1  0.42572655  0.32030109  0.28689799  1
  S  S151  1  0.42905771  0.33109060  0.62420846  1
  S  S152  1  0.43716836  0.32978849  0.96072725  1
  S  S153  1  0.43997795  0.82935063  0.28910952  1
  S  S154  1  0.41558391  0.82903673  0.62811392  1
  S  S155  1  0.43512143  0.83358645  0.95589823  1
  S  S156  1  0.93191658  0.32240922  0.28559738  1
  S  S157  1  0.93209192  0.32961006  0.62285397  1
  S  S158  1  0.93268151  0.32924610  0.95589517  1
  S  S159  1  0.93732002  0.83285092  0.29021124  1
  S  S160  1  0.94041467  0.82882583  0.62408258  1
  S  S161  1  0.92934249  0.83476158  0.95734800  1
  S  S162  1  0.16459530  0.06374984  0.20832678  1
  S  S163  1  0.16643690  0.06757279  0.54269578  1
  S  S164  1  0.16303648  0.06669546  0.87513698  1
  S  S165  1  0.17169682  0.56451623  0.21113555  1
  S  S166  1  0.16780493  0.56419862  0.53806268  1
  S  S167  1  0.17092063  0.55729966  0.88397822  1
  S  S168  1  0.67098619  0.06805432  0.20648105  1
  S  S169  1  0.66779466  0.06858078  0.54392089  1
  S  S170  1  0.67290165  0.07105485  0.87628643  1
  S  S171  1  0.67396551  0.57276949  0.20762992  1
  S  S172  1  0.68039581  0.57215489  0.54044875  1
  S  S173  1  0.67006360  0.56824181  0.87281044  1
  O  O174  1  0.36752326  0.21700253  0.07363436  1
  O  O175  1  0.36489117  0.22284948  0.41090751  1
  O  O176  1  0.37045523  0.21983445  0.74250176  1
  O  O177  1  0.36808614  0.70403767  0.07119120  1
  O  O178  1  0.37552782  0.70550749  0.39990953  1
  O  O179  1  0.36763233  0.72026000  0.74795830  1
  O  O180  1  0.86963516  0.21867213  0.07504270  1
  O  O181  1  0.87505297  0.22082161  0.40447376  1
  O  O182  1  0.86568404  0.22601854  0.75320316  1
  O  O183  1  0.87019093  0.72102726  0.07187622  1
  O  O184  1  0.86984672  0.72180859  0.40887481  1
  O  O185  1  0.86029866  0.72212928  0.73949371  1
  O  O186  1  0.28102273  0.13027195  0.09350975  1
  O  O187  1  0.27829358  0.13330788  0.42622333  1
  O  O188  1  0.28048492  0.13196125  0.75671890  1
  O  O189  1  0.29223361  0.61868174  0.10432755  1
  O  O190  1  0.27446983  0.62667370  0.41144717  1
  O  O191  1  0.28020639  0.63285373  0.76589888  1
  O  O192  1  0.78085734  0.13153156  0.09047301  1
  O  O193  1  0.78311338  0.13876917  0.42291741  1
  O  O194  1  0.78215226  0.13077299  0.76466712  1
  O  O195  1  0.78098286  0.63476991  0.08836880  1
  O  O196  1  0.78358904  0.62722347  0.41778637  1
  O  O197  1  0.77128851  0.63023614  0.74845454  1
  O  O198  1  0.13077211  0.27874770  0.26200508  1
  O  O199  1  0.13143432  0.27382885  0.58832381  1
  O  O200  1  0.12683193  0.28090423  0.92916606  1
  O  O201  1  0.13412016  0.78021244  0.25890532  1
  O  O202  1  0.13354113  0.78388199  0.59280527  1
  O  O203  1  0.12935833  0.78579095  0.92199813  1
  O  O204  1  0.62500695  0.28355044  0.26434341  1
  O  O205  1  0.62651092  0.28382982  0.58861098  1
  O  O206  1  0.63114972  0.28142168  0.92278988  1
  O  O207  1  0.63558605  0.77209397  0.24435506  1
  O  O208  1  0.61720438  0.79530208  0.60733532  1
  O  O209  1  0.62944440  0.78277229  0.92450076  1
  O  O210  1  0.22116517  0.36278874  0.24526243  1
  O  O211  1  0.21961052  0.36662970  0.58026326  1
  O  O212  1  0.21642410  0.36463699  0.91065311  1
  O  O213  1  0.22289329  0.86911345  0.24421768  1
  O  O214  1  0.21634162  0.87494407  0.57275599  1
  O  O215  1  0.21403364  0.87652132  0.90364259  1
  O  O216  1  0.71054939  0.36181082  0.23228828  1
  O  O217  1  0.71851394  0.36807794  0.57197507  1
  O  O218  1  0.71960727  0.36966533  0.90768739  1
  O  O219  1  0.72927378  0.86691125  0.24961489  1
  O  O220  1  0.71426186  0.86567899  0.58165131  1
  O  O221  1  0.71908776  0.86844343  0.90865796  1
  O  O222  1  0.41957307  0.12822831  0.14723856  1
  O  O223  1  0.41692189  0.13554091  0.48490404  1
  O  O224  1  0.41837429  0.13345430  0.81885915  1
  O  O225  1  0.43150615  0.63105894  0.15878577  1
  O  O226  1  0.40810087  0.62212281  0.48189636  1
  O  O227  1  0.41967040  0.63012433  0.82019263  1
  O  O228  1  0.91855705  0.12869001  0.14967102  1
  O  O229  1  0.92083916  0.13583742  0.48459329  1
  O  O230  1  0.91982596  0.13311850  0.82155327  1
  O  O231  1  0.91823199  0.63736336  0.15157172  1
  O  O232  1  0.92106995  0.63334453  0.48204145  1
  O  O233  1  0.90879817  0.63618562  0.81606380  1
  O  O234  1  0.36185538  0.07963612  0.01100212  1
  O  O235  1  0.36303211  0.08525959  0.34769760  1
  O  O236  1  0.36853679  0.08227537  0.68202779  1
  O  O237  1  0.37871179  0.56502640  0.02660879  1
  O  O238  1  0.36805922  0.56747825  0.34627865  1
  O  O239  1  0.36282335  0.58314679  0.68488312  1
  O  O240  1  0.86797153  0.08045043  0.01456157  1
  O  O241  1  0.87082159  0.08218314  0.34965385  1
  O  O242  1  0.86942484  0.08915682  0.68633084  1
  O  O243  1  0.86875269  0.58271638  0.01454910  1
  O  O244  1  0.87484726  0.58530139  0.34518226  1
  O  O245  1  0.86695903  0.58421135  0.68074005  1
  O  O246  1  0.08477121  0.35884814  0.17835006  1
  O  O247  1  0.08275070  0.36058252  0.51174888  1
  O  O248  1  0.07913242  0.36103851  0.84518419  1
  O  O249  1  0.08480009  0.86617924  0.18066995  1
  O  O250  1  0.07884928  0.86945834  0.51608501  1
  O  O251  1  0.07556356  0.87249988  0.84670633  1
  O  O252  1  0.57231672  0.36841410  0.18651696  1
  O  O253  1  0.58053885  0.37246746  0.51405120  1
  O  O254  1  0.58128527  0.36874187  0.84687554  1
  O  O255  1  0.59354973  0.87341567  0.18540215  1
  O  O256  1  0.57690855  0.87752722  0.52378361  1
  O  O257  1  0.58146885  0.86840822  0.84565665  1
  O  O258  1  0.12940695  0.41763604  0.31461010  1
  O  O259  1  0.12459418  0.41176640  0.64770542  1
  O  O260  1  0.12391330  0.41953430  0.98033400  1
  O  O261  1  0.13124144  0.91814435  0.31611145  1
  O  O262  1  0.13098450  0.92190180  0.65151186  1
  O  O263  1  0.12584098  0.92364989  0.98114359  1
  O  O264  1  0.63980356  0.42283966  0.32047441  1
  O  O265  1  0.63535375  0.42197139  0.65014748  1
  O  O266  1  0.63110217  0.41982237  0.98248947  1
  O  O267  1  0.63778122  0.90677447  0.32223364  1
  O  O268  1  0.63378576  0.93425064  0.65960670  1
  O  O269  1  0.63035551  0.92183327  0.98134491  1
  O  O270  1  0.02944409  0.19689921  0.10511061  1
  O  O271  1  0.03320894  0.19503485  0.43753485  1
  O  O272  1  0.02882736  0.19863664  0.76997042  1
  O  O273  1  0.03376801  0.70110313  0.11085805  1
  O  O274  1  0.03432676  0.70473090  0.43597278  1
  O  O275  1  0.02488040  0.69966581  0.76428578  1
  O  O276  1  0.53333088  0.19919452  0.10311163  1
  O  O277  1  0.52414675  0.20745841  0.43735434  1
  O  O278  1  0.53187957  0.19981804  0.77095924  1
  O  O279  1  0.53597496  0.69017203  0.10265071  1
  O  O280  1  0.55535718  0.69474324  0.43251520  1
  O  O281  1  0.52831880  0.69966296  0.77277596  1
  O  O282  1  0.29218832  0.45630657  0.05812128  1
  O  O283  1  0.29254349  0.46297961  0.39697823  1
  O  O284  1  0.31414014  0.46780328  0.73423187  1
  O  O285  1  0.28904431  0.97016372  0.05977903  1
  O  O286  1  0.29515749  0.97586957  0.39258487  1
  O  O287  1  0.29807776  0.97311318  0.73145840  1
  O  O288  1  0.79957822  0.46820037  0.05605231  1
  O  O289  1  0.79979431  0.47193816  0.39769580  1
  O  O290  1  0.80479031  0.47157005  0.72982822  1
  O  O291  1  0.80087643  0.96967076  0.06454208  1
  O  O292  1  0.81994156  0.96796127  0.39849655  1
  O  O293  1  0.80045446  0.97401063  0.73477512  1
  O  O294  1  0.46380788  0.28880970  0.22716388  1
  O  O295  1  0.46545870  0.30424447  0.56306369  1
  O  O296  1  0.47260209  0.30042684  0.89885277  1
  O  O297  1  0.47566226  0.79595031  0.22716942  1
  O  O298  1  0.43484582  0.79208778  0.56129078  1
  O  O299  1  0.46953301  0.80222477  0.89139438  1
  O  O300  1  0.97179772  0.29037485  0.22550063  1
  O  O301  1  0.97051436  0.30142993  0.56233563  1
  O  O302  1  0.96904278  0.29790727  0.89505271  1
  O  O303  1  0.97219636  0.80391743  0.22804563  1
  O  O304  1  0.97508916  0.79261533  0.56225953  1
  O  O305  1  0.96147464  0.81404922  0.89503573  1
  O  O306  1  0.19642099  0.02988063  0.26996129  1
  O  O307  1  0.19799430  0.03442306  0.60566726  1
  O  O308  1  0.19341681  0.03480953  0.93854957  1
  O  O309  1  0.19903461  0.52135970  0.26750978  1
  O  O310  1  0.19243598  0.52411802  0.59547931  1
  O  O311  1  0.21311477  0.52788440  0.95073355  1
  O  O312  1  0.70182407  0.03141920  0.26503931  1
  O  O313  1  0.69864815  0.04896158  0.61583124  1
  O  O314  1  0.70144546  0.02989689  0.93451024  1
  O  O315  1  0.69606271  0.53315305  0.26531758  1
  O  O316  1  0.70822670  0.52726953  0.59650661  1
  O  O317  1  0.70187274  0.53157586  0.93375598  1
  O  O318  1  0.07748632  0.08231657  0.03668121  1
  O  O319  1  0.08243670  0.08110081  0.36966161  1
  O  O320  1  0.08514164  0.08782093  0.70552984  1
  O  O321  1  0.08619869  0.58606007  0.04618448  1
  O  O322  1  0.08543332  0.59154683  0.36972595  1
  O  O323  1  0.07994621  0.58818400  0.70561980  1
  O  O324  1  0.58744859  0.08996269  0.03275457  1
  O  O325  1  0.57443801  0.08968130  0.37762234  1
  O  O326  1  0.59990091  0.09735534  0.71137618  1
  O  O327  1  0.59201968  0.58675301  0.02904305  1
  O  O328  1  0.61226385  0.59357439  0.35768653  1
  O  O329  1  0.57910066  0.58427009  0.70775552  1
  O  O330  1  0.40435781  0.40396340  0.12248856  1
  O  O331  1  0.40523008  0.41247018  0.46460304  1
  O  O332  1  0.42201625  0.41473482  0.80451818  1
  O  O333  1  0.39948873  0.91264847  0.11984570  1
  O  O334  1  0.41368268  0.93374923  0.45951006  1
  O  O335  1  0.40879967  0.91814510  0.79997622  1
  O  O336  1  0.90908590  0.40772690  0.11767139  1
  O  O337  1  0.91044800  0.41308685  0.45835709  1
  O  O338  1  0.91434526  0.41635578  0.79826880  1
  O  O339  1  0.91453296  0.91771817  0.13064302  1
  O  O340  1  0.92805015  0.91542399  0.46770742  1
  O  O341  1  0.90867316  0.91257029  0.79190033  1
  O  O342  1  0.40044545  0.39625805  0.28353771  1
  O  O343  1  0.40601029  0.41088063  0.63056930  1
  O  O344  1  0.41933796  0.41194931  0.96609632  1
  O  O345  1  0.41615227  0.90823434  0.28413278  1
  O  O346  1  0.40181999  0.91369347  0.63539828  1
  O  O347  1  0.41546464  0.91467221  0.95514735  1
  O  O348  1  0.90975371  0.39852984  0.28385651  1
  O  O349  1  0.91555632  0.41152267  0.62951932  1
  O  O350  1  0.91581532  0.41041524  0.95870262  1
  O  O351  1  0.92052855  0.91544679  0.29604581  1
  O  O352  1  0.93296436  0.91103821  0.62915350  1
  O  O353  1  0.91371775  0.91956127  0.97315915  1
  O  O354  1  0.08169756  0.08018227  0.20527384  1
  O  O355  1  0.08376831  0.08332021  0.53757137  1
  O  O356  1  0.07901332  0.08063869  0.86765785  1
  O  O357  1  0.09171262  0.58393674  0.20941824  1
  O  O358  1  0.08604220  0.58331325  0.53327870  1
  O  O359  1  0.09072806  0.56662195  0.88747401  1
  O  O360  1  0.58884588  0.08463901  0.20249545  1
  O  O361  1  0.58563736  0.08978849  0.53707766  1
  O  O362  1  0.59086156  0.08572687  0.87124008  1
  O  O363  1  0.59282684  0.59585842  0.19563416  1
  O  O364  1  0.60304303  0.59201218  0.53959824  1
  O  O365  1  0.58775178  0.58368551  0.86849846  1
  O  O366  1  0.13645858  0.21415879  0.05743254  1
  O  O367  1  0.13790938  0.21368815  0.38786257  1
  O  O368  1  0.13411535  0.22168135  0.72178700  1
  O  O369  1  0.13790226  0.71669537  0.06016884  1
  O  O370  1  0.13874904  0.72402690  0.38577368  1
  O  O371  1  0.13761819  0.72074301  0.72567743  1
  O  O372  1  0.63946602  0.22491819  0.05745958  1
  O  O373  1  0.63425416  0.22068070  0.39376636  1
  O  O374  1  0.63898972  0.23346857  0.73012993  1
  O  O375  1  0.64014699  0.72385704  0.05804488  1
  O  O376  1  0.65975237  0.73108544  0.38881850  1
  O  O377  1  0.63128396  0.71517561  0.72108511  1
  O  O378  1  0.27170582  0.35130369  0.10533166  1
  O  O379  1  0.27201098  0.35718849  0.44390262  1
  O  O380  1  0.28611832  0.36284753  0.77984651  1
  O  O381  1  0.26682774  0.86232412  0.10452592  1
  O  O382  1  0.28460527  0.86726945  0.43877947  1
  O  O383  1  0.27409569  0.86356712  0.77306026  1
  O  O384  1  0.77654598  0.36783737  0.10846363  1
  O  O385  1  0.77677702  0.36296575  0.44099114  1
  O  O386  1  0.77869654  0.36876313  0.77865510  1
  O  O387  1  0.78133300  0.86061654  0.10849427  1
  O  O388  1  0.79344091  0.86761793  0.45027492  1
  O  O389  1  0.77436948  0.86319166  0.77533629  1
  O  O390  1  0.35783965  0.26349939  0.27246364  1
  O  O391  1  0.36119680  0.27456819  0.60916102  1
  O  O392  1  0.36678163  0.27809181  0.94588594  1
  O  O393  1  0.36878549  0.77669762  0.27347543  1
  O  O394  1  0.34792203  0.78844487  0.63482393  1
  O  O395  1  0.36327475  0.78301404  0.93935320  1
  O  O396  1  0.86380544  0.26589277  0.26916056  1
  O  O397  1  0.86157653  0.27688224  0.60500068  1
  O  O398  1  0.85976036  0.27849593  0.93894687  1
  O  O399  1  0.86577311  0.78127722  0.27416571  1
  O  O400  1  0.86537158  0.78247696  0.60767625  1
  O  O401  1  0.85712383  0.78369781  0.94092184  1
  O  O402  1  0.21331068  0.13593615  0.22108857  1
  O  O403  1  0.21663002  0.13928227  0.55692190  1
  O  O404  1  0.21161905  0.13884380  0.88824697  1
  O  O405  1  0.22583989  0.63443974  0.23039070  1
  O  O406  1  0.22011168  0.63535465  0.55642698  1
  O  O407  1  0.21584960  0.63162331  0.89749299  1
  O  O408  1  0.72024369  0.14152153  0.22156646  1
  O  O409  1  0.71870640  0.13628921  0.55096213  1
  O  O410  1  0.72479108  0.14383742  0.89842574  1
  O  O411  1  0.73038182  0.64208740  0.22700024  1
  O  O412  1  0.73744446  0.64129701  0.56149798  1
  O  O413  1  0.72046468  0.64135026  0.89036118  1
  O  O414  1  0.49730926  0.33370743  0.03359748  1
  O  O415  1  0.48506700  0.32990427  0.36128244  1
  O  O416  1  0.49074636  0.33442392  0.69625035  1
  O  O417  1  0.49549940  0.83856870  0.02558030  1
  O  O418  1  0.49846979  0.84119181  0.36201226  1
  O  O419  1  0.48529005  0.83682749  0.69866159  1
  O  O420  1  0.99073149  0.32901552  0.02773123  1
  O  O421  1  0.99166028  0.32574273  0.35871866  1
  O  O422  1  0.99131745  0.32929348  0.69474641  1
  O  O423  1  0.98983075  0.83108496  0.02748911  1
  O  O424  1  0.99680442  0.83386821  0.36184278  1
  O  O425  1  0.99602211  0.82606633  0.69683566  1
  O  O426  1  0.15837332  0.00464105  0.13469065  1
  O  O427  1  0.16393966  0.00705962  0.47078493  1
  O  O428  1  0.16297281  0.00653409  0.80380114  1
  O  O429  1  0.16800530  0.50663159  0.13711023  1
  O  O430  1  0.16400776  0.50714120  0.46338430  1
  O  O431  1  0.17007381  0.49732695  0.81481358  1
  O  O432  1  0.66801301  0.01084526  0.13187906  1
  O  O433  1  0.66294619  -0.00005049  0.48022968  1
  O  O434  1  0.67467093  0.01628530  0.80300270  1
  O  O435  1  0.67380559  0.51338569  0.13526359  1
  O  O436  1  0.67957027  0.51693537  0.46486229  1
  O  O437  1  0.67017502  0.51058118  0.80067482  1
  O  O438  1  0.00579345  0.16095446  0.30290707  1
  O  O439  1  0.00370104  0.16230606  0.63574387  1
  O  O440  1  0.00438910  0.16520560  0.97100777  1
  O  O441  1  0.00689144  0.66847149  0.30143915  1
  O  O442  1  0.01038607  0.66539852  0.63121776  1
  O  O443  1  0.00434443  0.66096385  0.97659730  1
  O  O444  1  0.50543728  0.16774627  0.30302020  1
  O  O445  1  0.51287314  0.16883714  0.63895840  1
  O  O446  1  0.50840439  0.17010285  0.96925773  1
  O  O447  1  0.53025097  0.67761293  0.30028064  1
  O  O448  1  0.49788780  0.65817640  0.63718315  1
  O  O449  1  0.50926060  0.66857749  0.97049694  1
  O  O450  1  0.32739601  0.48269203  0.19241143  1
  O  O451  1  0.32532434  0.48916130  0.53143489  1
  O  O452  1  0.34179610  0.49301873  0.86839625  1
  O  O453  1  0.32394810  0.99085221  0.19356171  1
  O  O454  1  0.32744809  0.99824254  0.52722965  1
  O  O455  1  0.32611809  0.99361098  0.86366562  1
  O  O456  1  0.84393558  0.49833843  0.19135102  1
  O  O457  1  0.83736194  0.49103373  0.53142134  1
  O  O458  1  0.83803672  0.49802155  0.86502025  1
  O  O459  1  0.83293186  0.99123859  0.19815283  1
  O  O460  1  0.85357040  1.00005444  0.53346969  1
  O  O461  1  0.83680048  0.99037770  0.86741353  1
