# generated using pymatgen
data_Na31Fe20(SO4)36
_symmetry_space_group_name_H-M   'P 1'
_cell_length_a   18.07499034
_cell_length_b   18.06938956
_cell_length_c   19.70225595
_cell_angle_alpha   107.57118795
_cell_angle_beta   107.57574128
_cell_angle_gamma   90.69903261
_symmetry_Int_Tables_number   1
_chemical_formula_structural   Na31Fe20(SO4)36
_chemical_formula_sum   'Na62 Fe40 S72 O288'
_cell_volume   5810.28773733
_cell_formula_units_Z   2
loop_
 _symmetry_equiv_pos_site_id
 _symmetry_equiv_pos_as_xyz
  1  'x, y, z'
loop_
 _atom_site_type_symbol
 _atom_site_label
 _atom_site_symmetry_multiplicity
 _atom_site_fract_x
 _atom_site_fract_y
 _atom_site_fract_z
 _atom_site_occupancy
  Na  Na0  1  0.14823526  0.37258587  0.10504941  1
  Na  Na1  1  0.13173747  0.32744630  0.38648386  1
  Na  Na2  1  0.13390771  0.35968111  0.73949914  1
  Na  Na3  1  0.12787665  0.86014396  0.07351055  1
  Na  Na4  1  0.13319149  0.86583094  0.41460391  1
  Na  Na5  1  0.13337959  0.86729097  0.75001657  1
  Na  Na6  1  0.64269776  0.36358614  0.08427616  1
  Na  Na7  1  0.64306886  0.37041634  0.41703284  1
  Na  Na8  1  0.63150075  0.37105586  0.75078762  1
  Na  Na9  1  0.64606534  0.87501968  0.10222634  1
  Na  Na10  1  0.63283314  0.87070994  0.41763796  1
  Na  Na11  1  0.63139285  0.87096142  0.75500778  1
  Na  Na12  1  0.33578268  0.15131038  0.24168787  1
  Na  Na13  1  0.35648289  0.14010911  0.58493244  1
  Na  Na14  1  0.36680058  0.14983063  0.93240387  1
  Na  Na15  1  0.37096876  0.62350262  0.25130456  1
  Na  Na16  1  0.36713696  0.63064490  0.58382249  1
  Na  Na17  1  0.36743259  0.63458282  0.91888552  1
  Na  Na18  1  0.86675296  0.14217712  0.25589259  1
  Na  Na19  1  0.85907126  0.13425687  0.57724241  1
  Na  Na20  1  0.86553189  0.13698585  0.91960221  1
  Na  Na21  1  0.86298466  0.62676827  0.24141573  1
  Na  Na22  1  0.86435339  0.62442649  0.57018801  1
  Na  Na23  1  0.87285707  0.64157231  0.92208965  1
  Na  Na24  1  1.02544195  0.45142934  0.46426793  1
  Na  Na25  1  0.48984683  0.00592785  0.09250346  1
  Na  Na26  1  0.99406049  0.53749988  0.74797100  1
  Na  Na27  1  0.98663729  0.03674985  0.09222547  1
  Na  Na28  1  0.53175740  0.48679724  0.35399315  1
  Na  Na29  1  0.52301550  0.45891006  0.13497876  1
  Na  Na30  1  0.98758285  0.01334847  0.75119657  1
  Na  Na31  1  0.49522668  0.02226002  0.39300039  1
  Na  Na32  1  0.96644688  0.01635507  0.40538434  1
  Na  Na33  1  0.50513717  0.48173730  0.58087000  1
  Na  Na34  1  0.00942487  0.98441391  0.92109335  1
  Na  Na35  1  0.50195826  1.00582923  0.90173616  1
  Na  Na36  1  0.50080619  0.99367023  0.58905367  1
  Na  Na37  1  -0.01586225  1.00861816  0.24676776  1
  Na  Na38  1  0.53809682  0.49126352  0.93436166  1
  Na  Na39  1  0.01928399  0.48822958  0.24790689  1
  Na  Na40  1  0.00687459  0.49799320  0.92829542  1
  Na  Na41  1  0.00915243  0.99308657  0.57798799  1
  Na  Na42  1  0.74086751  0.24012731  0.01182438  1
  Na  Na43  1  0.23439254  0.73764066  0.00147593  1
  Na  Na44  1  0.76295180  0.26289955  0.32177230  1
  Na  Na45  1  0.24363182  0.74643252  0.67265172  1
  Na  Na46  1  0.74071833  0.74095783  0.01113958  1
  Na  Na47  1  0.74156756  0.74057587  0.67091655  1
  Na  Na48  1  0.24875232  0.25200935  0.01615233  1
  Na  Na49  1  0.24990422  0.74607929  0.33441411  1
  Na  Na50  1  0.73915515  0.73714815  0.33856186  1
  Na  Na51  1  0.75454295  0.25688319  0.66314515  1
  Na  Na52  1  0.73843069  0.73434951  0.50330896  1
  Na  Na53  1  0.26064826  0.26095426  0.82534170  1
  Na  Na54  1  0.24707739  0.24962976  0.49834690  1
  Na  Na55  1  0.77250162  0.26722434  0.49110534  1
  Na  Na56  1  0.25292514  0.74660372  0.50098454  1
  Na  Na57  1  0.74437179  0.74364784  0.84090907  1
  Na  Na58  1  0.74566608  0.74317834  0.17496986  1
  Na  Na59  1  0.23515221  0.73981043  0.84089962  1
  Na  Na60  1  0.74179753  0.24704886  0.83481059  1
  Na  Na61  1  0.24551602  0.74437505  0.16892845  1
  Fe  Fe62  1  0.96788936  0.80006356  0.78417602  1
  Fe  Fe63  1  0.46242209  0.80742278  0.78600188  1
  Fe  Fe64  1  0.96740284  0.80679812  0.44650430  1
  Fe  Fe65  1  0.46373898  0.30846052  0.78375520  1
  Fe  Fe66  1  0.96664502  0.80969943  0.11768276  1
  Fe  Fe67  1  0.96465068  0.30927088  0.79254948  1
  Fe  Fe68  1  0.46343293  0.81055005  0.12138201  1
  Fe  Fe69  1  0.46185722  0.80818851  0.45259082  1
  Fe  Fe70  1  0.96733361  0.30251569  0.12767358  1
  Fe  Fe71  1  0.45734334  0.30106340  0.43003142  1
  Fe  Fe72  1  0.19226559  0.03875711  0.71486190  1
  Fe  Fe73  1  0.69212125  0.53572888  0.71369012  1
  Fe  Fe74  1  0.20475740  0.52374436  0.37369212  1
  Fe  Fe75  1  0.69749135  0.03035609  0.37413273  1
  Fe  Fe76  1  0.19306516  0.53115203  0.70996416  1
  Fe  Fe77  1  0.19620499  0.53347300  0.04746170  1
  Fe  Fe78  1  0.69269924  0.03477673  0.71356229  1
  Fe  Fe79  1  0.69372975  0.03667301  0.05082895  1
  Fe  Fe80  1  0.18644962  0.03551172  0.37980821  1
  Fe  Fe81  1  0.19139519  0.03611038  0.05629121  1
  Fe  Fe82  1  0.03856240  0.68589346  0.53912427  1
  Fe  Fe83  1  0.53451728  0.69075291  0.54491066  1
  Fe  Fe84  1  0.53404573  0.19383225  0.54339345  1
  Fe  Fe85  1  0.02888466  0.20244218  0.54722211  1
  Fe  Fe86  1  0.03475490  0.68942338  0.20911837  1
  Fe  Fe87  1  0.03567740  0.19486699  0.88575405  1
  Fe  Fe88  1  0.53297797  0.19337399  0.88024167  1
  Fe  Fe89  1  0.53453929  0.20224757  0.20877190  1
  Fe  Fe90  1  0.53704020  0.68586758  0.21098812  1
  Fe  Fe91  1  0.53417410  0.69092188  0.88137621  1
  Fe  Fe92  1  0.80575012  0.96346599  0.61582267  1
  Fe  Fe93  1  0.80377809  0.47016140  0.96300349  1
  Fe  Fe94  1  0.30515554  0.96511524  0.95193213  1
  Fe  Fe95  1  0.31418683  0.46070864  0.62249896  1
  Fe  Fe96  1  0.80363291  0.46823552  0.29378225  1
  Fe  Fe97  1  0.31608157  0.46436102  0.95487841  1
  Fe  Fe98  1  0.80593783  0.96602412  0.95223731  1
  Fe  Fe99  1  0.80593711  0.46653899  0.61802387  1
  Fe  Fe100  1  0.30713618  0.96776242  0.62078832  1
  Fe  Fe101  1  0.30338141  0.96617515  0.28298811  1
  S  S102  1  0.36164040  0.13351333  0.08531302  1
  S  S103  1  0.36026861  0.13648694  0.41788354  1
  S  S104  1  0.35983956  0.14071049  0.75069119  1
  S  S105  1  0.36067817  0.64444730  0.08198069  1
  S  S106  1  0.36250105  0.64199813  0.42107115  1
  S  S107  1  0.35853705  0.64117560  0.75053444  1
  S  S108  1  0.85721236  0.13984183  0.08101685  1
  S  S109  1  0.85588310  0.14050363  0.42030785  1
  S  S110  1  0.85894972  0.13969732  0.75043641  1
  S  S111  1  0.86053993  0.64519226  0.08058653  1
  S  S112  1  0.86285874  0.64384342  0.41202532  1
  S  S113  1  0.85732499  0.64176897  0.74891601  1
  S  S114  1  0.13505128  0.35954928  0.24765102  1
  S  S115  1  0.14622453  0.35868250  0.58323265  1
  S  S116  1  0.14162600  0.35806267  0.91728218  1
  S  S117  1  0.14098685  0.85787887  0.24888965  1
  S  S118  1  0.13918533  0.86157888  0.58386450  1
  S  S119  1  0.13827675  0.86410247  0.91315003  1
  S  S120  1  0.64198812  0.36149153  0.24990121  1
  S  S121  1  0.63998699  0.35882975  0.58207731  1
  S  S122  1  0.64132644  0.35590458  0.91480285  1
  S  S123  1  0.63679150  0.85882549  0.24984712  1
  S  S124  1  0.63876076  0.86070574  0.58369538  1
  S  S125  1  0.63840852  0.86110144  0.91717790  1
  S  S126  1  0.06455687  0.16858479  0.04106958  1
  S  S127  1  0.06179278  0.15473373  0.37644924  1
  S  S128  1  0.06383064  0.16786037  0.71070558  1
  S  S129  1  0.06868372  0.66937776  0.04043462  1
  S  S130  1  0.07560896  0.66962304  0.37431441  1
  S  S131  1  0.06884519  0.67127827  0.70494624  1
  S  S132  1  0.56527305  0.16487669  0.03899145  1
  S  S133  1  0.57604813  0.17613109  0.37700104  1
  S  S134  1  0.56659572  0.16827860  0.70547673  1
  S  S135  1  0.56563126  0.67579816  0.04538480  1
  S  S136  1  0.56795227  0.67997379  0.38032598  1
  S  S137  1  0.56635461  0.67398321  0.71107976  1
  S  S138  1  0.32985006  0.43634345  0.11586307  1
  S  S139  1  0.33046201  0.42699862  0.46269483  1
  S  S140  1  0.33264621  0.43500332  0.79315095  1
  S  S141  1  0.32488424  0.92825404  0.12120813  1
  S  S142  1  0.32898075  0.93341309  0.45879590  1
  S  S143  1  0.32764934  0.93422769  0.79042157  1
  S  S144  1  0.83142644  0.42784862  0.12600259  1
  S  S145  1  0.83162993  0.43555761  0.45767104  1
  S  S146  1  0.82830138  0.43442444  0.79519453  1
  S  S147  1  0.83147538  0.93602494  0.12248534  1
  S  S148  1  0.83180714  0.92963381  0.45752779  1
  S  S149  1  0.83127510  0.93271201  0.78815222  1
  S  S150  1  0.44231812  0.33133874  0.29377323  1
  S  S151  1  0.43636126  0.32599827  0.62147426  1
  S  S152  1  0.44044304  0.33256361  0.95493783  1
  S  S153  1  0.42848139  0.83226404  0.29311502  1
  S  S154  1  0.43343691  0.83394041  0.62614238  1
  S  S155  1  0.43138705  0.83235212  0.95627840  1
  S  S156  1  0.93067759  0.33494174  0.29340079  1
  S  S157  1  0.93143077  0.33255900  0.63202503  1
  S  S158  1  0.92689005  0.32610577  0.95807562  1
  S  S159  1  0.93907101  0.83251566  0.28710702  1
  S  S160  1  0.93183042  0.83031825  0.62175809  1
  S  S161  1  0.93237870  0.83873283  0.95640621  1
  S  S162  1  0.16002497  0.05504835  0.20690775  1
  S  S163  1  0.16639664  0.06468889  0.54213902  1
  S  S164  1  0.16990680  0.07029216  0.87671998  1
  S  S165  1  0.17190579  0.57203499  0.20919110  1
  S  S166  1  0.17879242  0.56826328  0.54236310  1
  S  S167  1  0.16694705  0.55784150  0.87266088  1
  S  S168  1  0.66671227  0.07406380  0.20877286  1
  S  S169  1  0.66823994  0.06656837  0.54171913  1
  S  S170  1  0.66947230  0.06689562  0.87541209  1
  S  S171  1  0.67443198  0.56399865  0.20878060  1
  S  S172  1  0.66515550  0.56445811  0.54373051  1
  S  S173  1  0.67122502  0.56865044  0.87652025  1
  O  O174  1  0.36319479  0.20399688  0.06453504  1
  O  O175  1  0.36695789  0.21686700  0.41540005  1
  O  O176  1  0.36889661  0.21929680  0.74295683  1
  O  O177  1  0.36881763  0.72283313  0.07096309  1
  O  O178  1  0.36502910  0.72571082  0.41960457  1
  O  O179  1  0.36749030  0.71990492  0.74043861  1
  O  O180  1  0.87165227  0.21851633  0.07172417  1
  O  O181  1  0.85676312  0.22055662  0.41771298  1
  O  O182  1  0.86796682  0.21976799  0.74537272  1
  O  O183  1  0.87744761  0.72116071  0.06689883  1
  O  O184  1  0.87893600  0.71844393  0.39670907  1
  O  O185  1  0.86744994  0.72115403  0.74074643  1
  O  O186  1  0.28625770  0.11979399  0.09900492  1
  O  O187  1  0.28442920  0.12319449  0.43048066  1
  O  O188  1  0.28082419  0.13146606  0.75954227  1
  O  O189  1  0.27976307  0.63657543  0.08615077  1
  O  O190  1  0.28378003  0.62742388  0.42872245  1
  O  O191  1  0.27804825  0.63317160  0.75645286  1
  O  O192  1  0.77419055  0.13366509  0.07877985  1
  O  O193  1  0.78073656  0.12287999  0.43530419  1
  O  O194  1  0.78012356  0.13020117  0.75895416  1
  O  O195  1  0.78203037  0.64468769  0.08695046  1
  O  O196  1  0.78673775  0.64454745  0.42343858  1
  O  O197  1  0.77493059  0.63532256  0.75163919  1
  O  O198  1  0.12014516  0.28651569  0.25987844  1
  O  O199  1  0.12918631  0.28299998  0.59481764  1
  O  O200  1  0.13165651  0.27975279  0.92720839  1
  O  O201  1  0.13330696  0.77910031  0.25754479  1
  O  O202  1  0.12921383  0.78281934  0.59198923  1
  O  O203  1  0.13426743  0.78793511  0.92373797  1
  O  O204  1  0.63161349  0.27756210  0.25192744  1
  O  O205  1  0.63147710  0.27932381  0.58981947  1
  O  O206  1  0.63430178  0.27257924  0.91537614  1
  O  O207  1  0.62491466  0.77988185  0.25939987  1
  O  O208  1  0.63051256  0.78037706  0.58942771  1
  O  O209  1  0.63134135  0.78024328  0.92151267  1
  O  O210  1  0.20633560  0.37103612  0.23143137  1
  O  O211  1  0.23139508  0.36541566  0.59004445  1
  O  O212  1  0.22050170  0.36613771  0.90965688  1
  O  O213  1  0.22024996  0.86674069  0.24102816  1
  O  O214  1  0.21846147  0.86986601  0.57642528  1
  O  O215  1  0.21547348  0.87696759  0.90104555  1
  O  O216  1  0.72755982  0.37128410  0.25521647  1
  O  O217  1  0.72047101  0.36809743  0.57676477  1
  O  O218  1  0.72110286  0.36869174  0.90910461  1
  O  O219  1  0.71076258  0.86471537  0.23532422  1
  O  O220  1  0.71679801  0.86911867  0.57355736  1
  O  O221  1  0.71403280  0.87044091  0.90201036  1
  O  O222  1  0.42491763  0.13445532  0.15584290  1
  O  O223  1  0.42407036  0.12384543  0.48152116  1
  O  O224  1  0.41856387  0.13133799  0.81830818  1
  O  O225  1  0.41674520  0.64101405  0.15336612  1
  O  O226  1  0.42073107  0.63800956  0.49222940  1
  O  O227  1  0.41558256  0.63745576  0.82106308  1
  O  O228  1  0.91077456  0.12966268  0.14857737  1
  O  O229  1  0.91922269  0.13248292  0.48821747  1
  O  O230  1  0.91866738  0.12814326  0.81641341  1
  O  O231  1  0.91784886  0.63821411  0.15021717  1
  O  O232  1  0.92352972  0.63703921  0.48011224  1
  O  O233  1  0.91284118  0.63243119  0.81600341  1
  O  O234  1  0.37428423  0.06630039  0.02346805  1
  O  O235  1  0.36625525  0.08057661  0.34655801  1
  O  O236  1  0.36606098  0.08176314  0.68156577  1
  O  O237  1  0.37221502  0.58493387  0.01669700  1
  O  O238  1  0.37569750  0.58945075  0.35539759  1
  O  O239  1  0.36848929  0.58155094  0.68455361  1
  O  O240  1  0.86797815  0.08049215  0.01272722  1
  O  O241  1  0.86378916  0.08385690  0.35252167  1
  O  O242  1  0.86567555  0.08185107  0.68080286  1
  O  O243  1  0.86759437  0.58232687  0.01420288  1
  O  O244  1  0.86680456  0.57966703  0.34456729  1
  O  O245  1  0.86583687  0.58307273  0.68012282  1
  O  O246  1  0.06732199  0.36897457  0.17952413  1
  O  O247  1  0.09958024  0.36324725  0.51020198  1
  O  O248  1  0.08264125  0.36216891  0.84699179  1
  O  O249  1  0.08261334  0.86514590  0.18018602  1
  O  O250  1  0.08039721  0.87067251  0.51593212  1
  O  O251  1  0.07753770  0.87017061  0.84422573  1
  O  O252  1  0.59270859  0.36768228  0.17866596  1
  O  O253  1  0.58143124  0.36804563  0.51545898  1
  O  O254  1  0.58327726  0.36447875  0.84554349  1
  O  O255  1  0.57288516  0.86949717  0.18554389  1
  O  O256  1  0.57811095  0.87286978  0.51894315  1
  O  O257  1  0.57515720  0.87285677  0.85300022  1
  O  O258  1  0.12633640  0.42657080  0.31298649  1
  O  O259  1  0.13214297  0.42165148  0.64665500  1
  O  O260  1  0.12958174  0.41890916  0.98211084  1
  O  O261  1  0.13331609  0.91650027  0.31701002  1
  O  O262  1  0.13025756  0.92134821  0.65143647  1
  O  O263  1  0.12745629  0.92626498  0.97861846  1
  O  O264  1  0.62745613  0.41515741  0.31517874  1
  O  O265  1  0.63231618  0.41764426  0.65107858  1
  O  O266  1  0.62995276  0.41001117  0.98149751  1
  O  O267  1  0.63395543  0.91791288  0.32073929  1
  O  O268  1  0.63334996  0.91786180  0.65407239  1
  O  O269  1  0.63562610  0.91753231  0.98830893  1
  O  O270  1  0.02802772  0.20245167  0.10000008  1
  O  O271  1  0.03393677  0.18393498  0.44195847  1
  O  O272  1  0.02658142  0.19528616  0.77151216  1
  O  O273  1  0.03778516  0.70098111  0.10570102  1
  O  O274  1  0.04140204  0.70142280  0.43736018  1
  O  O275  1  0.02911700  0.69881965  0.76213410  1
  O  O276  1  0.53087169  0.19121357  0.10048273  1
  O  O277  1  0.52878394  0.20175411  0.43080957  1
  O  O278  1  0.52994424  0.19616893  0.76584615  1
  O  O279  1  0.52806146  0.70808911  0.10623138  1
  O  O280  1  0.52712117  0.71094086  0.43957950  1
  O  O281  1  0.53032982  0.70208853  0.77290314  1
  O  O282  1  0.29362195  0.47460260  0.05287233  1
  O  O283  1  0.30199856  0.46101288  0.40190837  1
  O  O284  1  0.30263057  0.47275236  0.73270080  1
  O  O285  1  0.28802193  0.95867993  0.05692886  1
  O  O286  1  0.29901041  0.96585516  0.39581157  1
  O  O287  1  0.29763932  0.96964538  0.72863335  1
  O  O288  1  0.81497318  0.47019944  0.07084245  1
  O  O289  1  0.80864750  0.47679001  0.39988609  1
  O  O290  1  0.80160228  0.47181548  0.73428663  1
  O  O291  1  0.79683679  0.96829665  0.05736332  1
  O  O292  1  0.79931814  0.96262770  0.39696174  1
  O  O293  1  0.80026919  0.96908033  0.72674415  1
  O  O294  1  0.47198491  0.28990250  0.22973114  1
  O  O295  1  0.47492451  0.29763340  0.56221960  1
  O  O296  1  0.47166349  0.29675168  0.88882302  1
  O  O297  1  0.46170972  0.80270806  0.23086578  1
  O  O298  1  0.47157119  0.80338910  0.56679758  1
  O  O299  1  0.46831987  0.79967742  0.89592602  1
  O  O300  1  0.95121272  0.30667991  0.22211321  1
  O  O301  1  0.96735727  0.30468104  0.57272016  1
  O  O302  1  0.97005845  0.29804897  0.90072431  1
  O  O303  1  0.97449299  0.79539019  0.22568336  1
  O  O304  1  0.96642830  0.80358740  0.55967905  1
  O  O305  1  0.96576792  0.81742993  0.89458120  1
  O  O306  1  0.20292138  0.02655903  0.27274391  1
  O  O307  1  0.20068416  0.03101423  0.60600246  1
  O  O308  1  0.20214589  0.03776431  0.93974080  1
  O  O309  1  0.20345276  0.54388105  0.27352990  1
  O  O310  1  0.20807664  0.53143911  0.60324363  1
  O  O311  1  0.20801677  0.52592628  0.93483323  1
  O  O312  1  0.68101055  0.03624163  0.26679887  1
  O  O313  1  0.69640359  0.02820902  0.60217522  1
  O  O314  1  0.69795095  0.02845704  0.93486346  1
  O  O315  1  0.70968221  0.53038182  0.27093043  1
  O  O316  1  0.69992718  0.52950366  0.60670941  1
  O  O317  1  0.69931014  0.52886787  0.93300590  1
  O  O318  1  0.08049008  0.08623431  0.04119168  1
  O  O319  1  0.07646667  0.06892979  0.36845750  1
  O  O320  1  0.07850302  0.08353180  0.70344822  1
  O  O321  1  0.09465945  0.59033278  0.03939757  1
  O  O322  1  0.09669518  0.59013560  0.37055963  1
  O  O323  1  0.09070817  0.59161652  0.70420500  1
  O  O324  1  0.58228157  0.08106292  0.02896356  1
  O  O325  1  0.59200091  0.09458741  0.37356891  1
  O  O326  1  0.58726032  0.08692878  0.70020222  1
  O  O327  1  0.58237581  0.59666159  0.04157879  1
  O  O328  1  0.59281346  0.60512298  0.38392583  1
  O  O329  1  0.58495979  0.59259543  0.70292665  1
  O  O330  1  0.40174833  0.40875281  0.10377446  1
  O  O331  1  0.41111481  0.40408854  0.46624692  1
  O  O332  1  0.41297959  0.41517881  0.79603152  1
  O  O333  1  0.40627495  0.91408446  0.12206772  1
  O  O334  1  0.41165313  0.91637194  0.46630821  1
  O  O335  1  0.40842430  0.91403251  0.79495182  1
  O  O336  1  0.91382088  0.40569644  0.13844561  1
  O  O337  1  0.91138383  0.41676208  0.47127720  1
  O  O338  1  0.91100406  0.41676031  0.80433084  1
  O  O339  1  0.91235735  0.91614632  0.12194612  1
  O  O340  1  0.91564944  0.91539243  0.46262883  1
  O  O341  1  0.91376630  0.91774189  0.79281873  1
  O  O342  1  0.41701788  0.40443092  0.28506749  1
  O  O343  1  0.42109149  0.40847412  0.62806864  1
  O  O344  1  0.42182633  0.41296752  0.95333949  1
  O  O345  1  0.40805167  0.91364885  0.29815075  1
  O  O346  1  0.41474463  0.91472119  0.62742981  1
  O  O347  1  0.41453123  0.91393742  0.95792908  1
  O  O348  1  0.90131531  0.41461717  0.29873450  1
  O  O349  1  0.91201960  0.41470815  0.64104027  1
  O  O350  1  0.91045489  0.40708253  0.96190099  1
  O  O351  1  0.93109739  0.91426378  0.29128015  1
  O  O352  1  0.91707324  0.91477521  0.63213173  1
  O  O353  1  0.91762078  0.92405839  0.97089333  1
  O  O354  1  0.07845271  0.05822983  0.20498336  1
  O  O355  1  0.08393887  0.07736990  0.53868922  1
  O  O356  1  0.08601369  0.08321147  0.87001250  1
  O  O357  1  0.08884192  0.58780556  0.20236748  1
  O  O358  1  0.09622058  0.58391520  0.53593138  1
  O  O359  1  0.08470096  0.56220827  0.86908572  1
  O  O360  1  0.58540797  0.10019091  0.19437104  1
  O  O361  1  0.58477926  0.08160273  0.53305278  1
  O  O362  1  0.58861095  0.08601046  0.87106058  1
  O  O363  1  0.59650800  0.58930799  0.21562931  1
  O  O364  1  0.58806490  0.58948637  0.55113889  1
  O  O365  1  0.59101081  0.58979864  0.87560270  1
  O  O366  1  0.13547512  0.21563378  0.05036664  1
  O  O367  1  0.13671919  0.19911545  0.38957118  1
  O  O368  1  0.13649367  0.21727173  0.72907798  1
  O  O369  1  0.13782890  0.72443481  0.05430781  1
  O  O370  1  0.14484544  0.72478120  0.38928079  1
  O  O371  1  0.13996542  0.72582954  0.72323245  1
  O  O372  1  0.63450899  0.21634196  0.05142250  1
  O  O373  1  0.64809110  0.22945669  0.40274340  1
  O  O374  1  0.63714773  0.22139146  0.72112664  1
  O  O375  1  0.63601861  0.73058806  0.06249830  1
  O  O376  1  0.63595541  0.73813253  0.39816747  1
  O  O377  1  0.63765551  0.72805160  0.72958979  1
  O  O378  1  0.27169324  0.37073289  0.10138966  1
  O  O379  1  0.27724657  0.36080381  0.45550141  1
  O  O380  1  0.27909508  0.36614046  0.77909161  1
  O  O381  1  0.27766425  0.85561236  0.11037429  1
  O  O382  1  0.27805528  0.86235801  0.44572217  1
  O  O383  1  0.27474077  0.86391000  0.77520493  1
  O  O384  1  0.77570293  0.35804142  0.10244520  1
  O  O385  1  0.77479272  0.36503468  0.43452555  1
  O  O386  1  0.77566838  0.36198022  0.77483225  1
  O  O387  1  0.78092307  0.86452554  0.10892191  1
  O  O388  1  0.78527243  0.85709037  0.44799075  1
  O  O389  1  0.78035115  0.86103820  0.77228779  1
  O  O390  1  0.38324982  0.27837541  0.30057323  1
  O  O391  1  0.36474454  0.27448567  0.60327257  1
  O  O392  1  0.36811866  0.28267733  0.94057732  1
  O  O393  1  0.35904710  0.77956984  0.28136990  1
  O  O394  1  0.36201975  0.78237547  0.61073763  1
  O  O395  1  0.35906873  0.78182967  0.94044558  1
  O  O396  1  0.86943128  0.27860362  0.28905381  1
  O  O397  1  0.85930165  0.27996312  0.61557365  1
  O  O398  1  0.85506526  0.27209514  0.93426864  1
  O  O399  1  0.86545698  0.78537018  0.27246008  1
  O  O400  1  0.85921151  0.78048377  0.60576191  1
  O  O401  1  0.85932462  0.78874658  0.93886873  1
  O  O402  1  0.20133445  0.12836588  0.21458894  1
  O  O403  1  0.21457813  0.13633282  0.55477563  1
  O  O404  1  0.21774268  0.14310098  0.89002766  1
  O  O405  1  0.22092695  0.64449148  0.22023447  1
  O  O406  1  0.22867703  0.64292017  0.56273563  1
  O  O407  1  0.21037588  0.63495193  0.88759924  1
  O  O408  1  0.72529947  0.13949564  0.22637371  1
  O  O409  1  0.71933542  0.13931025  0.56274348  1
  O  O410  1  0.72289966  0.13754194  0.89254451  1
  O  O411  1  0.72639846  0.63526357  0.22139434  1
  O  O412  1  0.71916609  0.63445337  0.55791916  1
  O  O413  1  0.72443142  0.64016976  0.89281229  1
  O  O414  1  0.50255813  0.33694878  0.02366718  1
  O  O415  1  0.50997115  0.34752180  0.36696576  1
  O  O416  1  0.49363503  0.32622237  0.69491947  1
  O  O417  1  0.48969168  0.83790860  0.03007007  1
  O  O418  1  0.48984788  0.83831106  0.36599453  1
  O  O419  1  0.49133281  0.83788915  0.70000353  1
  O  O420  1  0.98091629  0.32335070  0.03123800  1
  O  O421  1  1.00156683  0.34687560  0.35752504  1
  O  O422  1  0.98969804  0.33344274  0.70547690  1
  O  O423  1  0.99144049  0.83304114  0.02591270  1
  O  O424  1  0.99705329  0.83060817  0.36007172  1
  O  O425  1  0.99098893  0.82931350  0.69330331  1
  O  O426  1  0.16192710  -0.00620370  0.13539475  1
  O  O427  1  0.16674942  0.00304528  0.47160427  1
  O  O428  1  0.16828604  0.01014682  0.80432392  1
  O  O429  1  0.17123226  0.51124532  0.13833800  1
  O  O430  1  0.17957684  0.51180661  0.47074905  1
  O  O431  1  0.17000944  0.50280521  0.79946492  1
  O  O432  1  0.66352730  0.01199448  0.13623944  1
  O  O433  1  0.66992256  0.00931802  0.46995780  1
  O  O434  1  0.66784475  0.00855762  0.80245645  1
  O  O435  1  0.65977508  0.50428838  0.13583873  1
  O  O436  1  0.65294726  0.50496079  0.47170828  1
  O  O437  1  0.66484282  0.51289784  0.80024022  1
  O  O438  1  0.00083927  0.15299313  0.30745809  1
  O  O439  1  0.00607986  0.16724010  0.63814572  1
  O  O440  1  0.00438646  0.15836862  0.96528500  1
  O  O441  1  0.01353922  0.66643056  0.30310897  1
  O  O442  1  0.01308785  0.66621855  0.62957877  1
  O  O443  1  0.00670120  0.66092294  0.97034910  1
  O  O444  1  0.52404111  0.17751544  0.30261332  1
  O  O445  1  0.50727616  0.16335906  0.63203338  1
  O  O446  1  0.50333573  0.16181623  0.96645679  1
  O  O447  1  0.50954330  0.67535323  0.30650246  1
  O  O448  1  0.50717103  0.67593529  0.64054221  1
  O  O449  1  0.50677444  0.67653800  0.97258147  1
  O  O450  1  0.34143546  0.49753214  0.18693076  1
  O  O451  1  0.34271726  0.49066040  0.53764240  1
  O  O452  1  0.33724494  0.49592469  0.86598819  1
  O  O453  1  0.32789827  0.98986697  0.19230026  1
  O  O454  1  0.33181061  0.99453371  0.53084468  1
  O  O455  1  0.33193456  0.99505432  0.86274886  1
  O  O456  1  0.82861582  0.48424917  0.19923162  1
  O  O457  1  0.82300124  0.49225021  0.52850420  1
  O  O458  1  0.82756460  0.49184590  0.86714261  1
  O  O459  1  0.83835817  0.99792949  0.19232565  1
  O  O460  1  0.83713324  0.98991216  0.53230579  1
  O  O461  1  0.83266516  0.99158166  0.86067802  1
