# generated using pymatgen
data_Na31Fe20(SO4)36
_symmetry_space_group_name_H-M   'P 1'
_cell_length_a   18.06177357
_cell_length_b   18.06953748
_cell_length_c   19.70002834
_cell_angle_alpha   107.58514276
_cell_angle_beta   107.57028819
_cell_angle_gamma   90.70664525
_symmetry_Int_Tables_number   1
_chemical_formula_structural   Na31Fe20(SO4)36
_chemical_formula_sum   'Na62 Fe40 S72 O288'
_cell_volume   5805.02436861
_cell_formula_units_Z   2
loop_
 _symmetry_equiv_pos_site_id
 _symmetry_equiv_pos_as_xyz
  1  'x, y, z'
loop_
 _atom_site_type_symbol
 _atom_site_label
 _atom_site_symmetry_multiplicity
 _atom_site_fract_x
 _atom_site_fract_y
 _atom_site_fract_z
 _atom_site_occupancy
  Na  Na0  1  0.12420836  0.37381817  0.08674714  1
  Na  Na1  1  0.13997680  0.37188395  0.42698109  1
  Na  Na2  1  0.13463309  0.35914835  0.74789526  1
  Na  Na3  1  0.13910411  0.86870119  0.08594736  1
  Na  Na4  1  0.13655243  0.86737837  0.42074326  1
  Na  Na5  1  0.12791021  0.86047005  0.73568774  1
  Na  Na6  1  0.63233505  0.36320672  0.07830988  1
  Na  Na7  1  0.64237524  0.36312277  0.42527685  1
  Na  Na8  1  0.63725544  0.36491888  0.74504078  1
  Na  Na9  1  0.63608976  0.86409307  0.08507036  1
  Na  Na10  1  0.63445284  0.85933047  0.41211831  1
  Na  Na11  1  0.63363336  0.86721261  0.75287935  1
  Na  Na12  1  0.35978751  0.12366013  0.23669426  1
  Na  Na13  1  0.35302923  0.12791810  0.57387648  1
  Na  Na14  1  0.36533130  0.13072765  0.91349953  1
  Na  Na15  1  0.36590593  0.62570183  0.24390258  1
  Na  Na16  1  0.35052156  0.62806957  0.57720595  1
  Na  Na17  1  0.37131696  0.62537707  0.91806064  1
  Na  Na18  1  0.86762064  0.13822687  0.25159298  1
  Na  Na19  1  0.85523568  0.17074604  0.60576535  1
  Na  Na20  1  0.87057009  0.13641036  0.92161947  1
  Na  Na21  1  0.86934551  0.64230084  0.25328309  1
  Na  Na22  1  0.86840004  0.64099921  0.58331699  1
  Na  Na23  1  0.86664839  0.63740029  0.91661282  1
  Na  Na24  1  0.98870497  0.02193564  0.74848812  1
  Na  Na25  1  0.49366387  0.00454135  0.41534206  1
  Na  Na26  1  0.49228744  0.50790712  0.41622599  1
  Na  Na27  1  0.98534292  0.01442562  0.41862815  1
  Na  Na28  1  0.48136815  0.00177509  0.09947675  1
  Na  Na29  1  0.99012396  0.54370693  0.41694842  1
  Na  Na30  1  1.00557319  0.01896702  0.07699450  1
  Na  Na31  1  1.00910033  0.48628449  0.75977470  1
  Na  Na32  1  0.48673303  0.50806708  0.08699846  1
  Na  Na33  1  0.01109484  0.50157659  0.58235588  1
  Na  Na34  1  0.02164132  0.47075516  0.93604009  1
  Na  Na35  1  0.45868966  1.01485024  0.63575562  1
  Na  Na36  1  0.46164448  0.51387844  0.64479076  1
  Na  Na37  1  0.50753897  0.99343633  0.90966911  1
  Na  Na38  1  0.00614032  0.49824093  0.20720985  1
  Na  Na39  1  0.05080635  0.99135535  0.91922764  1
  Na  Na40  1  0.00974899  0.97705803  0.58039697  1
  Na  Na41  1  0.01357250  0.97932730  0.24681509  1
  Na  Na42  1  0.25855402  0.26217801  0.66092755  1
  Na  Na43  1  0.23558277  0.74343093  0.66879497  1
  Na  Na44  1  0.76837496  0.26283884  -0.00815651  1
  Na  Na45  1  0.24862453  0.25062232  0.00100475  1
  Na  Na46  1  0.24130081  0.73441964  0.00745502  1
  Na  Na47  1  0.23579564  0.73818909  0.33725866  1
  Na  Na48  1  0.75735040  0.75354273  -0.00938665  1
  Na  Na49  1  0.74208578  0.74368864  0.67675106  1
  Na  Na50  1  0.74349290  0.24288129  0.34423154  1
  Na  Na51  1  0.25531948  0.25482500  0.32948416  1
  Na  Na52  1  0.74490673  0.74165672  0.17434140  1
  Na  Na53  1  0.23697499  0.74827117  0.50683454  1
  Na  Na54  1  0.25234714  0.25095154  0.83138055  1
  Na  Na55  1  0.76630896  0.26021754  0.15978909  1
  Na  Na56  1  0.77299337  0.26606753  0.81394762  1
  Na  Na57  1  0.22191981  0.72037496  0.16846981  1
  Na  Na58  1  0.75674989  0.75750727  0.48873321  1
  Na  Na59  1  0.24585572  0.24472154  0.16367803  1
  Na  Na60  1  0.26269186  0.26548523  0.49734519  1
  Na  Na61  1  0.24621889  0.74454854  0.83789758  1
  Fe  Fe62  1  0.46676309  0.31205858  0.79033973  1
  Fe  Fe63  1  0.96646021  0.80567371  0.78449666  1
  Fe  Fe64  1  0.46619770  0.80793728  0.12110108  1
  Fe  Fe65  1  0.46186681  0.80818205  0.78525771  1
  Fe  Fe66  1  0.96935351  0.79708887  0.11869970  1
  Fe  Fe67  1  0.96698855  0.79612505  0.44951337  1
  Fe  Fe68  1  0.46140247  0.81015795  0.45496578  1
  Fe  Fe69  1  0.47046421  0.30718744  0.12331734  1
  Fe  Fe70  1  0.96116802  0.31055767  0.45105745  1
  Fe  Fe71  1  0.46913630  0.30776427  0.45788748  1
  Fe  Fe72  1  0.19298135  0.03693730  0.38097919  1
  Fe  Fe73  1  0.69179527  0.03387973  0.71553646  1
  Fe  Fe74  1  0.20074666  0.53041950  0.71118536  1
  Fe  Fe75  1  0.68700829  0.53413374  0.04192126  1
  Fe  Fe76  1  0.69539679  0.03126245  0.04905782  1
  Fe  Fe77  1  0.69287829  0.53706058  0.71503139  1
  Fe  Fe78  1  0.19932910  0.03270461  0.70706430  1
  Fe  Fe79  1  0.19257046  0.53426090  0.38157413  1
  Fe  Fe80  1  0.69144247  0.03505908  0.38399799  1
  Fe  Fe81  1  0.68600120  0.53566014  0.37561699  1
  Fe  Fe82  1  0.53813474  0.19030273  0.88054791  1
  Fe  Fe83  1  0.03024349  0.20303019  0.20887808  1
  Fe  Fe84  1  0.54306035  0.19207950  0.55166876  1
  Fe  Fe85  1  0.53695403  0.69547275  0.21897796  1
  Fe  Fe86  1  0.53646031  0.68958421  0.87990527  1
  Fe  Fe87  1  0.02750586  0.19824212  0.54980440  1
  Fe  Fe88  1  0.53819944  0.19204400  0.21884534  1
  Fe  Fe89  1  0.53356678  0.69422963  0.55037747  1
  Fe  Fe90  1  0.02863041  0.20233589  0.87699111  1
  Fe  Fe91  1  0.03436506  0.68836350  0.87636877  1
  Fe  Fe92  1  0.30867289  0.46282413  0.28534611  1
  Fe  Fe93  1  0.81089818  0.46416001  0.61976983  1
  Fe  Fe94  1  0.80684646  0.96310518  0.28649329  1
  Fe  Fe95  1  0.81064451  0.46670045  0.95241349  1
  Fe  Fe96  1  0.30583013  0.96546424  0.28301467  1
  Fe  Fe97  1  0.80915535  0.96083181  0.95006822  1
  Fe  Fe98  1  0.29866145  0.97007680  0.95483790  1
  Fe  Fe99  1  0.30221309  0.46523022  0.95958819  1
  Fe  Fe100  1  0.80484872  0.96619505  0.61765903  1
  Fe  Fe101  1  0.80597184  0.46687873  0.28329701  1
  S  S102  1  0.36506306  0.14034719  0.08399270  1
  S  S103  1  0.36286812  0.13874452  0.41658793  1
  S  S104  1  0.36337562  0.14387114  0.75167413  1
  S  S105  1  0.36330922  0.64144845  0.08482932  1
  S  S106  1  0.36093673  0.64025272  0.41839010  1
  S  S107  1  0.36104672  0.64462106  0.75253542  1
  S  S108  1  0.85906330  0.13643787  0.08388140  1
  S  S109  1  0.85824517  0.13916831  0.41535740  1
  S  S110  1  0.85823956  0.13804282  0.75098941  1
  S  S111  1  0.85311174  0.64015334  0.08173239  1
  S  S112  1  0.85236986  0.64007540  0.41284212  1
  S  S113  1  0.85720124  0.64178753  0.74532413  1
  S  S114  1  0.14464792  0.36090674  0.25433631  1
  S  S115  1  0.13684422  0.35848629  0.58416381  1
  S  S116  1  0.14243943  0.35572729  0.91682556  1
  S  S117  1  0.14179322  0.86134696  0.24767782  1
  S  S118  1  0.13734294  0.86307507  0.57916384  1
  S  S119  1  0.14091490  0.85452424  0.91451232  1
  S  S120  1  0.64443965  0.35724248  0.25185099  1
  S  S121  1  0.64283525  0.36161677  0.58478066  1
  S  S122  1  0.64287876  0.35609507  0.91451984  1
  S  S123  1  0.64024892  0.86054936  0.25111724  1
  S  S124  1  0.63939723  0.85995188  0.58297801  1
  S  S125  1  0.63909623  0.86026618  0.91641522  1
  S  S126  1  0.06704508  0.17187368  0.03907685  1
  S  S127  1  0.06641808  0.17238915  0.37513854  1
  S  S128  1  0.06369086  0.16537248  0.70765713  1
  S  S129  1  0.06388526  0.66773743  0.03599747  1
  S  S130  1  0.06415650  0.66619391  0.37029544  1
  S  S131  1  0.06515443  0.66550184  0.70732449  1
  S  S132  1  0.57204351  0.16664088  0.04370582  1
  S  S133  1  0.56709189  0.16750249  0.37644070  1
  S  S134  1  0.56960283  0.16973844  0.71216049  1
  S  S135  1  0.56832944  0.67399692  0.04506055  1
  S  S136  1  0.56373096  0.67062404  0.37871837  1
  S  S137  1  0.56680495  0.67359734  0.71020218  1
  S  S138  1  0.34152188  0.42928551  0.12865678  1
  S  S139  1  0.33914852  0.43527289  0.45919748  1
  S  S140  1  0.32688934  0.42906330  0.79501166  1
  S  S141  1  0.33099991  0.92871604  0.12112392  1
  S  S142  1  0.33061767  0.93497300  0.45420561  1
  S  S143  1  0.32420020  0.93086717  0.79198743  1
  S  S144  1  0.82324828  0.43448857  0.11891147  1
  S  S145  1  0.82845560  0.43676075  0.45495893  1
  S  S146  1  0.83373302  0.44354364  0.79188120  1
  S  S147  1  0.83150835  0.92870876  0.12409765  1
  S  S148  1  0.83014450  0.93359457  0.45837821  1
  S  S149  1  0.83442360  0.93261785  0.79188374  1
  S  S150  1  0.43458532  0.32409191  0.29222508  1
  S  S151  1  0.43238505  0.31914164  0.62126504  1
  S  S152  1  0.43475283  0.32733793  0.95953616  1
  S  S153  1  0.42922893  0.82854287  0.29044188  1
  S  S154  1  0.42751640  0.82271505  0.62042473  1
  S  S155  1  0.43434730  0.83535324  0.95944466  1
  S  S156  1  0.93336282  0.33418908  0.29373880  1
  S  S157  1  0.93707166  0.34277255  0.62465714  1
  S  S158  1  0.93425262  0.32910099  0.95570895  1
  S  S159  1  0.93359150  0.83473133  0.29090357  1
  S  S160  1  0.92893018  0.83455148  0.62353000  1
  S  S161  1  0.93517345  0.83169266  0.95882347  1
  S  S162  1  0.16393948  0.06931346  0.20849158  1
  S  S163  1  0.16339717  0.07565019  0.53997144  1
  S  S164  1  0.16940505  0.07080094  0.87058088  1
  S  S165  1  0.17854639  0.56033600  0.21357769  1
  S  S166  1  0.16765079  0.56389180  0.54348177  1
  S  S167  1  0.17444255  0.56410483  0.87437768  1
  S  S168  1  0.67199035  0.06558411  0.21120155  1
  S  S169  1  0.66927330  0.06465303  0.54175394  1
  S  S170  1  0.67247038  0.06614063  0.87960888  1
  S  S171  1  0.66619284  0.56549102  0.20455837  1
  S  S172  1  0.66865809  0.56935095  0.54093278  1
  S  S173  1  0.67043262  0.56698351  0.87617031  1
  O  O174  1  0.37873950  0.21886553  0.07547779  1
  O  O175  1  0.37124840  0.21938516  0.41167192  1
  O  O176  1  0.36852639  0.22670320  0.75058373  1
  O  O177  1  0.37616092  0.71741406  0.07075280  1
  O  O178  1  0.36856302  0.71948362  0.41030093  1
  O  O179  1  0.36533763  0.72619325  0.74736375  1
  O  O180  1  0.85991221  0.21299186  0.07370493  1
  O  O181  1  0.86890874  0.21618954  0.40400919  1
  O  O182  1  0.86219848  0.21410155  0.74102439  1
  O  O183  1  0.86535641  0.72016843  0.07466759  1
  O  O184  1  0.86377044  0.72023397  0.40846757  1
  O  O185  1  0.87085837  0.72049010  0.73722156  1
  O  O186  1  0.29072127  0.13498382  0.09778726  1
  O  O187  1  0.28587086  0.13102366  0.42956881  1
  O  O188  1  0.28456023  0.13028076  0.75973168  1
  O  O189  1  0.28679363  0.63693049  0.09453320  1
  O  O190  1  0.28223405  0.63176554  0.42739709  1
  O  O191  1  0.28153358  0.63230607  0.75920653  1
  O  O192  1  0.78367900  0.12127021  0.09844114  1
  O  O193  1  0.77774281  0.12962877  0.41798173  1
  O  O194  1  0.78256485  0.12296814  0.76408120  1
  O  O195  1  0.76941346  0.63355479  0.08179789  1
  O  O196  1  0.77019336  0.63068974  0.41488434  1
  O  O197  1  0.77648830  0.63619368  0.74938869  1
  O  O198  1  0.13120546  0.27905605  0.25644334  1
  O  O199  1  0.12131208  0.28270319  0.59792411  1
  O  O200  1  0.12903250  0.27008935  0.91395379  1
  O  O201  1  0.13911224  0.78332036  0.25445988  1
  O  O202  1  0.13020970  0.78922068  0.59443601  1
  O  O203  1  0.13474232  0.77259601  0.91686124  1
  O  O204  1  0.63450628  0.27857866  0.26100371  1
  O  O205  1  0.63475750  0.28407060  0.59482524  1
  O  O206  1  0.63338133  0.27789740  0.92531203  1
  O  O207  1  0.63086094  0.78177490  0.25908626  1
  O  O208  1  0.63247028  0.78117041  0.59203380  1
  O  O209  1  0.62941773  0.78144470  0.92419929  1
  O  O210  1  0.22611498  0.36331135  0.24788786  1
  O  O211  1  0.21426064  0.35975793  0.57535838  1
  O  O212  1  0.22674290  0.36133948  0.91923036  1
  O  O213  1  0.21733520  0.87676809  0.23403895  1
  O  O214  1  0.20999746  0.87497828  0.56370784  1
  O  O215  1  0.22023002  0.86778170  0.90837744  1
  O  O216  1  0.72383172  0.36588015  0.24449427  1
  O  O217  1  0.71963639  0.37438868  0.57449572  1
  O  O218  1  0.72362204  0.36467200  0.90968961  1
  O  O219  1  0.71862774  0.86887104  0.24093314  1
  O  O220  1  0.71726357  0.86997115  0.57240136  1
  O  O221  1  0.71742126  0.86972314  0.90839523  1
  O  O222  1  0.42892351  0.12772560  0.14821967  1
  O  O223  1  0.42497814  0.12576508  0.47997370  1
  O  O224  1  0.42247978  0.13529902  0.82022801  1
  O  O225  1  0.42531569  0.63485854  0.15292685  1
  O  O226  1  0.41999627  0.63120575  0.48614154  1
  O  O227  1  0.41922695  0.64044496  0.82313868  1
  O  O228  1  0.92288891  0.13115678  0.15112672  1
  O  O229  1  0.91515735  0.13357705  0.48580791  1
  O  O230  1  0.92168601  0.13139320  0.81955504  1
  O  O231  1  0.90610999  0.63094947  0.14957794  1
  O  O232  1  0.90764862  0.62765543  0.47888684  1
  O  O233  1  0.91379609  0.63372494  0.81429605  1
  O  O234  1  0.36844337  0.08111582  0.01351815  1
  O  O235  1  0.36558918  0.08197291  0.34476956  1
  O  O236  1  0.37206064  0.09083129  0.68296924  1
  O  O237  1  0.37152025  0.57809760  0.01885868  1
  O  O238  1  0.37110701  0.58150443  0.35126660  1
  O  O239  1  0.37239743  0.58945422  0.68631241  1
  O  O240  1  0.86788096  0.07526478  0.01669253  1
  O  O241  1  0.87148933  0.07770224  0.35026575  1
  O  O242  1  0.86851759  0.07659867  0.68463085  1
  O  O243  1  0.86114361  0.58277255  0.01232457  1
  O  O244  1  0.86149989  0.58291119  0.34316066  1
  O  O245  1  0.86579695  0.58228512  0.67760357  1
  O  O246  1  0.08852842  0.37819267  0.19228433  1
  O  O247  1  0.07728639  0.36645869  0.51576970  1
  O  O248  1  0.09162349  0.36927644  0.84928357  1
  O  O249  1  0.07853587  0.87063461  0.18201551  1
  O  O250  1  0.07079075  0.86933980  0.51264610  1
  O  O251  1  0.08253179  0.86302959  0.84464786  1
  O  O252  1  0.58675273  0.36266787  0.18224362  1
  O  O253  1  0.58183490  0.36680382  0.51582769  1
  O  O254  1  0.58657442  0.36008139  0.84363515  1
  O  O255  1  0.58105813  0.86904501  0.18344746  1
  O  O256  1  0.57873477  0.86694383  0.51568338  1
  O  O257  1  0.57886068  0.87063639  0.84984388  1
  O  O258  1  0.14319241  0.41458638  0.32787046  1
  O  O259  1  0.12980705  0.42192397  0.65018633  1
  O  O260  1  0.13099551  0.40674151  0.98511380  1
  O  O261  1  0.13377714  0.92067804  0.31686789  1
  O  O262  1  0.12818633  0.92752211  0.64574128  1
  O  O263  1  0.12880698  0.90994299  0.98058222  1
  O  O264  1  0.63600709  0.41654842  0.31933694  1
  O  O265  1  0.63335884  0.42213996  0.65166175  1
  O  O266  1  0.63148347  0.41591009  0.98004371  1
  O  O267  1  0.63432395  0.91943321  0.31997080  1
  O  O268  1  0.63372881  0.91875833  0.65247002  1
  O  O269  1  0.63089867  0.91921071  0.98532250  1
  O  O270  1  0.03128863  0.20242805  0.09861116  1
  O  O271  1  0.03055392  0.20069933  0.43684167  1
  O  O272  1  0.02864401  0.18530792  0.76943772  1
  O  O273  1  0.02764179  0.70037994  0.09554493  1
  O  O274  1  0.02832657  0.69580243  0.43149062  1
  O  O275  1  0.03108136  0.69782585  0.77145025  1
  O  O276  1  0.53891481  0.19836829  0.10655592  1
  O  O277  1  0.53305703  0.20164217  0.43882763  1
  O  O278  1  0.53061149  0.19968188  0.77130942  1
  O  O279  1  0.53397053  0.70540700  0.10761262  1
  O  O280  1  0.52669889  0.70206690  0.43925618  1
  O  O281  1  0.53070833  0.70421777  0.77179960  1
  O  O282  1  0.31458019  0.46560352  0.06924986  1
  O  O283  1  0.30615716  0.46957521  0.39663315  1
  O  O284  1  0.29942915  0.46762216  0.73721540  1
  O  O285  1  0.31246056  0.96655011  0.06219099  1
  O  O286  1  0.29785495  0.96940102  0.39063047  1
  O  O287  1  0.29769274  0.96708878  0.73262454  1
  O  O288  1  0.78911876  0.47222119  0.05862673  1
  O  O289  1  0.79861261  0.47301829  0.39370399  1
  O  O290  1  0.79799927  0.47834398  0.72879503  1
  O  O291  1  0.80067637  0.96282619  0.06138741  1
  O  O292  1  0.79811157  0.97014988  0.39712267  1
  O  O293  1  0.80186418  0.96603439  0.72903627  1
  O  O294  1  0.47153815  0.29574404  0.23102057  1
  O  O295  1  0.47265351  0.28694543  0.56212746  1
  O  O296  1  0.47349800  0.30138722  0.89974736  1
  O  O297  1  0.46783256  0.79966697  0.23070873  1
  O  O298  1  0.46938281  0.79281549  0.56179237  1
  O  O299  1  0.47152645  0.80533777  0.89910437  1
  O  O300  1  0.96865961  0.30446272  0.23391773  1
  O  O301  1  0.96047025  0.30176644  0.55501328  1
  O  O302  1  0.97165126  0.29713290  0.89428402  1
  O  O303  1  0.96909795  0.81569611  0.23073240  1
  O  O304  1  0.95997444  0.81118846  0.56056776  1
  O  O305  1  0.96993061  0.80181347  0.89629021  1
  O  O306  1  0.19541177  0.03912979  0.27495530  1
  O  O307  1  0.19344816  0.04552257  0.60291380  1
  O  O308  1  0.19239904  0.03081134  0.92801914  1
  O  O309  1  0.21101251  0.52681764  0.28000662  1
  O  O310  1  0.20251764  0.53451204  0.60723627  1
  O  O311  1  0.20109225  0.52675154  0.93306650  1
  O  O312  1  0.70093298  0.02872192  0.27189546  1
  O  O313  1  0.69958642  0.03061915  0.60491761  1
  O  O314  1  0.70347834  0.02818463  0.93980314  1
  O  O315  1  0.69501269  0.52687282  0.26438821  1
  O  O316  1  0.69668777  0.53341841  0.60173638  1
  O  O317  1  0.69920980  0.52532372  0.93355452  1
  O  O318  1  0.07540188  0.08819667  0.02759317  1
  O  O319  1  0.07980123  0.08800701  0.36599192  1
  O  O320  1  0.07884104  0.08125170  0.69129683  1
  O  O321  1  0.07989202  0.58785675  0.03012323  1
  O  O322  1  0.08936381  0.58697641  0.37394150  1
  O  O323  1  0.08910826  0.58629974  0.70815500  1
  O  O324  1  0.58699128  0.08349974  0.03745584  1
  O  O325  1  0.58543308  0.08721016  0.37743940  1
  O  O326  1  0.58768317  0.08839742  0.70986197  1
  O  O327  1  0.58498961  0.59276464  0.04150942  1
  O  O328  1  0.58047769  0.58905958  0.37577104  1
  O  O329  1  0.58866546  0.59408453  0.70923284  1
  O  O330  1  0.42472127  0.41299308  0.13547246  1
  O  O331  1  0.41796890  0.41125753  0.45544712  1
  O  O332  1  0.40651877  0.40726542  0.79787128  1
  O  O333  1  0.41479343  0.91200324  0.13611261  1
  O  O334  1  0.41137776  0.91482764  0.45377233  1
  O  O335  1  0.40687601  0.91222028  0.80094288  1
  O  O336  1  0.90142574  0.41650395  0.11983202  1
  O  O337  1  0.91163373  0.42194250  0.46250865  1
  O  O338  1  0.91616565  0.43596397  0.79862289  1
  O  O339  1  0.91278245  0.91035147  0.12867776  1
  O  O340  1  0.91135433  0.91577762  0.46013000  1
  O  O341  1  0.91772949  0.91837478  0.79778428  1
  O  O342  1  0.41538368  0.40520941  0.29915177  1
  O  O343  1  0.40729154  0.39395116  0.61719644  1
  O  O344  1  0.41371711  0.40788396  0.96808871  1
  O  O345  1  0.41167252  0.91045760  0.29650022  1
  O  O346  1  0.40440295  0.89878669  0.61931821  1
  O  O347  1  0.41805559  0.91783503  0.96510743  1
  O  O348  1  0.91345223  0.41573051  0.29898263  1
  O  O349  1  0.92280715  0.42561414  0.62395241  1
  O  O350  1  0.90773079  0.40564990  0.94721640  1
  O  O351  1  0.91685855  0.92000308  0.30512020  1
  O  O352  1  0.91487750  0.91993253  0.63796658  1
  O  O353  1  0.91934210  0.91506138  0.96497647  1
  O  O354  1  0.08359270  0.09307197  0.20680489  1
  O  O355  1  0.07896058  0.08977594  0.53029791  1
  O  O356  1  0.08786540  0.09432527  0.86648892  1
  O  O357  1  0.10080287  0.58117206  0.21276554  1
  O  O358  1  0.08309871  0.56676600  0.53055824  1
  O  O359  1  0.09273555  0.58471631  0.86817080  1
  O  O360  1  0.59043979  0.08420313  0.20497170  1
  O  O361  1  0.58708625  0.08246111  0.53664610  1
  O  O362  1  0.59108580  0.08318844  0.87724694  1
  O  O363  1  0.58637206  0.58787784  0.20339327  1
  O  O364  1  0.58708824  0.58952037  0.53538509  1
  O  O365  1  0.59196116  0.58989951  0.87674139  1
  O  O366  1  0.14160628  0.21955739  0.05529334  1
  O  O367  1  0.14068490  0.22119715  0.39361877  1
  O  O368  1  0.13633982  0.21670741  0.72725246  1
  O  O369  1  0.13597824  0.72098352  0.05233999  1
  O  O370  1  0.13517355  0.72058067  0.38714083  1
  O  O371  1  0.13501677  0.72010796  0.72295828  1
  O  O372  1  0.64407310  0.21599671  0.05711749  1
  O  O373  1  0.63670400  0.21798371  0.38667161  1
  O  O374  1  0.63991376  0.22184117  0.72778301  1
  O  O375  1  0.63955439  0.72574006  0.06003276  1
  O  O376  1  0.63495875  0.72198090  0.39474575  1
  O  O377  1  0.63377670  0.72803231  0.72166434  1
  O  O378  1  0.29094674  0.35697407  0.11331750  1
  O  O379  1  0.28582450  0.36477481  0.44516550  1
  O  O380  1  0.27223006  0.35785361  0.77741650  1
  O  O381  1  0.27809235  0.85708684  0.10026643  1
  O  O382  1  0.27904536  0.86382326  0.43910851  1
  O  O383  1  0.27178031  0.85954796  0.77637029  1
  O  O384  1  0.76939419  0.36329263  0.10266138  1
  O  O385  1  0.77876113  0.36386261  0.43724529  1
  O  O386  1  0.78531460  0.37021649  0.77509614  1
  O  O387  1  0.77845160  0.85883043  0.10980105  1
  O  O388  1  0.77818104  0.86389164  0.44464036  1
  O  O389  1  0.78500359  0.86107610  0.77837302  1
  O  O390  1  0.36394100  0.27001075  0.27438546  1
  O  O391  1  0.36410241  0.26187019  0.60502269  1
  O  O392  1  0.36546477  0.27135256  0.94100839  1
  O  O393  1  0.35847030  0.77603970  0.27367677  1
  O  O394  1  0.35986298  0.76514580  0.60354507  1
  O  O395  1  0.36325249  0.78370009  0.94383563  1
  O  O396  1  0.86213932  0.28178790  0.27973499  1
  O  O397  1  0.86574738  0.30055290  0.61995236  1
  O  O398  1  0.86390202  0.27353537  0.93750106  1
  O  O399  1  0.86131621  0.78371931  0.27212135  1
  O  O400  1  0.85580476  0.78551200  0.60841173  1
  O  O401  1  0.86326882  0.78224330  0.94391333  1
  O  O402  1  0.21855099  0.13799771  0.22128991  1
  O  O403  1  0.21163804  0.14784440  0.55112660  1
  O  O404  1  0.22508164  0.14025350  0.88919259  1
  O  O405  1  0.23358508  0.63203196  0.23308063  1
  O  O406  1  0.21053663  0.64116654  0.55805574  1
  O  O407  1  0.22808131  0.63540929  0.89146880  1
  O  O408  1  0.72460612  0.13664125  0.22810559  1
  O  O409  1  0.71995199  0.13323221  0.55257556  1
  O  O410  1  0.72389397  0.13725378  0.89591235  1
  O  O411  1  0.72079105  0.63306605  0.21813982  1
  O  O412  1  0.72171348  0.63966637  0.55601991  1
  O  O413  1  0.72563699  0.63578682  0.89294797  1
  O  O414  1  0.49506978  0.32771160  0.03132683  1
  O  O415  1  0.49494605  0.32482378  0.36340013  1
  O  O416  1  0.49106962  0.32566501  0.69543914  1
  O  O417  1  0.49367010  0.83829491  0.03293656  1
  O  O418  1  0.48936191  0.83096784  0.36317042  1
  O  O419  1  0.48702030  0.82754360  0.69456679  1
  O  O420  1  0.99113786  0.34100451  0.02871707  1
  O  O421  1  0.99218558  0.33828848  0.36810621  1
  O  O422  1  1.00359312  0.34976179  0.69162862  1
  O  O423  1  0.99508016  0.83419312  0.03095844  1
  O  O424  1  0.99178793  0.83118418  0.36195695  1
  O  O425  1  0.98920323  0.83025400  0.69348269  1
  O  O426  1  0.15525338  0.00592251  0.13885259  1
  O  O427  1  0.16332899  0.01415252  0.46828712  1
  O  O428  1  0.16264725  0.01360686  0.79542417  1
  O  O429  1  0.18103747  0.50049225  0.14599405  1
  O  O430  1  0.17920682  0.50774936  0.47421971  1
  O  O431  1  0.16961849  0.50665775  0.79950938  1
  O  O432  1  0.66982339  0.00575508  0.13877924  1
  O  O433  1  0.66383838  0.00104572  0.46991804  1
  O  O434  1  0.66962736  0.00709452  0.80671802  1
  O  O435  1  0.65678231  0.50469704  0.13020685  1
  O  O436  1  0.66373441  0.50915069  0.46763323  1
  O  O437  1  0.66370449  0.50904415  0.80151414  1
  O  O438  1  0.00857221  0.17564084  0.30429209  1
  O  O439  1  0.00340894  0.17346879  0.63962331  1
  O  O440  1  0.01104781  0.17722976  0.96502710  1
  O  O441  1  0.00614966  0.65469214  0.29693483  1
  O  O442  1  0.00407324  0.65748327  0.63660132  1
  O  O443  1  0.00590057  0.66942511  0.96208282  1
  O  O444  1  0.50585885  0.16047889  0.30321764  1
  O  O445  1  0.51057882  0.16292409  0.63772450  1
  O  O446  1  0.51147637  0.16435496  0.97151324  1
  O  O447  1  0.50576509  0.66802961  0.30549721  1
  O  O448  1  0.50436476  0.66410434  0.63703177  1
  O  O449  1  0.50881664  0.67297806  0.97334465  1
  O  O450  1  0.34351171  0.48724489  0.20202588  1
  O  O451  1  0.35014122  0.49524746  0.53145745  1
  O  O452  1  0.33115494  0.48526362  0.87011188  1
  O  O453  1  0.32546543  0.98714269  0.19152219  1
  O  O454  1  0.33777952  0.99569783  0.52517802  1
  O  O455  1  0.32672463  0.98992589  0.86590757  1
  O  O456  1  0.82432697  0.49251912  0.19251556  1
  O  O457  1  0.82714360  0.49491064  0.52673312  1
  O  O458  1  0.82851625  0.50121683  0.86293805  1
  O  O459  1  0.83470339  0.98977975  0.19640770  1
  O  O460  1  0.83543969  0.99442229  0.53135415  1
  O  O461  1  0.83524087  0.99304864  0.86362521  1
