# generated using pymatgen
data_Na31Fe20(SO4)36
_symmetry_space_group_name_H-M   'P 1'
_cell_length_a   18.05876897
_cell_length_b   18.06592628
_cell_length_c   19.68150518
_cell_angle_alpha   107.59144924
_cell_angle_beta   107.58858203
_cell_angle_gamma   90.69590895
_symmetry_Int_Tables_number   1
_chemical_formula_structural   Na31Fe20(SO4)36
_chemical_formula_sum   'Na62 Fe40 S72 O288'
_cell_volume   5796.69035972
_cell_formula_units_Z   2
loop_
 _symmetry_equiv_pos_site_id
 _symmetry_equiv_pos_as_xyz
  1  'x, y, z'
loop_
 _atom_site_type_symbol
 _atom_site_label
 _atom_site_symmetry_multiplicity
 _atom_site_fract_x
 _atom_site_fract_y
 _atom_site_fract_z
 _atom_site_occupancy
  Na  Na0  1  0.13243372  0.36187658  0.07642583  1
  Na  Na1  1  0.13083892  0.37599529  0.41577244  1
  Na  Na2  1  0.12784422  0.37193108  0.74863464  1
  Na  Na3  1  0.13652270  0.85564974  0.08648253  1
  Na  Na4  1  0.13419677  0.85736435  0.41383492  1
  Na  Na5  1  0.13499214  0.86770194  0.75355269  1
  Na  Na6  1  0.62982836  0.35864080  0.07288430  1
  Na  Na7  1  0.64318896  0.36831169  0.42444855  1
  Na  Na8  1  0.61934003  0.37432666  0.75557294  1
  Na  Na9  1  0.63923600  0.86702327  0.08247080  1
  Na  Na10  1  0.65052358  0.87689024  0.42513888  1
  Na  Na11  1  0.63348222  0.86588150  0.74954194  1
  Na  Na12  1  0.36671779  0.13118128  0.24993157  1
  Na  Na13  1  0.37097301  0.13631983  0.59319613  1
  Na  Na14  1  0.36432932  0.14671021  0.91945936  1
  Na  Na15  1  0.36200357  0.63449066  0.24576391  1
  Na  Na16  1  0.36399790  0.63206758  0.57930141  1
  Na  Na17  1  0.38701320  0.62487762  0.91731501  1
  Na  Na18  1  0.86714147  0.13689256  0.25342311  1
  Na  Na19  1  0.83304785  0.13368125  0.55418215  1
  Na  Na20  1  0.86069473  0.13699308  0.91606386  1
  Na  Na21  1  0.86415622  0.62701901  0.24986650  1
  Na  Na22  1  0.86969831  0.62910014  0.58173861  1
  Na  Na23  1  0.86979550  0.64385771  0.93180289  1
  Na  Na24  1  0.99677730  -0.00227674  0.08513135  1
  Na  Na25  1  0.49624369  0.05668009  0.76074149  1
  Na  Na26  1  0.98143274  0.00567697  0.41521643  1
  Na  Na27  1  0.51211953  0.50358639  0.05058716  1
  Na  Na28  1  0.95976319  0.01128189  0.74244039  1
  Na  Na29  1  0.98247342  0.50945389  0.10160480  1
  Na  Na30  1  0.96880876  0.51275491  0.39172643  1
  Na  Na31  1  0.48333892  0.50601613  0.41937447  1
  Na  Na32  1  0.49580395  0.00552135  0.09546395  1
  Na  Na33  1  0.51983111  0.99197832  0.56576839  1
  Na  Na34  1  0.00669442  0.94805484  0.23789179  1
  Na  Na35  1  0.01043257  0.49843052  0.90000856  1
  Na  Na36  1  0.53839438  0.98257236  0.29895551  1
  Na  Na37  1  -0.02142658  1.01395255  0.58987124  1
  Na  Na38  1  0.50136800  0.48582829  0.61210511  1
  Na  Na39  1  0.52144304  0.49443311  0.24147307  1
  Na  Na40  1  0.50836442  0.99630652  0.91334152  1
  Na  Na41  1  0.00950549  0.98940103  0.91468309  1
  Na  Na42  1  0.74149987  0.23508605  0.35492873  1
  Na  Na43  1  0.25397103  0.25417094  0.32667585  1
  Na  Na44  1  0.74086456  0.74267784  0.00744256  1
  Na  Na45  1  0.73967119  0.24398506  0.00561417  1
  Na  Na46  1  0.74781499  0.25413730  0.66137192  1
  Na  Na47  1  0.24165796  0.73926876  0.67101461  1
  Na  Na48  1  0.75887349  0.76058846  0.65906573  1
  Na  Na49  1  0.26697029  0.26417509  0.66610289  1
  Na  Na50  1  0.24506040  0.73932548  0.01253544  1
  Na  Na51  1  0.25753117  0.74886534  0.32402521  1
  Na  Na52  1  0.72969364  0.24501512  0.83601775  1
  Na  Na53  1  0.74355080  0.73724270  0.18322487  1
  Na  Na54  1  0.74991638  0.25752627  0.17486085  1
  Na  Na55  1  0.25657438  0.26000508  0.15157325  1
  Na  Na56  1  0.74079327  0.74428619  0.84026680  1
  Na  Na57  1  0.76613123  0.76638908  0.48633125  1
  Na  Na58  1  0.23962569  0.73291507  0.50008223  1
  Na  Na59  1  0.25505448  0.25591403  0.49370821  1
  Na  Na60  1  0.25396926  0.74641161  0.84111573  1
  Na  Na61  1  0.26212358  0.25936402  0.83261758  1
  Fe  Fe62  1  0.96409559  0.80753855  0.78407438  1
  Fe  Fe63  1  0.96428935  0.31406545  0.12577710  1
  Fe  Fe64  1  0.46435987  0.30836978  0.45429608  1
  Fe  Fe65  1  0.46213882  0.30715456  0.11690733  1
  Fe  Fe66  1  0.96261595  0.30534867  0.78306794  1
  Fe  Fe67  1  0.46882357  0.80375088  0.45062983  1
  Fe  Fe68  1  0.46951078  0.79949385  0.78778318  1
  Fe  Fe69  1  0.96263176  0.81075021  0.45247195  1
  Fe  Fe70  1  0.46939226  0.80592779  0.11695488  1
  Fe  Fe71  1  0.96546462  0.31334045  0.45524298  1
  Fe  Fe72  1  0.18867995  0.03106676  0.71476983  1
  Fe  Fe73  1  0.69171818  0.04060233  0.04688262  1
  Fe  Fe74  1  0.69916896  0.03057364  0.70598465  1
  Fe  Fe75  1  0.69357127  0.53144171  0.04428489  1
  Fe  Fe76  1  0.19462031  0.53681493  0.04945673  1
  Fe  Fe77  1  0.19432851  0.03138935  0.38266904  1
  Fe  Fe78  1  0.19429635  0.03442599  0.05074656  1
  Fe  Fe79  1  0.18816850  0.53801888  0.70945848  1
  Fe  Fe80  1  0.70087084  0.53058586  0.37904888  1
  Fe  Fe81  1  0.69478208  0.53633303  0.71747389  1
  Fe  Fe82  1  0.03705839  0.19117061  0.21611695  1
  Fe  Fe83  1  0.03257496  0.69374353  0.88053708  1
  Fe  Fe84  1  0.03403400  0.19229846  0.88280952  1
  Fe  Fe85  1  0.53525745  0.18883714  0.54439859  1
  Fe  Fe86  1  0.53857315  0.69246366  0.21329599  1
  Fe  Fe87  1  0.53669893  0.69153233  0.54695559  1
  Fe  Fe88  1  0.03522110  0.69074785  0.54407438  1
  Fe  Fe89  1  0.53360379  0.19478761  0.21750765  1
  Fe  Fe90  1  0.03304522  0.69998636  0.21325992  1
  Fe  Fe91  1  0.03630657  0.19450134  0.54977294  1
  Fe  Fe92  1  0.31534278  0.95988558  0.28922004  1
  Fe  Fe93  1  0.80398254  0.46173052  0.95057677  1
  Fe  Fe94  1  0.30958637  0.96209235  0.62167478  1
  Fe  Fe95  1  0.29535620  0.47030584  0.28631669  1
  Fe  Fe96  1  0.81139376  0.46310286  0.62076985  1
  Fe  Fe97  1  0.80176943  0.96876457  0.28456114  1
  Fe  Fe98  1  0.30608861  0.46451181  0.95035217  1
  Fe  Fe99  1  0.30612535  0.96772593  0.95313764  1
  Fe  Fe100  1  0.30761610  0.46647493  0.62420571  1
  Fe  Fe101  1  0.81024044  0.96524265  0.95331961  1
  S  S102  1  0.35864187  0.13984108  0.08567543  1
  S  S103  1  0.35718445  0.13755748  0.41552851  1
  S  S104  1  0.35206152  0.13624175  0.75152820  1
  S  S105  1  0.36391109  0.63977321  0.08256512  1
  S  S106  1  0.36215436  0.63915649  0.41545480  1
  S  S107  1  0.35707536  0.64290491  0.74663862  1
  S  S108  1  0.86233603  0.14207238  0.08402058  1
  S  S109  1  0.86689378  0.14088528  0.41450571  1
  S  S110  1  0.85866274  0.14353667  0.74957456  1
  S  S111  1  0.86094365  0.63550203  0.08375780  1
  S  S112  1  0.85877364  0.64406400  0.41992822  1
  S  S113  1  0.85830586  0.64223256  0.74952041  1
  S  S114  1  0.14109418  0.35321134  0.24550680  1
  S  S115  1  0.14021667  0.35854866  0.58486876  1
  S  S116  1  0.13646133  0.36088271  0.91507700  1
  S  S117  1  0.14790274  0.85834678  0.25313649  1
  S  S118  1  0.14287111  0.85875508  0.58226796  1
  S  S119  1  0.14043613  0.86115031  0.91840725  1
  S  S120  1  0.63763225  0.36044547  0.25257515  1
  S  S121  1  0.63771893  0.36353676  0.58540229  1
  S  S122  1  0.63650753  0.35990027  0.91606117  1
  S  S123  1  0.64298740  0.85680278  0.24721536  1
  S  S124  1  0.64195988  0.85686947  0.58310997  1
  S  S125  1  0.64126208  0.86364074  0.91646994  1
  S  S126  1  0.06429186  0.16299190  0.04154069  1
  S  S127  1  0.07130800  0.16457046  0.37474932  1
  S  S128  1  0.06674787  0.16894176  0.71204745  1
  S  S129  1  0.06897928  0.66566584  0.03933332  1
  S  S130  1  0.05951516  0.67137702  0.37603964  1
  S  S131  1  0.06858719  0.67578983  0.71259953  1
  S  S132  1  0.56148310  0.16754712  0.04330219  1
  S  S133  1  0.56428668  0.17697283  0.37819738  1
  S  S134  1  0.57180537  0.16110396  0.70360176  1
  S  S135  1  0.57179841  0.67628884  0.04394355  1
  S  S136  1  0.57166116  0.66787495  0.37598133  1
  S  S137  1  0.56820198  0.67069967  0.70759285  1
  S  S138  1  0.32594107  0.43355732  0.12503748  1
  S  S139  1  0.33496817  0.43296358  0.46036346  1
  S  S140  1  0.32288731  0.43368843  0.78550962  1
  S  S141  1  0.33128724  0.93149872  0.12392603  1
  S  S142  1  0.33133226  0.92927262  0.45782967  1
  S  S143  1  0.33018642  0.92811848  0.79155197  1
  S  S144  1  0.82695680  0.43096518  0.12506289  1
  S  S145  1  0.83238495  0.43311330  0.45872386  1
  S  S146  1  0.83013245  0.43392209  0.79134501  1
  S  S147  1  0.83034936  0.94019317  0.12161007  1
  S  S148  1  0.83881229  0.93924803  0.45837345  1
  S  S149  1  0.83215953  0.93680733  0.79191587  1
  S  S150  1  0.42696925  0.33205473  0.29044960  1
  S  S151  1  0.43030125  0.32409746  0.62087250  1
  S  S152  1  0.42691156  0.33208743  0.96076194  1
  S  S153  1  0.43870459  0.82812294  0.29252427  1
  S  S154  1  0.43169145  0.82794986  0.62324895  1
  S  S155  1  0.43402804  0.84094608  0.96115660  1
  S  S156  1  0.93670112  0.32705851  0.28901684  1
  S  S157  1  0.92988056  0.32488292  0.62313844  1
  S  S158  1  0.93005334  0.32787121  0.95632714  1
  S  S159  1  0.93396882  0.83158429  0.29022629  1
  S  S160  1  0.94072148  0.83358049  0.62528300  1
  S  S161  1  0.93804878  0.83496617  0.95794014  1
  S  S162  1  0.17013961  0.06259849  0.21025735  1
  S  S163  1  0.16721477  0.06575963  0.54349005  1
  S  S164  1  0.16480704  0.06586909  0.87561298  1
  S  S165  1  0.16708177  0.56775925  0.20666978  1
  S  S166  1  0.16941546  0.56557311  0.54068225  1
  S  S167  1  0.17306731  0.57088411  0.87634978  1
  S  S168  1  0.67014757  0.06976007  0.20940574  1
  S  S169  1  0.66325095  0.06537318  0.53890150  1
  S  S170  1  0.67240098  0.06462441  0.87475574  1
  S  S171  1  0.66118213  0.56261569  0.20358711  1
  S  S172  1  0.67311219  0.56808185  0.54410333  1
  S  S173  1  0.67560637  0.57280435  0.87953503  1
  O  O174  1  0.36722246  0.22108857  0.08491638  1
  O  O175  1  0.36367619  0.21617176  0.40574252  1
  O  O176  1  0.35679410  0.21243819  0.74106998  1
  O  O177  1  0.37388882  0.71833513  0.07324914  1
  O  O178  1  0.37524964  0.71764227  0.40589426  1
  O  O179  1  0.36954212  0.72025655  0.73418097  1
  O  O180  1  0.87320215  0.21980165  0.07399355  1
  O  O181  1  0.88204698  0.21805642  0.40350852  1
  O  O182  1  0.86393125  0.22608101  0.74872857  1
  O  O183  1  0.86570709  0.70767391  0.06588396  1
  O  O184  1  0.86500937  0.72726081  0.42170966  1
  O  O185  1  0.86794375  0.72067990  0.73937842  1
  O  O186  1  0.28123191  0.12898493  0.09734987  1
  O  O187  1  0.27810246  0.12780735  0.42442028  1
  O  O188  1  0.27191098  0.12246989  0.75889606  1
  O  O189  1  0.28309535  0.63042125  0.08562739  1
  O  O190  1  0.28735127  0.63302131  0.42760839  1
  O  O191  1  0.27271774  0.63901413  0.74566247  1
  O  O192  1  0.78133998  0.13616588  0.08912867  1
  O  O193  1  0.79013032  0.13671909  0.42337807  1
  O  O194  1  0.77960784  0.12948995  0.75727388  1
  O  O195  1  0.78325103  0.62448326  0.09542633  1
  O  O196  1  0.78098715  0.63072752  0.43001680  1
  O  O197  1  0.77889691  0.63511308  0.75713359  1
  O  O198  1  0.13569404  0.26973996  0.24647910  1
  O  O199  1  0.13144849  0.28084856  0.59703238  1
  O  O200  1  0.12496062  0.28312843  0.92371393  1
  O  O201  1  0.13544096  0.77980643  0.26117890  1
  O  O202  1  0.13603584  0.77823849  0.58767216  1
  O  O203  1  0.13187876  0.78121152  0.92404114  1
  O  O204  1  0.62571946  0.28173757  0.26203278  1
  O  O205  1  0.62584822  0.28477074  0.59205072  1
  O  O206  1  0.63778750  0.28939128  0.93880345  1
  O  O207  1  0.63584295  0.77405428  0.24650143  1
  O  O208  1  0.62722935  0.77948273  0.59377290  1
  O  O209  1  0.63681543  0.78918386  0.93010081  1
  O  O210  1  0.22114933  0.36539923  0.23857719  1
  O  O211  1  0.22098948  0.36596325  0.57947369  1
  O  O212  1  0.21392168  0.36902707  0.90446635  1
  O  O213  1  0.22984326  0.86679929  0.25211305  1
  O  O214  1  0.22182698  0.86928325  0.57360915  1
  O  O215  1  0.21839738  0.87107264  0.90839777  1
  O  O216  1  0.71284332  0.36837332  0.24188835  1
  O  O217  1  0.71786411  0.37339208  0.58145711  1
  O  O218  1  0.71736457  0.37248721  0.90697510  1
  O  O219  1  0.71865680  0.86872784  0.23298016  1
  O  O220  1  0.71723823  0.85981070  0.57074999  1
  O  O221  1  0.71889313  0.87530379  0.90451426  1
  O  O222  1  0.42011245  0.12497569  0.14914331  1
  O  O223  1  0.41617688  0.13084282  0.48336425  1
  O  O224  1  0.41077483  0.12672044  0.81729193  1
  O  O225  1  0.42019417  0.63433610  0.15319137  1
  O  O226  1  0.42590185  0.62826964  0.48055841  1
  O  O227  1  0.40912396  0.63902590  0.81682374  1
  O  O228  1  0.91824915  0.13382538  0.15356739  1
  O  O229  1  0.92789006  0.13085946  0.48205272  1
  O  O230  1  0.91776787  0.13462728  0.81894252  1
  O  O231  1  0.92161020  0.63418871  0.15456767  1
  O  O232  1  0.91982803  0.63241741  0.48656358  1
  O  O233  1  0.91635112  0.63664974  0.81920927  1
  O  O234  1  0.36160110  0.08492960  0.01334463  1
  O  O235  1  0.36329752  0.07845803  0.34644309  1
  O  O236  1  0.36041066  0.07532102  0.68189733  1
  O  O237  1  0.37592046  0.57940527  0.01696516  1
  O  O238  1  0.36783683  0.57933779  0.34588128  1
  O  O239  1  0.36624022  0.58135508  0.67976352  1
  O  O240  1  0.87282599  0.08122271  0.01806569  1
  O  O241  1  0.87520988  0.07938021  0.34706049  1
  O  O242  1  0.87063731  0.08962459  0.68272116  1
  O  O243  1  0.87302200  0.56871477  0.02174763  1
  O  O244  1  0.86667293  0.59048744  0.35109096  1
  O  O245  1  0.86595631  0.58218538  0.68239326  1
  O  O246  1  0.08352611  0.35923227  0.17491795  1
  O  O247  1  0.08415913  0.36025915  0.51273820  1
  O  O248  1  0.07553005  0.37092782  0.84792307  1
  O  O249  1  0.09241161  0.86873532  0.18608514  1
  O  O250  1  0.08386354  0.86946767  0.51640507  1
  O  O251  1  0.07977630  0.87268067  0.85284737  1
  O  O252  1  0.57377015  0.36992770  0.18679150  1
  O  O253  1  0.58028949  0.37356608  0.51700623  1
  O  O254  1  0.57813401  0.35572326  0.84590637  1
  O  O255  1  0.57970048  0.87088592  0.18325548  1
  O  O256  1  0.57874579  0.86828509  0.51845554  1
  O  O257  1  0.58021716  0.86807291  0.84686940  1
  O  O258  1  0.13203160  0.40668730  0.31285446  1
  O  O259  1  0.12875650  0.41951543  0.64900474  1
  O  O260  1  0.13029611  0.42205872  0.98292894  1
  O  O261  1  0.13702507  0.91706323  0.32180536  1
  O  O262  1  0.13625707  0.91476137  0.65292469  1
  O  O263  1  0.13412814  0.91889132  0.98822630  1
  O  O264  1  0.63012246  0.42002773  0.32196783  1
  O  O265  1  0.62673365  0.42293919  0.65291185  1
  O  O266  1  0.62698843  0.42692280  0.98035104  1
  O  O267  1  0.63943190  0.90983375  0.31832299  1
  O  O268  1  0.63910902  0.91738724  0.65367538  1
  O  O269  1  0.63081880  0.92797092  0.98101740  1
  O  O270  1  0.02853821  0.19119122  0.10224068  1
  O  O271  1  0.04160269  0.19695860  0.43943554  1
  O  O272  1  0.02822430  0.19988135  0.77172214  1
  O  O273  1  0.03721780  0.68807231  0.10188605  1
  O  O274  1  0.02415689  0.71165031  0.43825648  1
  O  O275  1  0.03024663  0.70475817  0.77305374  1
  O  O276  1  0.52953852  0.20032310  0.10850102  1
  O  O277  1  0.52569299  0.20915894  0.43878056  1
  O  O278  1  0.54168494  0.18001526  0.76625165  1
  O  O279  1  0.53336756  0.70333316  0.10581121  1
  O  O280  1  0.53464061  0.69922799  0.43693626  1
  O  O281  1  0.53190544  0.69956495  0.76658018  1
  O  O282  1  0.29766295  0.46993147  0.06329662  1
  O  O283  1  0.31392678  0.46536041  0.39805264  1
  O  O284  1  0.28769949  0.47679159  0.72834304  1
  O  O285  1  0.30168057  0.97066273  0.06419320  1
  O  O286  1  0.30352738  0.96857252  0.39861372  1
  O  O287  1  0.29776371  0.96112901  0.72856058  1
  O  O288  1  0.79267770  0.45973173  0.05816226  1
  O  O289  1  0.80182575  0.47118375  0.40071900  1
  O  O290  1  0.80135133  0.47240778  0.73141791  1
  O  O291  1  0.79317901  0.97621689  0.06027341  1
  O  O292  1  0.81602480  0.96359299  0.39034248  1
  O  O293  1  0.80315595  0.97323396  0.73225484  1
  O  O294  1  0.46410141  0.30117643  0.23043362  1
  O  O295  1  0.46328746  0.29389035  0.55560006  1
  O  O296  1  0.45646433  0.30692558  0.89859298  1
  O  O297  1  0.47340535  0.79682733  0.23020375  1
  O  O298  1  0.46736683  0.79754748  0.56142971  1
  O  O299  1  0.46465982  0.81573638  0.89794619  1
  O  O300  1  0.97680834  0.29346234  0.22934400  1
  O  O301  1  0.96702212  0.29579634  0.56159792  1
  O  O302  1  0.96758158  0.29883655  0.89584483  1
  O  O303  1  0.97341710  0.80458466  0.23242070  1
  O  O304  1  0.97823462  0.79739318  0.56591151  1
  O  O305  1  0.96841927  0.80061350  0.89175678  1
  O  O306  1  0.19848213  0.02560884  0.27050506  1
  O  O307  1  0.19521689  0.02967610  0.60464207  1
  O  O308  1  0.19637547  0.03167871  0.93878274  1
  O  O309  1  0.19453699  0.52915686  0.26453825  1
  O  O310  1  0.19988441  0.52865487  0.60285417  1
  O  O311  1  0.20372150  0.53259413  0.93626535  1
  O  O312  1  0.70051821  0.03324929  0.26822634  1
  O  O313  1  0.68831900  0.02875899  0.60070597  1
  O  O314  1  0.71209890  0.03325141  0.93834180  1
  O  O315  1  0.67895483  0.53073116  0.26648115  1
  O  O316  1  0.70026016  0.53211248  0.60583816  1
  O  O317  1  0.71202094  0.53624534  0.94066712  1
  O  O318  1  0.08170761  0.07969580  0.03585578  1
  O  O319  1  0.08529358  0.08099187  0.36778856  1
  O  O320  1  0.08121551  0.08607081  0.70814825  1
  O  O321  1  0.08593254  0.58144831  0.02346777  1
  O  O322  1  0.06524267  0.59101221  0.37482628  1
  O  O323  1  0.09032924  0.59709551  0.71094975  1
  O  O324  1  0.58051592  0.08525647  0.04098865  1
  O  O325  1  0.58457220  0.09974901  0.37791147  1
  O  O326  1  0.59277515  0.07650887  0.68990730  1
  O  O327  1  0.59447506  0.59657688  0.04294642  1
  O  O328  1  0.58751079  0.58576618  0.37267766  1
  O  O329  1  0.58957161  0.58981083  0.70278372  1
  O  O330  1  0.40846983  0.41648937  0.13413821  1
  O  O331  1  0.42055931  0.41860130  0.47637289  1
  O  O332  1  0.39574152  0.40929760  0.77703636  1
  O  O333  1  0.41309400  0.91467946  0.12850879  1
  O  O334  1  0.41254491  0.90999113  0.46310444  1
  O  O335  1  0.41163456  0.91060163  0.79653356  1
  O  O336  1  0.90846137  0.41233853  0.12357276  1
  O  O337  1  0.91375159  0.41585755  0.46025267  1
  O  O338  1  0.91012827  0.41170951  0.79320589  1
  O  O339  1  0.91275084  0.93453364  0.12550920  1
  O  O340  1  0.92354546  0.91854729  0.46973388  1
  O  O341  1  0.91485104  0.91885697  0.79522042  1
  O  O342  1  0.40658814  0.41244699  0.29299653  1
  O  O343  1  0.40588510  0.40351716  0.62044214  1
  O  O344  1  0.40697173  0.41607240  0.97423461  1
  O  O345  1  0.42164052  0.90988903  0.29490389  1
  O  O346  1  0.41714425  0.91088512  0.63013317  1
  O  O347  1  0.41678355  0.92551127  0.97254402  1
  O  O348  1  0.92070115  0.40558920  0.28992504  1
  O  O349  1  0.91050637  0.40486627  0.62772321  1
  O  O350  1  0.91488785  0.41060410  0.96375011  1
  O  O351  1  0.91236535  0.91236129  0.29040813  1
  O  O352  1  0.93020769  0.91476846  0.62811265  1
  O  O353  1  0.91994313  0.91730106  0.95836075  1
  O  O354  1  0.08782797  0.08082930  0.20365600  1
  O  O355  1  0.08432529  0.08282423  0.53627357  1
  O  O356  1  0.08076560  0.07901249  0.86939376  1
  O  O357  1  0.08770235  0.59215746  0.20393204  1
  O  O358  1  0.09195073  0.59257398  0.54432820  1
  O  O359  1  0.09295122  0.59101207  0.87593043  1
  O  O360  1  0.58836264  0.08870727  0.20626348  1
  O  O361  1  0.57906352  0.08139868  0.52943936  1
  O  O362  1  0.59021195  0.06817363  0.87147077  1
  O  O363  1  0.57641875  0.58124915  0.18827688  1
  O  O364  1  0.58954013  0.58335656  0.53394732  1
  O  O365  1  0.59905301  0.59248131  0.87969917  1
  O  O366  1  0.13511214  0.21336042  0.05521206  1
  O  O367  1  0.14317572  0.21329920  0.38544235  1
  O  O368  1  0.13851851  0.21960889  0.72910318  1
  O  O369  1  0.13917548  0.71743970  0.05291518  1
  O  O370  1  0.13556750  0.71763437  0.39363506  1
  O  O371  1  0.13863595  0.73149978  0.73119201  1
  O  O372  1  0.63473899  0.21730237  0.05957350  1
  O  O373  1  0.63153903  0.23267915  0.39229325  1
  O  O374  1  0.64111909  0.21418177  0.71540728  1
  O  O375  1  0.64417708  0.73071156  0.06679200  1
  O  O376  1  0.64164203  0.71965078  0.39075913  1
  O  O377  1  0.63870649  0.72359220  0.72141144  1
  O  O378  1  0.27345879  0.36279576  0.10752872  1
  O  O379  1  0.28443522  0.35939997  0.44203429  1
  O  O380  1  0.26346505  0.36712749  0.77043287  1
  O  O381  1  0.27900711  0.86051884  0.10579282  1
  O  O382  1  0.27794982  0.85814284  0.43909347  1
  O  O383  1  0.27848050  0.85762847  0.77900441  1
  O  O384  1  0.77888278  0.35754328  0.11211424  1
  O  O385  1  0.78206593  0.36116498  0.44412255  1
  O  O386  1  0.77491206  0.36540942  0.77542459  1
  O  O387  1  0.78506506  0.86474216  0.10406994  1
  O  O388  1  0.78733478  0.87091476  0.44868571  1
  O  O389  1  0.78247883  0.86460558  0.77745167  1
  O  O390  1  0.35721959  0.27742837  0.27459854  1
  O  O391  1  0.35904137  0.26983346  0.60308969  1
  O  O392  1  0.35670697  0.28230211  0.95301692  1
  O  O393  1  0.36826805  0.77791875  0.28008618  1
  O  O394  1  0.35858864  0.77788084  0.60564395  1
  O  O395  1  0.36330387  0.79043272  0.94953465  1
  O  O396  1  0.86606291  0.27298895  0.27046829  1
  O  O397  1  0.86132066  0.27120327  0.60944563  1
  O  O398  1  0.85746557  0.27687130  0.93825493  1
  O  O399  1  0.86551308  0.77792436  0.27677334  1
  O  O400  1  0.86702092  0.78471891  0.60891398  1
  O  O401  1  0.86578525  0.78661638  0.94524645  1
  O  O402  1  0.22289887  0.13285833  0.22592757  1
  O  O403  1  0.21857661  0.13717698  0.55909746  1
  O  O404  1  0.21235533  0.13754992  0.88840223  1
  O  O405  1  0.22303726  0.63516540  0.22005124  1
  O  O406  1  0.22563772  0.63535089  0.55853347  1
  O  O407  1  0.22658413  0.64166245  0.89326399  1
  O  O408  1  0.72096804  0.14192927  0.22388544  1
  O  O409  1  0.71167776  0.14070387  0.56228492  1
  O  O410  1  0.71601903  0.14145466  0.89078809  1
  O  O411  1  0.71507602  0.63157982  0.21968545  1
  O  O412  1  0.72422551  0.64049910  0.56256590  1
  O  O413  1  0.73203526  0.64193669  0.89374195  1
  O  O414  1  0.48994014  0.33639987  0.03475272  1
  O  O415  1  0.48594577  0.33867599  0.36485114  1
  O  O416  1  0.49046541  0.32803685  0.68977988  1
  O  O417  1  0.49621402  0.84287594  0.03273696  1
  O  O418  1  0.50009396  0.83265302  0.36487247  1
  O  O419  1  0.49012329  0.82700194  0.69491425  1
  O  O420  1  0.98853278  0.32665882  0.02822198  1
  O  O421  1  0.99442285  0.32700600  0.36237103  1
  O  O422  1  0.99192129  0.32753953  0.69506816  1
  O  O423  1  1.00031813  0.84202084  0.02770533  1
  O  O424  1  0.99289227  0.84235089  0.36637107  1
  O  O425  1  0.99664770  0.83432764  0.70009268  1
  O  O426  1  0.16661712  0.00318955  0.13676301  1
  O  O427  1  0.16613985  0.00571988  0.47141753  1
  O  O428  1  0.16358957  0.00378551  0.80456040  1
  O  O429  1  0.15803242  0.50824466  0.13054272  1
  O  O430  1  0.16076117  0.50708726  0.46892704  1
  O  O431  1  0.16746183  0.51291044  0.80276458  1
  O  O432  1  0.66385848  0.01150314  0.13413057  1
  O  O433  1  0.66785753  0.00951872  0.47005845  1
  O  O434  1  0.67705806  0.00973376  0.80203467  1
  O  O435  1  0.66063517  0.50074778  0.13245067  1
  O  O436  1  0.67518055  0.50935010  0.47296622  1
  O  O437  1  0.67496101  0.51230532  0.80663913  1
  O  O438  1  0.00986546  0.16375787  0.30376763  1
  O  O439  1  0.00887973  0.16440888  0.63786623  1
  O  O440  1  0.00441595  0.15902853  0.96809972  1
  O  O441  1  0.00491962  0.67707800  0.30404194  1
  O  O442  1  0.01040940  0.67310838  0.63991019  1
  O  O443  1  0.00651423  0.66751418  0.96851065  1
  O  O444  1  0.50275155  0.17295691  0.30454798  1
  O  O445  1  0.50925328  0.15913489  0.63167931  1
  O  O446  1  0.50120741  0.16237722  0.97318903  1
  O  O447  1  0.51164973  0.66329497  0.30235988  1
  O  O448  1  0.50868983  0.66351023  0.63230742  1
  O  O449  1  0.51462320  0.67552999  0.97412298  1
  O  O450  1  0.32545475  0.49391928  0.19624963  1
  O  O451  1  0.32985713  0.49139948  0.53050731  1
  O  O452  1  0.33055403  0.49123720  0.86147989  1
  O  O453  1  0.33267204  0.98950166  0.19702829  1
  O  O454  1  0.33303547  0.98791843  0.53056147  1
  O  O455  1  0.33234174  0.99018114  0.86303712  1
  O  O456  1  0.83154548  0.49234698  0.19374768  1
  O  O457  1  0.83722036  0.49009865  0.53419755  1
  O  O458  1  0.83871667  0.49342110  0.86565139  1
  O  O459  1  0.82694850  0.99579164  0.19434302  1
  O  O460  1  0.84446239  1.00526800  0.52572928  1
  O  O461  1  0.83884555  0.99535737  0.86659568  1
