# generated using pymatgen
data_Na31Fe20(SO4)36
_symmetry_space_group_name_H-M   'P 1'
_cell_length_a   18.07727649
_cell_length_b   18.07713000
_cell_length_c   19.71066245
_cell_angle_alpha   107.58402473
_cell_angle_beta   107.57909528
_cell_angle_gamma   90.74146739
_symmetry_Int_Tables_number   1
_chemical_formula_structural   Na31Fe20(SO4)36
_chemical_formula_sum   'Na62 Fe40 S72 O288'
_cell_volume   5814.85644880
_cell_formula_units_Z   2
loop_
 _symmetry_equiv_pos_site_id
 _symmetry_equiv_pos_as_xyz
  1  'x, y, z'
loop_
 _atom_site_type_symbol
 _atom_site_label
 _atom_site_symmetry_multiplicity
 _atom_site_fract_x
 _atom_site_fract_y
 _atom_site_fract_z
 _atom_site_occupancy
  Na  Na0  1  0.13218634  0.37255543  0.08324972  1
  Na  Na1  1  0.13403044  0.36618173  0.41858175  1
  Na  Na2  1  0.13789054  0.36062958  0.74958828  1
  Na  Na3  1  0.14458549  0.86660099  0.08942550  1
  Na  Na4  1  0.14813449  0.86089011  0.42515779  1
  Na  Na5  1  0.12438766  0.85549002  0.73452761  1
  Na  Na6  1  0.63491468  0.36934377  0.08570906  1
  Na  Na7  1  0.63462174  0.36223913  0.41494844  1
  Na  Na8  1  0.63738743  0.37389537  0.75913869  1
  Na  Na9  1  0.63078075  0.86739317  0.08491960  1
  Na  Na10  1  0.63604845  0.86770029  0.41869068  1
  Na  Na11  1  0.63408544  0.85954625  0.74440387  1
  Na  Na12  1  0.35539283  0.12659043  0.23456932  1
  Na  Na13  1  0.36524985  0.13903643  0.59045261  1
  Na  Na14  1  0.35863686  0.13186228  0.91586273  1
  Na  Na15  1  0.37388750  0.65627190  0.26898649  1
  Na  Na16  1  0.36708614  0.64070155  0.58650705  1
  Na  Na17  1  0.36932303  0.63265196  0.91523133  1
  Na  Na18  1  0.85658333  0.13649068  0.24542964  1
  Na  Na19  1  0.85274771  0.12006595  0.57283831  1
  Na  Na20  1  0.87056965  0.13366992  0.92085383  1
  Na  Na21  1  0.87023750  0.63549735  0.25105023  1
  Na  Na22  1  0.87096343  0.64013350  0.58529359  1
  Na  Na23  1  0.85369096  0.63138611  0.90952923  1
  Na  Na24  1  0.50954772  -0.00837558  0.41950231  1
  Na  Na25  1  0.97956920  -0.00106975  0.42392693  1
  Na  Na26  1  0.99667684  0.54422395  0.42725356  1
  Na  Na27  1  0.48690905  0.01708181  0.06897111  1
  Na  Na28  1  0.96277142  0.00809513  0.76009040  1
  Na  Na29  1  0.49776216  0.51537027  0.41467072  1
  Na  Na30  1  0.49399659  0.52564131  0.72896609  1
  Na  Na31  1  0.51332284  -0.03949731  0.80747509  1
  Na  Na32  1  1.04584572  -0.01364272  0.02120764  1
  Na  Na33  1  0.50991246  0.96020586  0.58204497  1
  Na  Na34  1  -0.00807488  0.98144005  0.59557277  1
  Na  Na35  1  0.48656613  0.54660120  0.20555634  1
  Na  Na36  1  0.00980308  0.49910751  0.22999085  1
  Na  Na37  1  -0.03171532  0.51127396  0.94303877  1
  Na  Na38  1  0.00848486  0.99236042  0.24452892  1
  Na  Na39  1  0.54278263  0.98753297  0.25936827  1
  Na  Na40  1  0.00300079  0.49927130  0.59540189  1
  Na  Na41  1  0.50830710  0.48559072  0.92801980  1
  Na  Na42  1  0.74688641  0.24612417  0.66825933  1
  Na  Na43  1  0.74286073  0.25084689  0.00923700  1
  Na  Na44  1  0.25918518  0.75984982  0.65126580  1
  Na  Na45  1  0.75729806  0.25539301  0.32314179  1
  Na  Na46  1  0.76016119  0.76424494  0.66245419  1
  Na  Na47  1  0.73808662  0.74004965  0.33423282  1
  Na  Na48  1  0.24680373  0.24810987  0.32815800  1
  Na  Na49  1  0.25698468  0.75401305  0.34563179  1
  Na  Na50  1  0.25947783  0.75239573  -0.00644805  1
  Na  Na51  1  0.74097234  0.74441472  0.00412090  1
  Na  Na52  1  0.25674893  0.75724879  0.82022167  1
  Na  Na53  1  0.76049296  0.26396123  0.83722757  1
  Na  Na54  1  0.75683745  0.75999035  0.49858979  1
  Na  Na55  1  0.24363410  0.24425430  0.50992672  1
  Na  Na56  1  0.73944330  0.73973672  0.17113489  1
  Na  Na57  1  0.26138326  0.75588248  0.16752852  1
  Na  Na58  1  0.25505726  0.25395409  0.14829364  1
  Na  Na59  1  0.24332456  0.24336627  0.83849247  1
  Na  Na60  1  0.75172866  0.75262261  0.83486842  1
  Na  Na61  1  0.73791087  0.23371273  0.49759938  1
  Fe  Fe62  1  0.46993028  0.80030228  0.12597835  1
  Fe  Fe63  1  0.96051288  0.30871735  0.11621410  1
  Fe  Fe64  1  0.97157026  0.79530755  0.45557227  1
  Fe  Fe65  1  0.46579017  0.30883826  0.11849994  1
  Fe  Fe66  1  0.96439722  0.80624613  0.11951477  1
  Fe  Fe67  1  0.96849173  0.80383299  0.78778660  1
  Fe  Fe68  1  0.96644958  0.31035895  0.78984361  1
  Fe  Fe69  1  0.46326294  0.30353655  0.78288620  1
  Fe  Fe70  1  0.96475674  0.30684571  0.45217951  1
  Fe  Fe71  1  0.46387931  0.31113298  0.45370909  1
  Fe  Fe72  1  0.19314534  0.53129157  0.71725342  1
  Fe  Fe73  1  0.69805355  0.53238050  0.04115086  1
  Fe  Fe74  1  0.19378986  0.53363659  0.04578984  1
  Fe  Fe75  1  0.68871688  0.03767819  0.04541424  1
  Fe  Fe76  1  0.69077014  0.53507758  0.70828228  1
  Fe  Fe77  1  0.18891002  0.03719040  0.71481731  1
  Fe  Fe78  1  0.70076025  0.03194061  0.71240663  1
  Fe  Fe79  1  0.19085773  0.03656779  0.38366509  1
  Fe  Fe80  1  0.19570017  0.53539488  0.38781607  1
  Fe  Fe81  1  0.68972830  0.53583152  0.37465422  1
  Fe  Fe82  1  0.53524085  0.19413247  0.21615645  1
  Fe  Fe83  1  0.03318073  0.19138208  0.21147391  1
  Fe  Fe84  1  0.53374503  0.19017362  0.87973974  1
  Fe  Fe85  1  0.03350517  0.19282682  0.55013691  1
  Fe  Fe86  1  0.03815570  0.68308250  0.87737455  1
  Fe  Fe87  1  0.03450250  0.69066472  0.21071886  1
  Fe  Fe88  1  0.03941619  0.19204187  0.88584874  1
  Fe  Fe89  1  0.53319485  0.19241826  0.54577001  1
  Fe  Fe90  1  0.52877755  0.70442232  0.87349109  1
  Fe  Fe91  1  0.53073378  0.70531253  0.54450430  1
  Fe  Fe92  1  0.79792765  0.96845224  0.28794087  1
  Fe  Fe93  1  0.30981455  0.96507922  0.62071495  1
  Fe  Fe94  1  0.30645399  0.46168579  0.61841113  1
  Fe  Fe95  1  0.30553598  0.46511024  0.28366064  1
  Fe  Fe96  1  0.29667425  0.96782090  0.95485378  1
  Fe  Fe97  1  0.80875042  0.46095038  0.28212859  1
  Fe  Fe98  1  0.31168602  0.46396729  0.95457298  1
  Fe  Fe99  1  0.30723121  0.96931991  0.28811252  1
  Fe  Fe100  1  0.81431633  0.96539458  0.96039437  1
  Fe  Fe101  1  0.80937483  0.46418950  0.62023093  1
  S  S102  1  0.36302146  0.14039102  0.08356368  1
  S  S103  1  0.35523973  0.14664566  0.41662030  1
  S  S104  1  0.35928054  0.13941720  0.75038834  1
  S  S105  1  0.35859341  0.63854277  0.08440673  1
  S  S106  1  0.36305450  0.63502949  0.41878068  1
  S  S107  1  0.35627188  0.63814555  0.74762460  1
  S  S108  1  0.85731776  0.14173569  0.08507147  1
  S  S109  1  0.86094247  0.13921663  0.41556860  1
  S  S110  1  0.86100204  0.14496127  0.75434564  1
  S  S111  1  0.86116127  0.64155120  0.07888644  1
  S  S112  1  0.85861813  0.63699419  0.41376355  1
  S  S113  1  0.85971205  0.63933836  0.75091466  1
  S  S114  1  0.13731560  0.36335826  0.25017241  1
  S  S115  1  0.13779024  0.35803020  0.58485724  1
  S  S116  1  0.14301003  0.35849609  0.91613093  1
  S  S117  1  0.13940522  0.85989187  0.25093212  1
  S  S118  1  0.13956653  0.86443282  0.58239592  1
  S  S119  1  0.14111760  0.85147693  0.91659388  1
  S  S120  1  0.64057040  0.35941783  0.25222493  1
  S  S121  1  0.64014497  0.36010800  0.57986873  1
  S  S122  1  0.63642781  0.35924009  0.91531909  1
  S  S123  1  0.64285232  0.85468677  0.24765455  1
  S  S124  1  0.64329659  0.86033410  0.58520041  1
  S  S125  1  0.64594341  0.86350191  0.91858553  1
  S  S126  1  0.06878133  0.18068094  0.05098717  1
  S  S127  1  0.06588032  0.17088162  0.37512929  1
  S  S128  1  0.06138204  0.16916299  0.70898221  1
  S  S129  1  0.06995227  0.67076064  0.04398245  1
  S  S130  1  0.06934376  0.66454917  0.37028556  1
  S  S131  1  0.06490813  0.66191696  0.71054215  1
  S  S132  1  0.56744029  0.17228738  0.04153289  1
  S  S133  1  0.55601293  0.16824318  0.37480449  1
  S  S134  1  0.57118325  0.17129809  0.71034048  1
  S  S135  1  0.56747304  0.67192664  0.03719617  1
  S  S136  1  0.56750155  0.66794858  0.37711304  1
  S  S137  1  0.57108615  0.67262525  0.70566457  1
  S  S138  1  0.33211875  0.43504736  0.12724976  1
  S  S139  1  0.32737735  0.42999717  0.45613068  1
  S  S140  1  0.33253267  0.42952487  0.79339170  1
  S  S141  1  0.33585731  0.92880204  0.12653722  1
  S  S142  1  0.33288579  0.94576403  0.45889065  1
  S  S143  1  0.31789400  0.93061531  0.78787558  1
  S  S144  1  0.82944101  0.43519505  0.12357853  1
  S  S145  1  0.83038289  0.43247771  0.45696799  1
  S  S146  1  0.82842329  0.43363727  0.78733544  1
  S  S147  1  0.82902520  0.93217354  0.12568055  1
  S  S148  1  0.83988300  0.92608229  0.45684726  1
  S  S149  1  0.83145395  0.93179815  0.79727671  1
  S  S150  1  0.42970580  0.32984749  0.28923447  1
  S  S151  1  0.43467622  0.33133103  0.62417856  1
  S  S152  1  0.43242060  0.32775854  0.95592574  1
  S  S153  1  0.43351491  0.83968596  0.29456606  1
  S  S154  1  0.43606511  0.83302098  0.62717251  1
  S  S155  1  0.42839892  0.82860814  0.96022602  1
  S  S156  1  0.93471933  0.33187089  0.29364556  1
  S  S157  1  0.92954559  0.32675401  0.62204594  1
  S  S158  1  0.93661883  0.32795221  0.95573768  1
  S  S159  1  0.93532261  0.82837305  0.29012509  1
  S  S160  1  0.93390404  0.82896642  0.62650395  1
  S  S161  1  0.93619343  0.82608259  0.95873773  1
  S  S162  1  0.16328421  0.06338966  0.21040042  1
  S  S163  1  0.16552580  0.06915539  0.54012370  1
  S  S164  1  0.16390660  0.06197222  0.86851395  1
  S  S165  1  0.17638100  0.57149199  0.21163406  1
  S  S166  1  0.16683679  0.55901338  0.54691050  1
  S  S167  1  0.17381543  0.56280409  0.87864579  1
  S  S168  1  0.66671138  0.06727506  0.20761951  1
  S  S169  1  0.66437066  0.06718340  0.54231021  1
  S  S170  1  0.67452996  0.06991996  0.87814268  1
  S  S171  1  0.67857019  0.56636740  0.20831667  1
  S  S172  1  0.67202145  0.57509416  0.54205580  1
  S  S173  1  0.66122023  0.57259691  0.86938313  1
  O  O174  1  0.37469836  0.21914676  0.07582970  1
  O  O175  1  0.36439900  0.22668515  0.41053328  1
  O  O176  1  0.37151819  0.21646039  0.73994777  1
  O  O177  1  0.37103652  0.71841035  0.07694317  1
  O  O178  1  0.36773567  0.70694223  0.40105760  1
  O  O179  1  0.35692169  0.71382405  0.73584751  1
  O  O180  1  0.86435031  0.21996898  0.07509008  1
  O  O181  1  0.87265040  0.21832831  0.40665310  1
  O  O182  1  0.86756507  0.22800499  0.75320231  1
  O  O183  1  0.86908971  0.72431937  0.07652344  1
  O  O184  1  0.86997058  0.71505610  0.40379461  1
  O  O185  1  0.86781437  0.71929740  0.74429681  1
  O  O186  1  0.29034027  0.13216980  0.09953412  1
  O  O187  1  0.27520402  0.13737145  0.42279223  1
  O  O188  1  0.28033150  0.13289598  0.75872216  1
  O  O189  1  0.27536321  0.63282178  0.08478953  1
  O  O190  1  0.28751049  0.62219671  0.43182688  1
  O  O191  1  0.28074106  0.62207327  0.76088120  1
  O  O192  1  0.77821829  0.12951861  0.09087910  1
  O  O193  1  0.78691978  0.13162203  0.42899645  1
  O  O194  1  0.78199877  0.13461949  0.76297481  1
  O  O195  1  0.77970327  0.63222709  0.08296191  1
  O  O196  1  0.77592644  0.63073901  0.41511192  1
  O  O197  1  0.78114500  0.62972650  0.76039256  1
  O  O198  1  0.12768171  0.28403498  0.25730485  1
  O  O199  1  0.12720999  0.27953033  0.59215490  1
  O  O200  1  0.13541288  0.27915475  0.92238522  1
  O  O201  1  0.13205369  0.77998941  0.25710168  1
  O  O202  1  0.13689059  0.79395523  0.60304897  1
  O  O203  1  0.13359265  0.77010109  0.92126268  1
  O  O204  1  0.62824746  0.28173588  0.26309360  1
  O  O205  1  0.63227993  0.27981511  0.58586491  1
  O  O206  1  0.62581321  0.28120264  0.92606163  1
  O  O207  1  0.63977796  0.77405943  0.24818140  1
  O  O208  1  0.62662528  0.78089187  0.59572029  1
  O  O209  1  0.63142634  0.78293532  0.92212640  1
  O  O210  1  0.21535421  0.37085371  0.23938215  1
  O  O211  1  0.21640829  0.36603456  0.57595096  1
  O  O212  1  0.22190545  0.36998688  0.90836527  1
  O  O213  1  0.21685308  0.87078489  0.24048541  1
  O  O214  1  0.21795140  0.87975058  0.57447903  1
  O  O215  1  0.22166278  0.86247709  0.91163807  1
  O  O216  1  0.72064341  0.36552115  0.24724480  1
  O  O217  1  0.71813494  0.36959280  0.56927362  1
  O  O218  1  0.71145070  0.36791102  0.90393076  1
  O  O219  1  0.71740060  0.87125161  0.23181211  1
  O  O220  1  0.72293405  0.86213880  0.58226225  1
  O  O221  1  0.72957215  0.86940061  0.91956021  1
  O  O222  1  0.42913179  0.12857902  0.14678385  1
  O  O223  1  0.41276776  0.13881271  0.48545267  1
  O  O224  1  0.41776078  0.13190841  0.81912590  1
  O  O225  1  0.41091249  0.63108684  0.15376820  1
  O  O226  1  0.42614494  0.63459015  0.48971774  1
  O  O227  1  0.41951687  0.63440177  0.81553272  1
  O  O228  1  0.91571338  0.13727546  0.15509825  1
  O  O229  1  0.92567929  0.12802359  0.47944423  1
  O  O230  1  0.92001358  0.13413251  0.82190123  1
  O  O231  1  0.91697281  0.63447645  0.14937684  1
  O  O232  1  0.91283854  0.62903201  0.48231200  1
  O  O233  1  0.91869141  0.63149334  0.81880245  1
  O  O234  1  0.36649817  0.08028295  0.01317733  1
  O  O235  1  0.36329116  0.08931732  0.34796602  1
  O  O236  1  0.36631370  0.07850416  0.68303923  1
  O  O237  1  0.36805974  0.58038525  0.01637303  1
  O  O238  1  0.37555657  0.56865490  0.35677328  1
  O  O239  1  0.36702845  0.57611620  0.68138441  1
  O  O240  1  0.86937486  0.08257694  0.01910709  1
  O  O241  1  0.86539474  0.08060452  0.34494137  1
  O  O242  1  0.87000928  0.09069106  0.68635128  1
  O  O243  1  0.87221147  0.58731629  0.01220417  1
  O  O244  1  0.86983168  0.57689164  0.34725722  1
  O  O245  1  0.86566724  0.58166542  0.68151742  1
  O  O246  1  0.07677440  0.37553920  0.18515435  1
  O  O247  1  0.07869401  0.36767198  0.51727154  1
  O  O248  1  0.08374750  0.36622191  0.84776173  1
  O  O249  1  0.07801912  0.86955220  0.18455685  1
  O  O250  1  0.08175271  0.85911997  0.50791428  1
  O  O251  1  0.08446703  0.85885302  0.84703011  1
  O  O252  1  0.58306233  0.36619239  0.18308292  1
  O  O253  1  0.58034785  0.36908645  0.51290930  1
  O  O254  1  0.57254286  0.36717583  0.84895746  1
  O  O255  1  0.57822108  0.86504172  0.18139293  1
  O  O256  1  0.58547092  0.86979929  0.51908921  1
  O  O257  1  0.59454266  0.87507016  0.85072035  1
  O  O258  1  0.13255571  0.42189411  0.32001155  1
  O  O259  1  0.12991270  0.41746303  0.65284291  1
  O  O260  1  0.13472615  0.41743901  0.98432971  1
  O  O261  1  0.13174735  0.91738969  0.32001567  1
  O  O262  1  0.12088319  0.93127477  0.63973750  1
  O  O263  1  0.13199774  0.90700552  0.98412104  1
  O  O264  1  0.63221890  0.41963170  0.31971720  1
  O  O265  1  0.63423985  0.41716071  0.64953945  1
  O  O266  1  0.62865395  0.42010333  0.98337977  1
  O  O267  1  0.63674978  0.91112913  0.31628885  1
  O  O268  1  0.63537506  0.91958098  0.65458398  1
  O  O269  1  0.63683475  0.92022167  0.98770746  1
  O  O270  1  0.02483779  0.21093337  0.10808977  1
  O  O271  1  0.03387592  0.20276170  0.43865426  1
  O  O272  1  0.02566899  0.19958327  0.77039301  1
  O  O273  1  0.03179082  0.70078215  0.10375833  1
  O  O274  1  0.03299221  0.69139546  0.42993189  1
  O  O275  1  0.03082942  0.69594799  0.77425881  1
  O  O276  1  0.53472286  0.20580251  0.10479158  1
  O  O277  1  0.52227088  0.20695764  0.43737703  1
  O  O278  1  0.53403745  0.19968819  0.77152721  1
  O  O279  1  0.52757683  0.69938825  0.09435958  1
  O  O280  1  0.53856187  0.69255184  0.44344300  1
  O  O281  1  0.53112155  0.69464975  0.76248985  1
  O  O282  1  0.30066211  0.46891412  0.06441455  1
  O  O283  1  0.29307985  0.46288116  0.39315672  1
  O  O284  1  0.30000334  0.46214211  0.72991169  1
  O  O285  1  0.31491327  0.96235044  0.06491993  1
  O  O286  1  0.29441898  0.97941868  0.39568166  1
  O  O287  1  0.28797581  0.97169193  0.72905302  1
  O  O288  1  0.80098783  0.47317634  0.06592407  1
  O  O289  1  0.80188702  0.47001206  0.39714219  1
  O  O290  1  0.79679799  0.46597580  0.72201467  1
  O  O291  1  0.80305179  0.97234760  0.06735669  1
  O  O292  1  0.82085071  0.95577624  0.39163176  1
  O  O293  1  0.80462197  0.97144293  0.74021829  1
  O  O294  1  0.46628275  0.30059595  0.22840199  1
  O  O295  1  0.47258499  0.30269972  0.56403184  1
  O  O296  1  0.46783981  0.29589027  0.89441847  1
  O  O297  1  0.45818053  0.80833436  0.22658192  1
  O  O298  1  0.46901167  0.79792844  0.56361216  1
  O  O299  1  0.46980688  0.80497605  0.90433089  1
  O  O300  1  0.96808154  0.30105380  0.23067550  1
  O  O301  1  0.96558296  0.29466191  0.56039734  1
  O  O302  1  0.97774261  0.29355196  0.89774105  1
  O  O303  1  0.97126322  0.79600652  0.22830436  1
  O  O304  1  0.96658167  0.80198648  0.56418666  1
  O  O305  1  0.97248873  0.79632193  0.89806505  1
  O  O306  1  0.19757895  0.03093660  0.27502460  1
  O  O307  1  0.20024698  0.04074591  0.60502460  1
  O  O308  1  0.19468918  0.02800594  0.92935995  1
  O  O309  1  0.20541858  0.53475102  0.27271390  1
  O  O310  1  0.20539822  0.52288048  0.60766085  1
  O  O311  1  0.20640352  0.52675850  0.93994941  1
  O  O312  1  0.69408949  0.03069811  0.26693646  1
  O  O313  1  0.69130473  0.04036172  0.60861404  1
  O  O314  1  0.70292821  0.03151962  0.93804180  1
  O  O315  1  0.70818150  0.52392511  0.26627850  1
  O  O316  1  0.69800255  0.53633574  0.60171385  1
  O  O317  1  0.67863762  0.53597385  0.92878259  1
  O  O318  1  0.09676423  0.10780329  0.05824770  1
  O  O319  1  0.08138507  0.08803405  0.36934289  1
  O  O320  1  0.07827588  0.08695628  0.70304292  1
  O  O321  1  0.08867734  0.58988016  0.04056639  1
  O  O322  1  0.08634016  0.58103067  0.36443667  1
  O  O323  1  0.09013083  0.58391073  0.71496076  1
  O  O324  1  0.58355413  0.09070720  0.03984363  1
  O  O325  1  0.56417623  0.08692854  0.37190511  1
  O  O326  1  0.59133137  0.09109358  0.70481396  1
  O  O327  1  0.58972983  0.59183113  0.03376859  1
  O  O328  1  0.58599074  0.58430657  0.36703041  1
  O  O329  1  0.58547684  0.58856450  0.69121985  1
  O  O330  1  0.41274762  0.41512768  0.12963580  1
  O  O331  1  0.40797947  0.41325979  0.45663334  1
  O  O332  1  0.41455973  0.41255172  0.79734127  1
  O  O333  1  0.41924337  0.91118227  0.14259231  1
  O  O334  1  0.41548279  0.94213179  0.46502042  1
  O  O335  1  0.39519757  0.90949342  0.78899270  1
  O  O336  1  0.90971827  0.41185536  0.12574571  1
  O  O337  1  0.91296700  0.41553150  0.46419578  1
  O  O338  1  0.90699548  0.40881299  0.78813617  1
  O  O339  1  0.91077631  0.91320379  0.13230084  1
  O  O340  1  0.92249341  0.90262534  0.46732111  1
  O  O341  1  0.91118197  0.90871723  0.79926519  1
  O  O342  1  0.41124941  0.41135441  0.29520931  1
  O  O343  1  0.41490602  0.41253204  0.62897176  1
  O  O344  1  0.41643521  0.40963194  0.95873441  1
  O  O345  1  0.41209727  0.92208157  0.30027284  1
  O  O346  1  0.40888414  0.90906658  0.61732034  1
  O  O347  1  0.40633500  0.90909926  0.96732250  1
  O  O348  1  0.91890504  0.41456898  0.29991902  1
  O  O349  1  0.91333386  0.40791352  0.62335846  1
  O  O350  1  0.91537713  0.40381078  0.95116772  1
  O  O351  1  0.92347041  0.91155475  0.29556731  1
  O  O352  1  0.92363165  0.91264799  0.64307832  1
  O  O353  1  0.91917377  0.90799070  0.96505098  1
  O  O354  1  0.08404725  0.08641950  0.21375522  1
  O  O355  1  0.08289018  0.08492300  0.53625824  1
  O  O356  1  0.08314388  0.08417714  0.86627535  1
  O  O357  1  0.09437712  0.58775996  0.20577041  1
  O  O358  1  0.08501091  0.56421537  0.54427419  1
  O  O359  1  0.09410291  0.58143174  0.87820813  1
  O  O360  1  0.58320545  0.08371462  0.20086158  1
  O  O361  1  0.58197490  0.09039780  0.53480481  1
  O  O362  1  0.59207132  0.08607511  0.87199216  1
  O  O363  1  0.60256293  0.58967704  0.20956393  1
  O  O364  1  0.59244695  0.59987155  0.53721267  1
  O  O365  1  0.57937868  0.59382386  0.85308662  1
  O  O366  1  0.13277784  0.24086928  0.06653405  1
  O  O367  1  0.13798282  0.22075925  0.38892115  1
  O  O368  1  0.13296138  0.21993438  0.72492202  1
  O  O369  1  0.14005166  0.72431717  0.06069559  1
  O  O370  1  0.13980176  0.71459989  0.38265741  1
  O  O371  1  0.13291419  0.71562615  0.72208639  1
  O  O372  1  0.63793496  0.22145352  0.05239975  1
  O  O373  1  0.63077555  0.21507922  0.39002885  1
  O  O374  1  0.64073667  0.22669781  0.72713245  1
  O  O375  1  0.63839444  0.72683897  0.05581987  1
  O  O376  1  0.63897598  0.72005287  0.39306035  1
  O  O377  1  0.64493316  0.72319653  0.72740949  1
  O  O378  1  0.27958936  0.36721858  0.11695430  1
  O  O379  1  0.27663241  0.35875540  0.44349208  1
  O  O380  1  0.28229827  0.36036005  0.78359943  1
  O  O381  1  0.28279361  0.85656092  0.10814732  1
  O  O382  1  0.28823098  0.86983437  0.44136228  1
  O  O383  1  0.26157848  0.86056829  0.76787361  1
  O  O384  1  0.77583698  0.36657981  0.11124191  1
  O  O385  1  0.77862441  0.36030910  0.43908487  1
  O  O386  1  0.77274715  0.36525889  0.77328655  1
  O  O387  1  0.77538652  0.86137576  0.10594820  1
  O  O388  1  0.78394632  0.85722347  0.44061823  1
  O  O389  1  0.77687561  0.86172172  0.78132258  1
  O  O390  1  0.35823094  0.27736095  0.27223127  1
  O  O391  1  0.36440741  0.27833542  0.60727610  1
  O  O392  1  0.36109473  0.27778808  0.94147376  1
  O  O393  1  0.36252700  0.78929708  0.28453229  1
  O  O394  1  0.36999124  0.77964826  0.61949964  1
  O  O395  1  0.35803248  0.77203744  0.93887440  1
  O  O396  1  0.86403762  0.28177267  0.28114736  1
  O  O397  1  0.85727035  0.27625535  0.60635000  1
  O  O398  1  0.86761712  0.27268528  0.94092085  1
  O  O399  1  0.86121874  0.77999993  0.27233064  1
  O  O400  1  0.85991373  0.77888704  0.60872179  1
  O  O401  1  0.86461087  0.77446812  0.94260987  1
  O  O402  1  0.21536340  0.13326434  0.22273009  1
  O  O403  1  0.21344836  0.13875801  0.54665023  1
  O  O404  1  0.21569100  0.13067441  0.87747470  1
  O  O405  1  0.22769153  0.64358528  0.22883689  1
  O  O406  1  0.21233381  0.63335039  0.56226489  1
  O  O407  1  0.22608176  0.63311738  0.89272300  1
  O  O408  1  0.71683247  0.13924837  0.22306639  1
  O  O409  1  0.71725208  0.13801685  0.55540440  1
  O  O410  1  0.72583037  0.14257345  0.89761776  1
  O  O411  1  0.73656916  0.63491411  0.22755816  1
  O  O412  1  0.72918935  0.64265793  0.55866780  1
  O  O413  1  0.71778501  0.64249851  0.88979775  1
  O  O414  1  0.49225473  0.33148171  0.02869092  1
  O  O415  1  0.48935647  0.33288112  0.36178149  1
  O  O416  1  0.49392667  0.33473853  0.69698582  1
  O  O417  1  0.48381558  0.82990087  0.03564362  1
  O  O418  1  0.49809012  0.84575242  0.36237062  1
  O  O419  1  0.49935186  0.85193424  0.69915171  1
  O  O420  1  0.99408413  0.33421244  0.03075630  1
  O  O421  1  0.99605202  0.33392620  0.36543213  1
  O  O422  1  0.98862083  0.32894131  0.69410264  1
  O  O423  1  0.99549558  0.82851110  0.03154760  1
  O  O424  1  0.99302122  0.82573060  0.36123284  1
  O  O425  1  0.99137121  0.81883106  0.69603740  1
  O  O426  1  0.15313206  0.00108715  0.13972644  1
  O  O427  1  0.15910003  0.00524091  0.46810381  1
  O  O428  1  0.15404844  0.00066043  0.79387276  1
  O  O429  1  0.17591861  0.51244100  0.13972773  1
  O  O430  1  0.16774868  0.50284534  0.47289641  1
  O  O431  1  0.17066955  0.50227448  0.80683421  1
  O  O432  1  0.66369638  0.00922051  0.13338822  1
  O  O433  1  0.65911283  0.00445668  0.47339043  1
  O  O434  1  0.67396029  0.01249104  0.80561994  1
  O  O435  1  0.67514671  0.50964740  0.13395758  1
  O  O436  1  0.66667492  0.51400906  0.46927562  1
  O  O437  1  0.66500207  0.51316878  0.79825484  1
  O  O438  1  0.00519266  0.16947112  0.30393102  1
  O  O439  1  0.00173293  0.16640191  0.63624128  1
  O  O440  1  0.01026105  0.16924185  0.97520925  1
  O  O441  1  0.00874396  0.65796660  0.29572958  1
  O  O442  1  0.00223975  0.64813098  0.63952012  1
  O  O443  1  0.01049767  0.66523574  0.97023082  1
  O  O444  1  0.49934030  0.17044071  0.30223183  1
  O  O445  1  0.51049132  0.17099257  0.63895262  1
  O  O446  1  0.50557537  0.16724618  0.96940921  1
  O  O447  1  0.50544057  0.66707929  0.30929919  1
  O  O448  1  0.51559286  0.67994532  0.63391023  1
  O  O449  1  0.51130052  0.66731304  0.96199895  1
  O  O450  1  0.33963718  0.49840733  0.19968183  1
  O  O451  1  0.33145767  0.49011027  0.52842046  1
  O  O452  1  0.33877391  0.49301878  0.86552072  1
  O  O453  1  0.32778224  0.98882396  0.19488774  1
  O  O454  1  0.32593120  1.00148319  0.52984939  1
  O  O455  1  0.31962986  0.98759918  0.86178272  1
  O  O456  1  0.84107986  0.49348060  0.20034015  1
  O  O457  1  0.83194505  0.49050904  0.53024884  1
  O  O458  1  0.83603673  0.49657244  0.85694379  1
  O  O459  1  0.83054941  0.99003022  0.19875680  1
  O  O460  1  0.84393376  0.98875611  0.52558066  1
  O  O461  1  0.83798324  0.98965321  0.87248879  1
