# generated using pymatgen
data_Na31Fe20(SO4)36
_symmetry_space_group_name_H-M   'P 1'
_cell_length_a   18.07270467
_cell_length_b   18.07388159
_cell_length_c   19.70384884
_cell_angle_alpha   107.59063656
_cell_angle_beta   107.56145792
_cell_angle_gamma   90.71596550
_symmetry_Int_Tables_number   1
_chemical_formula_structural   Na31Fe20(SO4)36
_chemical_formula_sum   'Na62 Fe40 S72 O288'
_cell_volume   5811.06136352
_cell_formula_units_Z   2
loop_
 _symmetry_equiv_pos_site_id
 _symmetry_equiv_pos_as_xyz
  1  'x, y, z'
loop_
 _atom_site_type_symbol
 _atom_site_label
 _atom_site_symmetry_multiplicity
 _atom_site_fract_x
 _atom_site_fract_y
 _atom_site_fract_z
 _atom_site_occupancy
  Na  Na0  1  0.12617331  0.36644064  0.07533854  1
  Na  Na1  1  0.13447837  0.36613375  0.41830302  1
  Na  Na2  1  0.16020289  0.33209679  0.76641353  1
  Na  Na3  1  0.13436491  0.86620773  0.08368003  1
  Na  Na4  1  0.12617483  0.85989703  0.41406587  1
  Na  Na5  1  0.13844818  0.87530644  0.76211460  1
  Na  Na6  1  0.63635605  0.36370516  0.08480645  1
  Na  Na7  1  0.63432833  0.35228613  0.40752654  1
  Na  Na8  1  0.63630473  0.37177001  0.75442352  1
  Na  Na9  1  0.63113519  0.87415578  0.08688928  1
  Na  Na10  1  0.63235156  0.86375459  0.41033525  1
  Na  Na11  1  0.64229806  0.87214024  0.76112498  1
  Na  Na12  1  0.36352875  0.13384408  0.24321081  1
  Na  Na13  1  0.36575678  0.14835335  0.59824727  1
  Na  Na14  1  0.36091591  0.12961272  0.90985636  1
  Na  Na15  1  0.38060524  0.62826759  0.24939162  1
  Na  Na16  1  0.36683262  0.63448971  0.58225265  1
  Na  Na17  1  0.37036676  0.62899172  0.91667531  1
  Na  Na18  1  0.85014751  0.13077902  0.23803825  1
  Na  Na19  1  0.86124925  0.13863406  0.58734306  1
  Na  Na20  1  0.85319301  0.12923946  0.90602374  1
  Na  Na21  1  0.86646864  0.64098928  0.25799721  1
  Na  Na22  1  0.86725555  0.63243418  0.58191682  1
  Na  Na23  1  0.87695839  0.62472978  0.91968309  1
  Na  Na24  1  0.97764329  0.01597762  0.74673209  1
  Na  Na25  1  0.50665757  0.50769470  0.39388108  1
  Na  Na26  1  0.98680884  0.51356102  0.41305618  1
  Na  Na27  1  0.49482764  0.50294110  0.77222819  1
  Na  Na28  1  0.47414268  0.02980905  0.05849193  1
  Na  Na29  1  1.02499119  0.45178328  0.80130489  1
  Na  Na30  1  0.49173145  0.01002482  0.42777310  1
  Na  Na31  1  0.97590340  0.01646836  0.07944069  1
  Na  Na32  1  0.98332525  0.00426249  0.42135418  1
  Na  Na33  1  0.00899599  0.50193580  0.22258403  1
  Na  Na34  1  0.00842812  0.98976342  0.25439197  1
  Na  Na35  1  0.54840072  0.98592309  0.67288997  1
  Na  Na36  1  0.47422344  0.52270587  0.07854113  1
  Na  Na37  1  0.00605218  0.95569999  0.57680564  1
  Na  Na38  1  0.50938811  0.99990699  0.24148171  1
  Na  Na39  1  0.02258925  0.99030937  0.91957720  1
  Na  Na40  1  0.51383914  0.48654592  0.58230508  1
  Na  Na41  1  0.00928478  0.48705917  0.59622441  1
  Na  Na42  1  0.25153150  0.25174036  0.33163408  1
  Na  Na43  1  0.73126838  0.23118791  0.34267026  1
  Na  Na44  1  0.75037819  0.74974654  0.00388089  1
  Na  Na45  1  0.25982656  0.75800874  -0.00507444  1
  Na  Na46  1  0.25917836  0.75572839  0.32842263  1
  Na  Na47  1  0.26213386  0.26586301  -0.01755147  1
  Na  Na48  1  0.25445222  0.75665752  0.66594413  1
  Na  Na49  1  0.75369343  0.74925900  0.66511747  1
  Na  Na50  1  0.74960102  0.75159199  0.33301945  1
  Na  Na51  1  0.76499355  0.25821783  0.66242188  1
  Na  Na52  1  0.25001568  0.75211951  0.49764711  1
  Na  Na53  1  0.76092708  0.75562135  0.49516359  1
  Na  Na54  1  0.26204728  0.76507606  0.83288766  1
  Na  Na55  1  0.25814624  0.26068452  0.15526984  1
  Na  Na56  1  0.75187265  0.75140046  0.83698111  1
  Na  Na57  1  0.73223181  0.23475611  0.16330941  1
  Na  Na58  1  0.73849396  0.74390399  0.17028814  1
  Na  Na59  1  0.73785566  0.23418268  0.83673253  1
  Na  Na60  1  0.26188085  0.75409940  0.16149257  1
  Na  Na61  1  0.23942500  0.24339192  0.51651296  1
  Fe  Fe62  1  0.96204924  0.30644228  0.45039084  1
  Fe  Fe63  1  0.45835330  0.31578612  0.79242896  1
  Fe  Fe64  1  0.46434891  0.81775865  0.79592802  1
  Fe  Fe65  1  0.46910054  0.80686346  0.45605158  1
  Fe  Fe66  1  0.46585320  0.30483809  0.12209211  1
  Fe  Fe67  1  0.95984478  0.30552704  0.11330965  1
  Fe  Fe68  1  0.96631777  0.80235835  0.11784783  1
  Fe  Fe69  1  0.46773257  0.79919236  0.12317822  1
  Fe  Fe70  1  0.96627495  0.80625196  0.78957591  1
  Fe  Fe71  1  0.46828560  0.30273243  0.45092191  1
  Fe  Fe72  1  0.19353088  0.53410833  0.37834867  1
  Fe  Fe73  1  0.20048913  0.03306094  0.04615904  1
  Fe  Fe74  1  0.19324780  0.03549801  0.38670664  1
  Fe  Fe75  1  0.19133857  0.03853769  0.71704366  1
  Fe  Fe76  1  0.69575228  0.53427176  0.71342312  1
  Fe  Fe77  1  0.69047493  0.03975821  0.38432488  1
  Fe  Fe78  1  0.69084300  0.53151375  0.04505176  1
  Fe  Fe79  1  0.69142594  0.53487694  0.37536343  1
  Fe  Fe80  1  0.19892781  0.52844362  0.03975258  1
  Fe  Fe81  1  0.19874518  0.53466376  0.71869193  1
  Fe  Fe82  1  0.02780284  0.20092720  0.87321491  1
  Fe  Fe83  1  0.53750567  0.19403170  0.55338681  1
  Fe  Fe84  1  0.03559198  0.68951211  0.88087000  1
  Fe  Fe85  1  0.03388781  0.69206039  0.21156435  1
  Fe  Fe86  1  0.03229801  0.70214865  0.54558864  1
  Fe  Fe87  1  0.03240318  0.19355615  0.21151757  1
  Fe  Fe88  1  0.53843482  0.69559035  0.88232585  1
  Fe  Fe89  1  0.53841073  0.68822670  0.54565501  1
  Fe  Fe90  1  0.03542486  0.19705494  0.55691586  1
  Fe  Fe91  1  0.53153100  0.19507486  0.88002532  1
  Fe  Fe92  1  0.31571388  0.96715808  0.62982433  1
  Fe  Fe93  1  0.80394578  0.46310207  0.27814504  1
  Fe  Fe94  1  0.78296696  0.98175653  0.95518307  1
  Fe  Fe95  1  0.81457438  0.45958144  0.62127208  1
  Fe  Fe96  1  0.30807593  0.46597150  0.61828301  1
  Fe  Fe97  1  0.30582180  0.46463628  0.28450785  1
  Fe  Fe98  1  0.30514140  0.96717772  0.28973070  1
  Fe  Fe99  1  0.79649211  0.96943839  0.62328742  1
  Fe  Fe100  1  0.81047054  0.45750776  0.95133590  1
  Fe  Fe101  1  0.80278936  0.96774841  0.28127242  1
  S  S102  1  0.35580695  0.14510473  0.08386852  1
  S  S103  1  0.35761018  0.14239846  0.42181044  1
  S  S104  1  0.35737009  0.14478511  0.75132096  1
  S  S105  1  0.35754148  0.64099420  0.08278749  1
  S  S106  1  0.36193041  0.63955770  0.41806339  1
  S  S107  1  0.36272386  0.64132452  0.74973520  1
  S  S108  1  0.85786012  0.14209396  0.08579975  1
  S  S109  1  0.86165329  0.13924941  0.41661146  1
  S  S110  1  0.85953634  0.14008206  0.74761926  1
  S  S111  1  0.85990657  0.63590755  0.08201616  1
  S  S112  1  0.86052741  0.63709237  0.41701076  1
  S  S113  1  0.86145328  0.63867350  0.74756536  1
  S  S114  1  0.13771330  0.35996828  0.24891102  1
  S  S115  1  0.13682733  0.36408210  0.58016349  1
  S  S116  1  0.14151987  0.35635840  0.91771585  1
  S  S117  1  0.13925059  0.86053735  0.25308525  1
  S  S118  1  0.14500449  0.86135328  0.58484126  1
  S  S119  1  0.14030824  0.85865756  0.92073246  1
  S  S120  1  0.63820909  0.36023018  0.25204030  1
  S  S121  1  0.64212160  0.35967501  0.58260780  1
  S  S122  1  0.63865682  0.35926402  0.91465748  1
  S  S123  1  0.63874802  0.86311338  0.25140276  1
  S  S124  1  0.64407733  0.85081851  0.58236427  1
  S  S125  1  0.64216065  0.85609792  0.91590231  1
  S  S126  1  0.06637344  0.17121825  0.04099189  1
  S  S127  1  0.06709671  0.16994046  0.37556983  1
  S  S128  1  0.06294278  0.15648861  0.70249999  1
  S  S129  1  0.07541537  0.67069438  0.04645767  1
  S  S130  1  0.06761691  0.66209721  0.37187651  1
  S  S131  1  0.07294902  0.67459304  0.70957379  1
  S  S132  1  0.55926078  0.17455564  0.04131127  1
  S  S133  1  0.55769612  0.16310358  0.37584380  1
  S  S134  1  0.56429510  0.18526492  0.71598785  1
  S  S135  1  0.56926058  0.67047409  0.04097498  1
  S  S136  1  0.56912152  0.67282665  0.37804106  1
  S  S137  1  0.56901948  0.66755149  0.70773687  1
  S  S138  1  0.32787576  0.43077565  0.12430473  1
  S  S139  1  0.33063596  0.43249298  0.45625864  1
  S  S140  1  0.33046090  0.43742322  0.78810974  1
  S  S141  1  0.33032936  0.93316641  0.12877620  1
  S  S142  1  0.32694446  0.93061196  0.46025246  1
  S  S143  1  0.32635781  0.93462272  0.79174013  1
  S  S144  1  0.83160299  0.43475743  0.12612886  1
  S  S145  1  0.83114373  0.43100570  0.45566792  1
  S  S146  1  0.82651490  0.43268300  0.78683044  1
  S  S147  1  0.84088423  0.93177892  0.12431080  1
  S  S148  1  0.82704962  0.93820167  0.45839080  1
  S  S149  1  0.83334306  0.92813504  0.79604871  1
  S  S150  1  0.42923743  0.33020975  0.29086278  1
  S  S151  1  0.43623698  0.33889333  0.62460429  1
  S  S152  1  0.43582741  0.33056813  0.96159507  1
  S  S153  1  0.43192212  0.83679759  0.29703120  1
  S  S154  1  0.43538115  0.82625828  0.62509360  1
  S  S155  1  0.43565581  0.82758922  0.96028461  1
  S  S156  1  0.93046793  0.32893899  0.28794482  1
  S  S157  1  0.94051011  0.33199389  0.62560730  1
  S  S158  1  0.92863228  0.32286318  0.95421267  1
  S  S159  1  0.93239065  0.83212256  0.29021434  1
  S  S160  1  0.93263756  0.83144248  0.62766877  1
  S  S161  1  0.93649858  0.83039843  0.95965115  1
  S  S162  1  0.16810132  0.06649444  0.20965203  1
  S  S163  1  0.16656140  0.06735265  0.54269138  1
  S  S164  1  0.16004497  0.07218950  0.87635935  1
  S  S165  1  0.17676096  0.57010917  0.20856106  1
  S  S166  1  0.16944063  0.57117758  0.54179688  1
  S  S167  1  0.16911375  0.56960044  0.87497484  1
  S  S168  1  0.66833646  0.06185705  0.20992425  1
  S  S169  1  0.66570669  0.06482838  0.54488065  1
  S  S170  1  0.65954489  0.06745500  0.86507805  1
  S  S171  1  0.67096472  0.56706653  0.20761860  1
  S  S172  1  0.67088481  0.56168261  0.54027425  1
  S  S173  1  0.67589534  0.56883534  0.87692982  1
  O  O174  1  0.36302049  0.23127164  0.08719195  1
  O  O175  1  0.36665341  0.22102018  0.41303827  1
  O  O176  1  0.36543996  0.22172928  0.74053305  1
  O  O177  1  0.36368453  0.72568076  0.08369763  1
  O  O178  1  0.36965250  0.71996854  0.41282014  1
  O  O179  1  0.37201638  0.72207508  0.74535209  1
  O  O180  1  0.86824823  0.22165414  0.08109683  1
  O  O181  1  0.87095091  0.21564257  0.40326772  1
  O  O182  1  0.87180333  0.21250960  0.73250294  1
  O  O183  1  0.87111573  0.71352716  0.07089925  1
  O  O184  1  0.86447449  0.71229752  0.40435596  1
  O  O185  1  0.87368729  0.71681798  0.73786466  1
  O  O186  1  0.27439862  0.13455977  0.08956645  1
  O  O187  1  0.27735455  0.13330045  0.42791438  1
  O  O188  1  0.28162896  0.13099627  0.76262843  1
  O  O189  1  0.27495837  0.62912203  0.08522922  1
  O  O190  1  0.28269223  0.62891696  0.42571409  1
  O  O191  1  0.28492462  0.63317130  0.76065405  1
  O  O192  1  0.78554716  0.12929117  0.10050295  1
  O  O193  1  0.78361133  0.13306839  0.42589139  1
  O  O194  1  0.78622879  0.13043197  0.76198655  1
  O  O195  1  0.78049959  0.63060885  0.09023790  1
  O  O196  1  0.78347362  0.62408020  0.42907311  1
  O  O197  1  0.78115593  0.63432450  0.75419231  1
  O  O198  1  0.12736378  0.28067393  0.25658710  1
  O  O199  1  0.12970796  0.28464741  0.58650329  1
  O  O200  1  0.12024306  0.27962156  0.93089492  1
  O  O201  1  0.12929195  0.78299225  0.26391060  1
  O  O202  1  0.13450389  0.77973595  0.58819446  1
  O  O203  1  0.12687673  0.78115452  0.93107667  1
  O  O204  1  0.63421880  0.28650803  0.26721993  1
  O  O205  1  0.63257444  0.28237449  0.59306825  1
  O  O206  1  0.62813485  0.27750321  0.91674150  1
  O  O207  1  0.63506543  0.78803962  0.26435132  1
  O  O208  1  0.63725415  0.76746270  0.58195331  1
  O  O209  1  0.63984726  0.77142006  0.91397784  1
  O  O210  1  0.21683101  0.36725405  0.24091878  1
  O  O211  1  0.21330951  0.37384280  0.56676608  1
  O  O212  1  0.22074858  0.35433366  0.91431480  1
  O  O213  1  0.21988926  0.86842447  0.24823516  1
  O  O214  1  0.22666819  0.86975370  0.58155355  1
  O  O215  1  0.21632233  0.86464831  0.91043234  1
  O  O216  1  0.71451577  0.37246101  0.23855979  1
  O  O217  1  0.72212334  0.37009847  0.57903178  1
  O  O218  1  0.71641469  0.36774260  0.90346619  1
  O  O219  1  0.71634926  0.87473240  0.23883386  1
  O  O220  1  0.72342089  0.86318863  0.57530063  1
  O  O221  1  0.71900668  0.87100391  0.90385273  1
  O  O222  1  0.41263927  0.13141910  0.14822964  1
  O  O223  1  0.41537346  0.13505119  0.49065180  1
  O  O224  1  0.42042874  0.13902379  0.81887182  1
  O  O225  1  0.41338266  0.63134535  0.14987167  1
  O  O226  1  0.42065311  0.63008234  0.48554681  1
  O  O227  1  0.42408365  0.62810094  0.81359365  1
  O  O228  1  0.92460561  0.12906485  0.14884232  1
  O  O229  1  0.92195654  0.13269362  0.48476459  1
  O  O230  1  0.92523873  0.13286091  0.81620951  1
  O  O231  1  0.91836813  0.63084122  0.15184309  1
  O  O232  1  0.92188081  0.63319331  0.48670020  1
  O  O233  1  0.91825902  0.63158926  0.81671483  1
  O  O234  1  0.36142806  0.09499124  0.01249334  1
  O  O235  1  0.36569207  0.08219776  0.35457954  1
  O  O236  1  0.36475526  0.08376475  0.68310953  1
  O  O237  1  0.36838094  0.58963029  0.01436986  1
  O  O238  1  0.37094898  0.58194279  0.34991603  1
  O  O239  1  0.36642613  0.58490039  0.67830804  1
  O  O240  1  0.86337706  0.08450941  0.01434395  1
  O  O241  1  0.87125814  0.07707235  0.35019858  1
  O  O242  1  0.86840370  0.07319867  0.68288758  1
  O  O243  1  0.86686998  0.57490969  0.01523794  1
  O  O244  1  0.87160870  0.57390545  0.35222402  1
  O  O245  1  0.86845421  0.57884878  0.67972101  1
  O  O246  1  0.07824581  0.37066672  0.18264997  1
  O  O247  1  0.07465438  0.37312986  0.51330404  1
  O  O248  1  0.08546131  0.36255890  0.84925019  1
  O  O249  1  0.08241590  0.86709853  0.18337865  1
  O  O250  1  0.08851646  0.87221658  0.51865900  1
  O  O251  1  0.07794059  0.86837895  0.85430432  1
  O  O252  1  0.57604370  0.36281376  0.18241902  1
  O  O253  1  0.58463887  0.36550403  0.51189821  1
  O  O254  1  0.57817642  0.37404369  0.85122497  1
  O  O255  1  0.57756732  0.86753518  0.18244819  1
  O  O256  1  0.58525964  0.86254897  0.51594167  1
  O  O257  1  0.58055213  0.86319602  0.84859117  1
  O  O258  1  0.13257850  0.41880149  0.31868489  1
  O  O259  1  0.13058577  0.42405894  0.64809750  1
  O  O260  1  0.13552789  0.41952558  0.98588251  1
  O  O261  1  0.12837131  0.92205751  0.31863889  1
  O  O262  1  0.13549214  0.91701178  0.65446576  1
  O  O263  1  0.13328623  0.91985213  0.98900447  1
  O  O264  1  0.62972219  0.42472208  0.31739691  1
  O  O265  1  0.62791267  0.42092969  0.64703122  1
  O  O266  1  0.63716332  0.41441349  0.98717615  1
  O  O267  1  0.62887309  0.92617550  0.31652457  1
  O  O268  1  0.63677495  0.90196387  0.65248234  1
  O  O269  1  0.63678522  0.90676112  0.98603795  1
  O  O270  1  0.02654304  0.20170921  0.09985949  1
  O  O271  1  0.03272034  0.20117461  0.43715976  1
  O  O272  1  0.04041705  0.19054427  0.77113038  1
  O  O273  1  0.03493248  0.69844266  0.10587594  1
  O  O274  1  0.03385654  0.68402870  0.43312544  1
  O  O275  1  0.03636747  0.70081217  0.77088150  1
  O  O276  1  0.51386416  0.20727749  0.09511700  1
  O  O277  1  0.52856063  0.19750861  0.44343447  1
  O  O278  1  0.52295673  0.21495246  0.77498123  1
  O  O279  1  0.53129294  0.69934330  0.09904591  1
  O  O280  1  0.53115072  0.70139879  0.44028716  1
  O  O281  1  0.53225099  0.69571306  0.76740505  1
  O  O282  1  0.30292489  0.47253998  0.06877396  1
  O  O283  1  0.30082728  0.46915038  0.39531517  1
  O  O284  1  0.29878079  0.46888521  0.72040402  1
  O  O285  1  0.30254193  0.97166142  0.07103763  1
  O  O286  1  0.29652873  0.96986756  0.40077747  1
  O  O287  1  0.29451987  0.96977407  0.72809721  1
  O  O288  1  0.79895187  0.46706654  0.06247287  1
  O  O289  1  0.80045893  0.46555136  0.39389201  1
  O  O290  1  0.79525561  0.47470918  0.72808855  1
  O  O291  1  0.81874023  0.96277922  0.06098173  1
  O  O292  1  0.79082666  0.97207534  0.39602187  1
  O  O293  1  0.81128313  0.95934338  0.73304027  1
  O  O294  1  0.46267624  0.31106155  0.22913232  1
  O  O295  1  0.47338437  0.30717268  0.56413943  1
  O  O296  1  0.47633206  0.29747799  0.90146248  1
  O  O297  1  0.46512940  0.81553973  0.23577407  1
  O  O298  1  0.47351256  0.79597937  0.56506461  1
  O  O299  1  0.47377735  0.79442456  0.89878562  1
  O  O300  1  0.96877573  0.30053527  0.22817432  1
  O  O301  1  0.96763233  0.29641272  0.55702177  1
  O  O302  1  0.96581763  0.29212921  0.89450411  1
  O  O303  1  0.96505026  0.79907586  0.22538641  1
  O  O304  1  0.97184389  0.80496387  0.56982124  1
  O  O305  1  0.96714574  0.79172103  0.89541934  1
  O  O306  1  0.19741740  0.03029880  0.27135958  1
  O  O307  1  0.19465460  0.03302458  0.60473815  1
  O  O308  1  0.17108512  0.03200305  0.93316207  1
  O  O309  1  0.20357114  0.53105022  0.26904188  1
  O  O310  1  0.20002453  0.53629593  0.60336416  1
  O  O311  1  0.19267296  0.53381004  0.93494550  1
  O  O312  1  0.70695852  0.03658982  0.28040416  1
  O  O313  1  0.69140166  0.02455906  0.60149573  1
  O  O314  1  0.68557826  0.03536112  0.92899154  1
  O  O315  1  0.70816202  0.53424178  0.27178778  1
  O  O316  1  0.70105487  0.52674703  0.60187343  1
  O  O317  1  0.70182292  0.53062870  0.93649566  1
  O  O318  1  0.08142212  0.08912655  0.03869117  1
  O  O319  1  0.08383703  0.08721199  0.37099253  1
  O  O320  1  0.07137662  0.07048540  0.69157729  1
  O  O321  1  0.10113691  0.59371423  0.04554144  1
  O  O322  1  0.08275394  0.57694401  0.35640989  1
  O  O323  1  0.09314029  0.59319591  0.70114200  1
  O  O324  1  0.57279154  0.09582321  0.04139210  1
  O  O325  1  0.57778791  0.08192364  0.37555617  1
  O  O326  1  0.58724849  0.10913617  0.71580630  1
  O  O327  1  0.59192923  0.59106724  0.04034626  1
  O  O328  1  0.59162011  0.59323892  0.37984206  1
  O  O329  1  0.58768680  0.58523631  0.70193169  1
  O  O330  1  0.40561668  0.40276170  0.12388813  1
  O  O331  1  0.41240258  0.41429745  0.46259613  1
  O  O332  1  0.41239234  0.41889000  0.78914062  1
  O  O333  1  0.41042228  0.91055998  0.13311204  1
  O  O334  1  0.40741379  0.91190599  0.46247576  1
  O  O335  1  0.40397286  0.91026408  0.78782571  1
  O  O336  1  0.91140735  0.41279495  0.12645674  1
  O  O337  1  0.91541833  0.41797749  0.46234355  1
  O  O338  1  0.90299198  0.41203970  0.78475262  1
  O  O339  1  0.92525908  0.91411681  0.13584625  1
  O  O340  1  0.90977226  0.93172870  0.46395891  1
  O  O341  1  0.91901545  0.91553451  0.81245395  1
  O  O342  1  0.40945163  0.41290638  0.30723245  1
  O  O343  1  0.42133920  0.42197998  0.62785738  1
  O  O344  1  0.42206128  0.41002402  0.96438873  1
  O  O345  1  0.41225643  0.92006007  0.31141033  1
  O  O346  1  0.41889456  0.90782588  0.62869134  1
  O  O347  1  0.42017476  0.90680864  0.96371630  1
  O  O348  1  0.91349080  0.41137768  0.29430442  1
  O  O349  1  0.92027759  0.41301919  0.62411860  1
  O  O350  1  0.90800900  0.40200435  0.95466108  1
  O  O351  1  0.91321621  0.91402315  0.29208820  1
  O  O352  1  0.91016157  0.91158673  0.62977395  1
  O  O353  1  0.93043367  0.91341826  0.96551747  1
  O  O354  1  0.08456938  0.08063245  0.20254237  1
  O  O355  1  0.08472272  0.08754278  0.53561180  1
  O  O356  1  0.07695643  0.09489263  0.86119934  1
  O  O357  1  0.09581354  0.58929649  0.20481923  1
  O  O358  1  0.08777753  0.58934532  0.53618948  1
  O  O359  1  0.08572874  0.58738643  0.86372623  1
  O  O360  1  0.58597215  0.06963275  0.20435053  1
  O  O361  1  0.58425466  0.08642783  0.54073400  1
  O  O362  1  0.58369314  0.10174499  0.86758955  1
  O  O363  1  0.58980483  0.57599785  0.19995616  1
  O  O364  1  0.58750361  0.57713515  0.53461743  1
  O  O365  1  0.59608719  0.59200087  0.87165310  1
  O  O366  1  0.13795791  0.22293327  0.06030888  1
  O  O367  1  0.13958225  0.22015483  0.39059172  1
  O  O368  1  0.13529505  0.19760706  0.70697239  1
  O  O369  1  0.14163526  0.72971584  0.06368146  1
  O  O370  1  0.14023605  0.71289454  0.38907821  1
  O  O371  1  0.14299942  0.72902015  0.72688378  1
  O  O372  1  0.63027104  0.22798813  0.06124315  1
  O  O373  1  0.62764727  0.21329557  0.38695468  1
  O  O374  1  0.63216347  0.24173288  0.73266306  1
  O  O375  1  0.63954613  0.72469602  0.05526544  1
  O  O376  1  0.64108847  0.72607113  0.39779073  1
  O  O377  1  0.64001132  0.71958261  0.72271971  1
  O  O378  1  0.26943774  0.36404156  0.10792405  1
  O  O379  1  0.27778713  0.36196404  0.44004987  1
  O  O380  1  0.28203998  0.36607383  0.77327616  1
  O  O381  1  0.27523553  0.86354311  0.11332236  1
  O  O382  1  0.27360372  0.85871005  0.44082498  1
  O  O383  1  0.27207028  0.86302784  0.77363078  1
  O  O384  1  0.78001467  0.36880938  0.12075644  1
  O  O385  1  0.78309167  0.35824786  0.44087375  1
  O  O386  1  0.76977094  0.36407115  0.76776569  1
  O  O387  1  0.78995812  0.86078442  0.11091917  1
  O  O388  1  0.78185315  0.86173597  0.44101282  1
  O  O389  1  0.78512284  0.85308047  0.77793983  1
  O  O390  1  0.35847868  0.27628652  0.27358720  1
  O  O391  1  0.36318756  0.28985495  0.60721325  1
  O  O392  1  0.36752824  0.27513319  0.94398094  1
  O  O393  1  0.36129292  0.78301162  0.28075357  1
  O  O394  1  0.36226132  0.77470936  0.60562837  1
  O  O395  1  0.36390361  0.77318154  0.94042736  1
  O  O396  1  0.85945885  0.27704368  0.27106057  1
  O  O397  1  0.87073849  0.28348260  0.61677428  1
  O  O398  1  0.86000273  0.26963354  0.94151593  1
  O  O399  1  0.86008885  0.78142114  0.27481342  1
  O  O400  1  0.86311303  0.77602934  0.61094600  1
  O  O401  1  0.86170526  0.78569111  0.94677397  1
  O  O402  1  0.21770589  0.13980769  0.22803225  1
  O  O403  1  0.21978371  0.13544766  0.55428289  1
  O  O404  1  0.21701580  0.14002388  0.89859891  1
  O  O405  1  0.23052942  0.64110287  0.22841761  1
  O  O406  1  0.22200459  0.64174751  0.55596995  1
  O  O407  1  0.22112320  0.64073840  0.89058883  1
  O  O408  1  0.71358600  0.13832907  0.22565575  1
  O  O409  1  0.71923551  0.13483735  0.56133781  1
  O  O410  1  0.71855702  0.12979389  0.87516580  1
  O  O411  1  0.72099983  0.64099731  0.22429696  1
  O  O412  1  0.72132300  0.63393137  0.55651437  1
  O  O413  1  0.73267313  0.63683143  0.89338000  1
  O  O414  1  0.49375221  0.33157065  0.03660728  1
  O  O415  1  0.49053265  0.32711882  0.36089862  1
  O  O416  1  0.49319355  0.34300333  0.69829168  1
  O  O417  1  0.49251041  0.82439135  0.03204869  1
  O  O418  1  0.49241881  0.83612588  0.36853836  1
  O  O419  1  0.49181324  0.82670054  0.69770467  1
  O  O420  1  0.98927047  0.33042984  0.02855084  1
  O  O421  1  0.98989394  0.33132803  0.36096840  1
  O  O422  1  1.00710606  0.34011618  0.69259825  1
  O  O423  1  0.99562509  0.82646799  0.03040301  1
  O  O424  1  0.99274552  0.83727028  0.36040695  1
  O  O425  1  0.99018791  0.83877061  0.70328587  1
  O  O426  1  0.16971972  0.00922560  0.13792826  1
  O  O427  1  0.16137617  0.00467473  0.47001928  1
  O  O428  1  0.16140821  0.01313696  0.80439582  1
  O  O429  1  0.17632626  0.51191955  0.13674921  1
  O  O430  1  0.16655327  0.51077156  0.46902592  1
  O  O431  1  0.16740819  0.50917689  0.80258533  1
  O  O432  1  0.67775029  0.00194692  0.14537139  1
  O  O433  1  0.65888760  0.00775482  0.46869343  1
  O  O434  1  0.64175492  0.00332716  0.79364185  1
  O  O435  1  0.67886654  0.50783927  0.13834515  1
  O  O436  1  0.66810773  0.50315579  0.46745815  1
  O  O437  1  0.66931937  0.50942817  0.80285105  1
  O  O438  1  0.00813640  0.16614157  0.30242299  1
  O  O439  1  -0.00179865  0.16095315  0.63547369  1
  O  O440  1  0.01021361  0.16850863  0.96626665  1
  O  O441  1  0.00859801  0.66565199  0.30074589  1
  O  O442  1  0.01265215  0.67375257  0.63786240  1
  O  O443  1  0.01491345  0.66515536  0.97342731  1
  O  O444  1  0.49360221  0.15514091  0.30737176  1
  O  O445  1  0.50485031  0.18165610  0.64209467  1
  O  O446  1  0.50572090  0.17333974  0.96417929  1
  O  O447  1  0.51143199  0.66870906  0.30759847  1
  O  O448  1  0.51013821  0.66271787  0.63365660  1
  O  O449  1  0.51180661  0.66300575  0.96540940  1
  O  O450  1  0.33856705  0.48782205  0.20111028  1
  O  O451  1  0.33201671  0.49258978  0.52833702  1
  O  O452  1  0.33404255  0.50084689  0.85502445  1
  O  O453  1  0.33600932  0.99149300  0.20439785  1
  O  O454  1  0.32859129  0.98778756  0.53303169  1
  O  O455  1  0.33088523  0.99303224  0.86188532  1
  O  O456  1  0.84390528  0.49976244  0.19905173  1
  O  O457  1  0.83283174  0.49019288  0.52853206  1
  O  O458  1  0.82935456  0.48981465  0.86106358  1
  O  O459  1  0.84202523  0.99320357  0.19559038  1
  O  O460  1  0.82218425  0.99329152  0.53037211  1
  O  O461  1  0.82489223  0.98646662  0.86468622  1
