# generated using pymatgen
data_Na31Fe20(SO4)36
_symmetry_space_group_name_H-M   'P 1'
_cell_length_a   18.06745605
_cell_length_b   18.07186790
_cell_length_c   19.71108359
_cell_angle_alpha   107.58375477
_cell_angle_beta   107.56208447
_cell_angle_gamma   90.70920167
_symmetry_Int_Tables_number   1
_chemical_formula_structural   Na31Fe20(SO4)36
_chemical_formula_sum   'Na62 Fe40 S72 O288'
_cell_volume   5811.17343620
_cell_formula_units_Z   2
loop_
 _symmetry_equiv_pos_site_id
 _symmetry_equiv_pos_as_xyz
  1  'x, y, z'
loop_
 _atom_site_type_symbol
 _atom_site_label
 _atom_site_symmetry_multiplicity
 _atom_site_fract_x
 _atom_site_fract_y
 _atom_site_fract_z
 _atom_site_occupancy
  Na  Na0  1  0.13218137  0.36489838  0.08407576  1
  Na  Na1  1  0.12953352  0.36795539  0.41443538  1
  Na  Na2  1  0.12955623  0.36436683  0.75034584  1
  Na  Na3  1  0.13279403  0.86187967  0.07993773  1
  Na  Na4  1  0.14345289  0.85170647  0.41581175  1
  Na  Na5  1  0.13380816  0.86478304  0.75520890  1
  Na  Na6  1  0.63677524  0.37532650  0.09737122  1
  Na  Na7  1  0.63363031  0.36919170  0.41853375  1
  Na  Na8  1  0.63689599  0.36831819  0.74925887  1
  Na  Na9  1  0.63996514  0.86312969  0.08423152  1
  Na  Na10  1  0.63984021  0.84003500  0.39566592  1
  Na  Na11  1  0.64694416  0.86462372  0.75438678  1
  Na  Na12  1  0.36693666  0.12905626  0.24844373  1
  Na  Na13  1  0.36896241  0.13402133  0.58526181  1
  Na  Na14  1  0.37069112  0.11775957  0.91621997  1
  Na  Na15  1  0.36144769  0.65234669  0.26229133  1
  Na  Na16  1  0.36351202  0.63477121  0.57698145  1
  Na  Na17  1  0.37143964  0.63792077  0.91605965  1
  Na  Na18  1  0.85396598  0.12772763  0.23432941  1
  Na  Na19  1  0.87316810  0.14258845  0.59169274  1
  Na  Na20  1  0.87080868  0.13405249  0.91616889  1
  Na  Na21  1  0.86352155  0.62716169  0.25517277  1
  Na  Na22  1  0.86463789  0.65265961  0.59666159  1
  Na  Na23  1  0.85604553  0.62769230  0.90529845  1
  Na  Na24  1  0.50648488  0.53822707  0.75452435  1
  Na  Na25  1  0.99171490  0.00744905  0.74745717  1
  Na  Na26  1  0.97612579  0.00305917  0.08667546  1
  Na  Na27  1  0.98197192  0.51066783  0.09836741  1
  Na  Na28  1  0.97885226  0.50656876  0.75453893  1
  Na  Na29  1  0.53993260  -0.01641120  0.02774298  1
  Na  Na30  1  0.49358090  0.51441944  0.41514494  1
  Na  Na31  1  0.50333185  -0.01927900  0.77582593  1
  Na  Na32  1  0.96086615  0.51199733  0.38072737  1
  Na  Na33  1  0.00862566  0.46126029  0.91445693  1
  Na  Na34  1  -0.01470529  0.51241131  0.57920574  1
  Na  Na35  1  0.00649558  0.98308212  0.27353362  1
  Na  Na36  1  0.00457531  0.94042826  0.90204792  1
  Na  Na37  1  0.51432302  0.98734776  0.57367758  1
  Na  Na38  1  0.48152018  0.54272509  0.19283825  1
  Na  Na39  1  0.50830112  0.97953864  0.25267906  1
  Na  Na40  1  0.50304827  0.50876774  0.92668151  1
  Na  Na41  1  0.01155557  0.99211261  0.56881711  1
  Na  Na42  1  0.76634579  0.26550691  0.66421181  1
  Na  Na43  1  0.24970892  0.24871476  0.66917775  1
  Na  Na44  1  0.75102699  0.24841684  -0.00053248  1
  Na  Na45  1  0.76328022  0.75829066  0.66467490  1
  Na  Na46  1  0.26397294  0.76352402  -0.00560438  1
  Na  Na47  1  0.24820283  0.24481572  0.00012709  1
  Na  Na48  1  0.73344153  0.73766177  0.00415801  1
  Na  Na49  1  0.25276061  0.25082295  0.33301980  1
  Na  Na50  1  0.75290307  0.25867131  0.32406106  1
  Na  Na51  1  0.25626319  0.75756759  0.65169356  1
  Na  Na52  1  0.24645088  0.24239774  0.83693717  1
  Na  Na53  1  0.72125676  0.71614954  0.83084725  1
  Na  Na54  1  0.75849408  0.25397417  0.82898448  1
  Na  Na55  1  0.72302394  0.73340722  0.18788367  1
  Na  Na56  1  0.25250559  0.25249628  0.50017927  1
  Na  Na57  1  0.26116539  0.76285568  0.82810771  1
  Na  Na58  1  0.75519909  0.25782546  0.49623134  1
  Na  Na59  1  0.25378842  0.25034434  0.16603218  1
  Na  Na60  1  0.75059116  0.25315262  0.16131113  1
  Na  Na61  1  0.24804635  0.75058111  0.17011302  1
  Fe  Fe62  1  0.95578041  0.80721966  0.45048516  1
  Fe  Fe63  1  0.46550416  0.30653876  0.78810280  1
  Fe  Fe64  1  0.47185228  0.79806802  0.11947093  1
  Fe  Fe65  1  0.46249263  0.31058333  0.12156764  1
  Fe  Fe66  1  0.96445326  0.31150988  0.12476028  1
  Fe  Fe67  1  0.96328118  0.31282419  0.45306539  1
  Fe  Fe68  1  0.46720856  0.79934112  0.44799038  1
  Fe  Fe69  1  0.47063215  0.80083493  0.79543228  1
  Fe  Fe70  1  0.46626602  0.31241150  0.45798475  1
  Fe  Fe71  1  0.96340959  0.80596228  0.12077628  1
  Fe  Fe72  1  0.69360148  0.03651230  0.71245727  1
  Fe  Fe73  1  0.18751299  0.53716979  0.04768769  1
  Fe  Fe74  1  0.19783540  0.02858271  0.71312410  1
  Fe  Fe75  1  0.69325804  0.53301743  0.05452402  1
  Fe  Fe76  1  0.69457381  0.03886588  0.38121108  1
  Fe  Fe77  1  0.18495557  0.54239445  0.38144520  1
  Fe  Fe78  1  0.19079278  0.53542875  0.71374328  1
  Fe  Fe79  1  0.19905145  0.03339986  0.38228869  1
  Fe  Fe80  1  0.20145742  0.02789145  0.04247051  1
  Fe  Fe81  1  0.69513214  0.53430222  0.37508990  1
  Fe  Fe82  1  0.03404282  0.69680837  0.22120650  1
  Fe  Fe83  1  0.53366758  0.18886454  0.21123424  1
  Fe  Fe84  1  0.03571703  0.19237536  0.54397266  1
  Fe  Fe85  1  0.02798059  0.69587752  0.54873111  1
  Fe  Fe86  1  0.53839414  0.19027784  0.54605903  1
  Fe  Fe87  1  0.03939473  0.19041101  0.21231750  1
  Fe  Fe88  1  0.02944798  0.69964490  0.88048030  1
  Fe  Fe89  1  0.54045108  0.69113882  0.54705846  1
  Fe  Fe90  1  0.53397343  0.19301826  0.88362853  1
  Fe  Fe91  1  0.03221137  0.19965161  0.87638421  1
  Fe  Fe92  1  0.30165049  0.46911831  0.28717630  1
  Fe  Fe93  1  0.31688901  0.96216711  0.29289752  1
  Fe  Fe94  1  0.30753762  0.46805966  0.95551084  1
  Fe  Fe95  1  0.30583151  0.46749656  0.61964030  1
  Fe  Fe96  1  0.80864579  0.96411967  0.61341284  1
  Fe  Fe97  1  0.80590472  0.46414603  0.95252818  1
  Fe  Fe98  1  0.79875060  0.97100672  0.95056738  1
  Fe  Fe99  1  0.79850146  0.46825294  0.62445437  1
  Fe  Fe100  1  0.31079746  0.95873763  0.61519827  1
  Fe  Fe101  1  0.80743653  0.96955076  0.28631417  1
  S  S102  1  0.36062556  0.14281886  0.08501896  1
  S  S103  1  0.36183454  0.14299602  0.41998210  1
  S  S104  1  0.36200781  0.13615731  0.75008366  1
  S  S105  1  0.35212286  0.64009261  0.08232372  1
  S  S106  1  0.35755017  0.63931242  0.41720092  1
  S  S107  1  0.35703479  0.63815337  0.74909006  1
  S  S108  1  0.86437751  0.14022829  0.08243579  1
  S  S109  1  0.86094633  0.14411378  0.41543754  1
  S  S110  1  0.86186532  0.14025104  0.74650168  1
  S  S111  1  0.85953505  0.64044991  0.08605673  1
  S  S112  1  0.85345295  0.64592986  0.42295303  1
  S  S113  1  0.86180947  0.63822956  0.75038314  1
  S  S114  1  0.14021651  0.36171426  0.25154041  1
  S  S115  1  0.14120478  0.35951374  0.58272087  1
  S  S116  1  0.14387658  0.36076137  0.91813445  1
  S  S117  1  0.14022208  0.86108384  0.25206410  1
  S  S118  1  0.13741901  0.85924541  0.57866758  1
  S  S119  1  0.14374760  0.85461819  0.92079363  1
  S  S120  1  0.63532190  0.35855062  0.25340376  1
  S  S121  1  0.63836884  0.35737319  0.58449296  1
  S  S122  1  0.63981746  0.35666709  0.91860732  1
  S  S123  1  0.64192141  0.86649959  0.24898644  1
  S  S124  1  0.64031186  0.86114313  0.58104446  1
  S  S125  1  0.64124051  0.85969135  0.91244687  1
  S  S126  1  0.07390253  0.16843689  0.04086861  1
  S  S127  1  0.07123073  0.16928716  0.37514099  1
  S  S128  1  0.07306321  0.16522481  0.70565772  1
  S  S129  1  0.06186981  0.66913869  0.04328880  1
  S  S130  1  0.06030433  0.66813471  0.37777416  1
  S  S131  1  0.07121312  0.66819754  0.70972670  1
  S  S132  1  0.56767892  0.17884142  0.04693983  1
  S  S133  1  0.56652792  0.17200295  0.37715650  1
  S  S134  1  0.56758676  0.17115232  0.70909493  1
  S  S135  1  0.56542874  0.66684910  0.04307310  1
  S  S136  1  0.56169104  0.65863396  0.37066073  1
  S  S137  1  0.56411445  0.67357420  0.70599773  1
  S  S138  1  0.32383867  0.43325504  0.12338033  1
  S  S139  1  0.32567643  0.43208739  0.45589823  1
  S  S140  1  0.32896376  0.43231392  0.79138123  1
  S  S141  1  0.33089411  0.92882191  0.12847567  1
  S  S142  1  0.33479641  0.93119374  0.45918656  1
  S  S143  1  0.32867931  0.92547957  0.78643539  1
  S  S144  1  0.83133414  0.43321301  0.12511014  1
  S  S145  1  0.82732179  0.43587796  0.45827357  1
  S  S146  1  0.83606516  0.43053588  0.79356662  1
  S  S147  1  0.83584137  0.93275847  0.12506143  1
  S  S148  1  0.83056724  0.93983034  0.45775531  1
  S  S149  1  0.83162321  0.94135022  0.78827396  1
  S  S150  1  0.42697739  0.33285357  0.29415222  1
  S  S151  1  0.43146655  0.33278488  0.62785583  1
  S  S152  1  0.43016216  0.32977050  0.95726025  1
  S  S153  1  0.43605756  0.83268047  0.29115376  1
  S  S154  1  0.43636105  0.82903378  0.62677794  1
  S  S155  1  0.43584638  0.82684578  0.95577870  1
  S  S156  1  0.93222483  0.32224090  0.28688171  1
  S  S157  1  0.93763981  0.33451268  0.62281419  1
  S  S158  1  0.93606873  0.33070607  0.96188491  1
  S  S159  1  0.92800497  0.82802423  0.28937086  1
  S  S160  1  0.93926660  0.84093357  0.62754405  1
  S  S161  1  0.92488978  0.82991035  0.95779241  1
  S  S162  1  0.17272817  0.06599864  0.20825317  1
  S  S163  1  0.17505777  0.06779243  0.54360078  1
  S  S164  1  0.16766139  0.06922872  0.87299405  1
  S  S165  1  0.16671009  0.57002718  0.20815428  1
  S  S166  1  0.16362707  0.56634753  0.54229412  1
  S  S167  1  0.16641691  0.56780992  0.87607504  1
  S  S168  1  0.66609992  0.06774801  0.20922033  1
  S  S169  1  0.67451183  0.07100248  0.54428437  1
  S  S170  1  0.67045529  0.07226624  0.87242533  1
  S  S171  1  0.67286040  0.56859337  0.21471660  1
  S  S172  1  0.67446937  0.56817753  0.54097210  1
  S  S173  1  0.66728658  0.55430396  0.88072250  1
  O  O174  1  0.36509059  0.22577008  0.08223953  1
  O  O175  1  0.36911715  0.22363666  0.41447579  1
  O  O176  1  0.36981192  0.21624481  0.74309033  1
  O  O177  1  0.36608237  0.71925350  0.07630937  1
  O  O178  1  0.36973809  0.71730394  0.40927815  1
  O  O179  1  0.36697633  0.72107173  0.74772794  1
  O  O180  1  0.87766767  0.21883094  0.07335008  1
  O  O181  1  0.86827736  0.22357847  0.40741159  1
  O  O182  1  0.87061783  0.21356033  0.73169669  1
  O  O183  1  0.86802361  0.71886427  0.07667031  1
  O  O184  1  0.86012000  0.72688953  0.42045167  1
  O  O185  1  0.87354765  0.71025968  0.73387955  1
  O  O186  1  0.28082826  0.13032897  0.09217716  1
  O  O187  1  0.28257593  0.13275781  0.42834188  1
  O  O188  1  0.28301281  0.12663421  0.75841977  1
  O  O189  1  0.26808071  0.63307670  0.08090726  1
  O  O190  1  0.28016057  0.62982967  0.42719913  1
  O  O191  1  0.27797191  0.62996811  0.75835443  1
  O  O192  1  0.78972333  0.13553125  0.09571440  1
  O  O193  1  0.78260460  0.13547573  0.42529572  1
  O  O194  1  0.78235964  0.13062354  0.75464481  1
  O  O195  1  0.78141528  0.63172619  0.09495903  1
  O  O196  1  0.77319106  0.62913092  0.42665565  1
  O  O197  1  0.78766548  0.62956169  0.76428509  1
  O  O198  1  0.13365395  0.28287832  0.26120846  1
  O  O199  1  0.13258401  0.27896495  0.58819405  1
  O  O200  1  0.13416657  0.28071305  0.92463856  1
  O  O201  1  0.12974374  0.78361745  0.26165921  1
  O  O202  1  0.12730335  0.78092554  0.58750515  1
  O  O203  1  0.12629113  0.78008759  0.93645497  1
  O  O204  1  0.61728875  0.28337732  0.26708951  1
  O  O205  1  0.63098850  0.27529774  0.58925401  1
  O  O206  1  0.63033170  0.27643878  0.92430733  1
  O  O207  1  0.63845922  0.79097472  0.26018310  1
  O  O208  1  0.63411238  0.78473142  0.59449468  1
  O  O209  1  0.64221702  0.77834322  0.91143180  1
  O  O210  1  0.21855580  0.37020861  0.24106649  1
  O  O211  1  0.22075888  0.36878428  0.57533227  1
  O  O212  1  0.22590735  0.36899246  0.91544104  1
  O  O213  1  0.21953814  0.87156772  0.24623326  1
  O  O214  1  0.21601250  0.86816312  0.57059852  1
  O  O215  1  0.22398263  0.85643805  0.91884364  1
  O  O216  1  0.71122639  0.35602720  0.24116039  1
  O  O217  1  0.71892290  0.36546065  0.57711795  1
  O  O218  1  0.71883230  0.36433711  0.91018217  1
  O  O219  1  0.71879871  0.88042231  0.23662390  1
  O  O220  1  0.71879069  0.87313862  0.57471982  1
  O  O221  1  0.71333153  0.88061446  0.89532064  1
  O  O222  1  0.41804604  0.13869706  0.15634962  1
  O  O223  1  0.42075795  0.13537256  0.48790367  1
  O  O224  1  0.42118253  0.12809889  0.81783230  1
  O  O225  1  0.40250146  0.62994195  0.15127250  1
  O  O226  1  0.41895745  0.62769940  0.48216103  1
  O  O227  1  0.41670319  0.62116356  0.80937562  1
  O  O228  1  0.92775332  0.12766068  0.14666829  1
  O  O229  1  0.92046321  0.13725748  0.48365271  1
  O  O230  1  0.91972062  0.13732125  0.81840424  1
  O  O231  1  0.92003801  0.63286267  0.15397528  1
  O  O232  1  0.91112328  0.63819749  0.49378907  1
  O  O233  1  0.92586075  0.63091338  0.81837343  1
  O  O234  1  0.37176123  0.08818346  0.01938822  1
  O  O235  1  0.36798556  0.08590047  0.35087843  1
  O  O236  1  0.36956061  0.07837840  0.68161922  1
  O  O237  1  0.36174225  0.58158872  0.01389698  1
  O  O238  1  0.36278528  0.57941697  0.34731852  1
  O  O239  1  0.35771931  0.58505645  0.67445484  1
  O  O240  1  0.86913863  0.08101774  0.01237759  1
  O  O241  1  0.86847863  0.08603006  0.34690454  1
  O  O242  1  0.87427169  0.07465274  0.68419410  1
  O  O243  1  0.86903563  0.58058211  0.01891812  1
  O  O244  1  0.86769937  0.59069296  0.35794886  1
  O  O245  1  0.87092230  0.57121142  0.68536467  1
  O  O246  1  0.08064989  0.36733684  0.18322608  1
  O  O247  1  0.08290789  0.36854457  0.51501700  1
  O  O248  1  0.08795126  0.37074993  0.85168020  1
  O  O249  1  0.08160075  0.86791074  0.18278931  1
  O  O250  1  0.07715141  0.86825338  0.51149338  1
  O  O251  1  0.08764700  0.86121532  0.85212725  1
  O  O252  1  0.57445875  0.37028892  0.18827366  1
  O  O253  1  0.58208042  0.36126760  0.51241153  1
  O  O254  1  0.58052760  0.36482571  0.85053722  1
  O  O255  1  0.58008054  0.87345006  0.18130778  1
  O  O256  1  0.57989451  0.86390454  0.51106240  1
  O  O257  1  0.57443963  0.86863461  0.84623226  1
  O  O258  1  0.13358601  0.42120324  0.31929351  1
  O  O259  1  0.13420475  0.41634973  0.65193814  1
  O  O260  1  0.13397782  0.41834320  0.98716899  1
  O  O261  1  0.12989013  0.92242874  0.31865535  1
  O  O262  1  0.13032336  0.91985956  0.64695968  1
  O  O263  1  0.13366296  0.91898787  0.98667029  1
  O  O264  1  0.63538912  0.42165300  0.32352885  1
  O  O265  1  0.62789082  0.41327206  0.64956178  1
  O  O266  1  0.63125902  0.41379433  0.98687173  1
  O  O267  1  0.63269221  0.92851838  0.31602314  1
  O  O268  1  0.62710035  0.92334012  0.64565857  1
  O  O269  1  0.63506308  0.91259890  0.98256546  1
  O  O270  1  0.03946597  0.19825986  0.10346972  1
  O  O271  1  0.03400375  0.19893290  0.43522841  1
  O  O272  1  0.04070299  0.19115226  0.76757077  1
  O  O273  1  0.02707434  0.69884711  0.10590816  1
  O  O274  1  0.02130270  0.69896366  0.43723640  1
  O  O275  1  0.04376044  0.69224676  0.77462121  1
  O  O276  1  0.52830041  0.21052051  0.10698192  1
  O  O277  1  0.52871048  0.19983744  0.43771104  1
  O  O278  1  0.52992267  0.19850429  0.76935903  1
  O  O279  1  0.53406816  0.70015927  0.10630248  1
  O  O280  1  0.53356054  0.69329710  0.43907159  1
  O  O281  1  0.52097665  0.70675954  0.76165507  1
  O  O282  1  0.29426625  0.47156614  0.06384189  1
  O  O283  1  0.29354332  0.46883765  0.39577449  1
  O  O284  1  0.29957628  0.46745258  0.72935620  1
  O  O285  1  0.30306504  0.96885295  0.07220686  1
  O  O286  1  0.30599584  0.97115508  0.39954163  1
  O  O287  1  0.30246716  0.95933724  0.72156129  1
  O  O288  1  0.79802410  0.46567483  0.06008740  1
  O  O289  1  0.79541982  0.47233981  0.39919556  1
  O  O290  1  0.79903819  0.45902414  0.73006778  1
  O  O291  1  0.82005547  0.96816668  0.06483288  1
  O  O292  1  0.80143528  0.97580290  0.39576723  1
  O  O293  1  0.79220617  0.97236976  0.72414099  1
  O  O294  1  0.45889783  0.30491410  0.23087061  1
  O  O295  1  0.46708249  0.30454958  0.56634984  1
  O  O296  1  0.46761998  0.29732390  0.89665794  1
  O  O297  1  0.47009660  0.81095931  0.22997000  1
  O  O298  1  0.47207764  0.79826897  0.56559007  1
  O  O299  1  0.47185023  0.79452805  0.89408470  1
  O  O300  1  0.97298384  0.28954061  0.22850415  1
  O  O301  1  0.96998764  0.30218810  0.55719051  1
  O  O302  1  0.97288420  0.30427182  0.90248584  1
  O  O303  1  0.96979405  0.80088800  0.23110742  1
  O  O304  1  0.96879499  0.80281307  0.56163148  1
  O  O305  1  0.96399642  0.80209407  0.90029533  1
  O  O306  1  0.20195519  0.03243551  0.27124996  1
  O  O307  1  0.20588291  0.03144477  0.60452885  1
  O  O308  1  0.18959621  0.03459556  0.93361020  1
  O  O309  1  0.19621631  0.53491143  0.27048738  1
  O  O310  1  0.19411445  0.52734447  0.60173995  1
  O  O311  1  0.19492614  0.52715021  0.93433476  1
  O  O312  1  0.70543856  0.04093379  0.27637012  1
  O  O313  1  0.70692253  0.03337178  0.60417528  1
  O  O314  1  0.70288277  0.04170762  0.93485100  1
  O  O315  1  0.69396851  0.52874063  0.27441994  1
  O  O316  1  0.69712204  0.52518164  0.59522084  1
  O  O317  1  0.70531181  0.52477117  0.94768821  1
  O  O318  1  0.09257516  0.08731653  0.03551733  1
  O  O319  1  0.09329892  0.08931797  0.37254541  1
  O  O320  1  0.08930102  0.08117360  0.69300099  1
  O  O321  1  0.07621646  0.58537362  0.03560556  1
  O  O322  1  0.07476726  0.58542357  0.37413432  1
  O  O323  1  0.08469838  0.58256078  0.69362586  1
  O  O324  1  0.59134236  0.10300341  0.04809820  1
  O  O325  1  0.58568794  0.09082312  0.37075367  1
  O  O326  1  0.58495460  0.08873299  0.70054975  1
  O  O327  1  0.59232440  0.58832807  0.04539966  1
  O  O328  1  0.58930780  0.57990822  0.37386133  1
  O  O329  1  0.58451893  0.59771453  0.71160435  1
  O  O330  1  0.40492757  0.41509754  0.12716667  1
  O  O331  1  0.40623445  0.41395314  0.45831994  1
  O  O332  1  0.41077098  0.41369813  0.79841483  1
  O  O333  1  0.40961744  0.90396993  0.13067780  1
  O  O334  1  0.41458397  0.90913645  0.46197043  1
  O  O335  1  0.40681466  0.89551180  0.78624094  1
  O  O336  1  0.91167202  0.41282165  0.12282215  1
  O  O337  1  0.90967887  0.41900296  0.45916998  1
  O  O338  1  0.91881581  0.42175567  0.79972326  1
  O  O339  1  0.92137326  0.91751341  0.14481460  1
  O  O340  1  0.91076565  0.91761357  0.46007962  1
  O  O341  1  0.91454495  0.93898427  0.79346021  1
  O  O342  1  0.40674977  0.41438722  0.30200003  1
  O  O343  1  0.41208485  0.41411206  0.63555705  1
  O  O344  1  0.41037059  0.40924052  0.95596179  1
  O  O345  1  0.42438315  0.91816642  0.30880500  1
  O  O346  1  0.42136875  0.91232339  0.63168441  1
  O  O347  1  0.42118791  0.90720030  0.96194179  1
  O  O348  1  0.91349633  0.39985787  0.28679439  1
  O  O349  1  0.91670194  0.41525528  0.62509755  1
  O  O350  1  0.91862066  0.41386190  0.96957372  1
  O  O351  1  0.91131270  0.90988663  0.29400214  1
  O  O352  1  0.91871159  0.92089388  0.62185768  1
  O  O353  1  0.90714062  0.91223048  0.96077116  1
  O  O354  1  0.08930470  0.08140726  0.19993899  1
  O  O355  1  0.09381490  0.08578701  0.53912161  1
  O  O356  1  0.08608595  0.09148932  0.86054078  1
  O  O357  1  0.08614296  0.59075186  0.20486906  1
  O  O358  1  0.08184270  0.58386778  0.53819794  1
  O  O359  1  0.08523980  0.58610942  0.87237652  1
  O  O360  1  0.58602297  0.08643578  0.21261793  1
  O  O361  1  0.59325132  0.08668027  0.54392535  1
  O  O362  1  0.58843937  0.09058606  0.86801736  1
  O  O363  1  0.59602100  0.59436107  0.20635136  1
  O  O364  1  0.59131980  0.58486108  0.52965774  1
  O  O365  1  0.58626543  0.56619978  0.87913072  1
  O  O366  1  0.14485794  0.22214808  0.05710758  1
  O  O367  1  0.14111671  0.22373933  0.39090427  1
  O  O368  1  0.14547511  0.21638138  0.72095600  1
  O  O369  1  0.13484786  0.71915807  0.06159728  1
  O  O370  1  0.13222434  0.71662545  0.39354551  1
  O  O371  1  0.14250951  0.71733216  0.72053913  1
  O  O372  1  0.63499590  0.23613616  0.06159078  1
  O  O373  1  0.63760742  0.22524268  0.39509194  1
  O  O374  1  0.63884338  0.22372228  0.72690095  1
  O  O375  1  0.63486149  0.72067508  0.05423473  1
  O  O376  1  0.62545527  0.71063232  0.37483514  1
  O  O377  1  0.63378983  0.72850302  0.72222952  1
  O  O378  1  0.27152370  0.36172626  0.10614993  1
  O  O379  1  0.27366173  0.36036571  0.44039034  1
  O  O380  1  0.27630995  0.36137320  0.77572180  1
  O  O381  1  0.27444043  0.86061077  0.11410406  1
  O  O382  1  0.27925192  0.86544885  0.44542229  1
  O  O383  1  0.27068987  0.85795887  0.76916279  1
  O  O384  1  0.78080426  0.36031283  0.10933714  1
  O  O385  1  0.77816277  0.36202556  0.44232631  1
  O  O386  1  0.79058577  0.35624166  0.78350843  1
  O  O387  1  0.78398664  0.86090337  0.10496314  1
  O  O388  1  0.77662688  0.87385471  0.44688275  1
  O  O389  1  0.78960061  0.86473687  0.77316643  1
  O  O390  1  0.35708740  0.27927686  0.28082751  1
  O  O391  1  0.36055993  0.27883030  0.61107182  1
  O  O392  1  0.36005578  0.27628807  0.94191521  1
  O  O393  1  0.36098626  0.78510671  0.27201513  1
  O  O394  1  0.36469321  0.77949094  0.61228276  1
  O  O395  1  0.36399563  0.77327370  0.93760160  1
  O  O396  1  0.86233279  0.26704006  0.26941090  1
  O  O397  1  0.86587730  0.28171911  0.60589628  1
  O  O398  1  0.86355514  0.27951592  0.94482612  1
  O  O399  1  0.85731392  0.77533434  0.26928096  1
  O  O400  1  0.86965625  0.79320038  0.62052018  1
  O  O401  1  0.85433835  0.77829883  0.94361502  1
  O  O402  1  0.22251434  0.13955901  0.22536911  1
  O  O403  1  0.22685766  0.13991686  0.56016697  1
  O  O404  1  0.22377408  0.13844342  0.88944186  1
  O  O405  1  0.21983556  0.63762419  0.21905817  1
  O  O406  1  0.21591936  0.63686987  0.55902090  1
  O  O407  1  0.22023604  0.63782192  0.89346611  1
  O  O408  1  0.71405341  0.13980129  0.21844370  1
  O  O409  1  0.72504570  0.14352932  0.56081644  1
  O  O410  1  0.72030597  0.14275358  0.88095823  1
  O  O411  1  0.73373723  0.63284471  0.23328649  1
  O  O412  1  0.72667716  0.64050665  0.56360210  1
  O  O413  1  0.71575351  0.62886016  0.89684211  1
  O  O414  1  0.48840059  0.33600091  0.03100674  1
  O  O415  1  0.48896035  0.33536819  0.36538145  1
  O  O416  1  0.49088040  0.33266168  0.69953198  1
  O  O417  1  0.49410743  0.82356033  0.02748650  1
  O  O418  1  0.49337411  0.82202671  0.35951534  1
  O  O419  1  0.49547364  0.83358030  0.70092757  1
  O  O420  1  0.99413001  0.33211443  0.03510056  1
  O  O421  1  0.99018677  0.32485171  0.36133286  1
  O  O422  1  0.99816177  0.33758539  0.69191411  1
  O  O423  1  0.98383728  0.83774017  0.03376507  1
  O  O424  1  0.98603940  0.82886354  0.36193008  1
  O  O425  1  1.00348082  0.85401795  0.69737903  1
  O  O426  1  0.17404644  0.00752031  0.13733956  1
  O  O427  1  0.17469779  0.00893493  0.47177742  1
  O  O428  1  0.16772722  0.00828035  0.80117096  1
  O  O429  1  0.15960253  0.50695469  0.13561552  1
  O  O430  1  0.16151299  0.50796655  0.46904314  1
  O  O431  1  0.16291305  0.50936493  0.80190275  1
  O  O432  1  0.65835421  0.00437126  0.14001258  1
  O  O433  1  0.67100083  0.01376295  0.47101814  1
  O  O434  1  0.66207760  0.00979985  0.79849392  1
  O  O435  1  0.67318829  0.50623427  0.14327698  1
  O  O436  1  0.67619202  0.51311695  0.46582463  1
  O  O437  1  0.66892035  0.49594459  0.81172756  1
  O  O438  1  0.01230434  0.16292134  0.30134772  1
  O  O439  1  0.01320600  0.16727514  0.63426798  1
  O  O440  1  0.01436988  0.16850545  0.96930089  1
  O  O441  1  0.00191762  0.66563236  0.30437075  1
  O  O442  1  0.00767879  0.67092159  0.64048752  1
  O  O443  1  0.00349596  0.67085873  0.97234163  1
  O  O444  1  0.50686625  0.17165447  0.30576297  1
  O  O445  1  0.50870751  0.17073310  0.63671981  1
  O  O446  1  0.50726649  0.17354940  0.97325762  1
  O  O447  1  0.49236285  0.64267904  0.30389867  1
  O  O448  1  0.50776564  0.66662644  0.62973018  1
  O  O449  1  0.50357779  0.65235338  0.97079424  1
  O  O450  1  0.32671715  0.49171171  0.19625297  1
  O  O451  1  0.32817940  0.49044554  0.52881549  1
  O  O452  1  0.33053677  0.49275956  0.86299389  1
  O  O453  1  0.33983026  0.98756486  0.20519252  1
  O  O454  1  0.34301256  0.99355688  0.53305325  1
  O  O455  1  0.33649363  0.98705488  0.85563108  1
  O  O456  1  0.83759369  0.49280108  0.19518081  1
  O  O457  1  0.83437415  0.49172587  0.53381572  1
  O  O458  1  0.83492074  0.48952426  0.86667057  1
  O  O459  1  0.82982241  0.99230318  0.19485608  1
  O  O460  1  0.83924548  1.00355127  0.53035839  1
  O  O461  1  0.82626864  0.99770530  0.85971609  1
