# generated using pymatgen
data_Na31Fe20(SO4)36
_symmetry_space_group_name_H-M   'P 1'
_cell_length_a   18.08496379
_cell_length_b   18.08867395
_cell_length_c   19.73403853
_cell_angle_alpha   107.60422951
_cell_angle_beta   107.60620530
_cell_angle_gamma   90.72423084
_symmetry_Int_Tables_number   1
_chemical_formula_structural   Na31Fe20(SO4)36
_chemical_formula_sum   'Na62 Fe40 S72 O288'
_cell_volume   5826.44829750
_cell_formula_units_Z   2
loop_
 _symmetry_equiv_pos_site_id
 _symmetry_equiv_pos_as_xyz
  1  'x, y, z'
loop_
 _atom_site_type_symbol
 _atom_site_label
 _atom_site_symmetry_multiplicity
 _atom_site_fract_x
 _atom_site_fract_y
 _atom_site_fract_z
 _atom_site_occupancy
  Na  Na0  1  0.13293442  0.36429775  0.08199958  1
  Na  Na1  1  0.13486986  0.36944275  0.41944825  1
  Na  Na2  1  0.13708583  0.36796555  0.75142323  1
  Na  Na3  1  0.13793084  0.86690482  0.07940644  1
  Na  Na4  1  0.13900587  0.86452266  0.42276850  1
  Na  Na5  1  0.13018587  0.85463064  0.73435356  1
  Na  Na6  1  0.63902006  0.36820633  0.09023176  1
  Na  Na7  1  0.61669999  0.32049041  0.37641575  1
  Na  Na8  1  0.63477531  0.37550613  0.75620760  1
  Na  Na9  1  0.62860069  0.85986467  0.08357751  1
  Na  Na10  1  0.62940654  0.87018389  0.41640322  1
  Na  Na11  1  0.63345568  0.86743308  0.75044616  1
  Na  Na12  1  0.38456787  0.14458336  0.26692569  1
  Na  Na13  1  0.35678229  0.13552211  0.57425240  1
  Na  Na14  1  0.36395896  0.12869155  0.91851209  1
  Na  Na15  1  0.36997458  0.63048312  0.25102226  1
  Na  Na16  1  0.35890135  0.62698165  0.57610249  1
  Na  Na17  1  0.36920712  0.64342951  0.92291586  1
  Na  Na18  1  0.84799756  0.13354732  0.24331127  1
  Na  Na19  1  0.87174901  0.12602742  0.57894622  1
  Na  Na20  1  0.86259106  0.13745480  0.91781934  1
  Na  Na21  1  0.86523309  0.63522061  0.24726905  1
  Na  Na22  1  0.86698413  0.63740162  0.58135855  1
  Na  Na23  1  0.86158088  0.63565971  0.91805356  1
  Na  Na24  1  1.01111444  0.56170015  0.44377851  1
  Na  Na25  1  0.48552333  0.00652806  0.74944848  1
  Na  Na26  1  0.98545659  0.01242125  0.07989540  1
  Na  Na27  1  0.99060455  0.51193685  0.75214835  1
  Na  Na28  1  0.51553540  0.45590964  0.46642520  1
  Na  Na29  1  0.47341695  0.02566401  0.08851291  1
  Na  Na30  1  0.48923837  0.51132108  0.09249791  1
  Na  Na31  1  0.99486433  -0.01273403  0.44544598  1
  Na  Na32  1  0.96088264  0.50406950  0.08041656  1
  Na  Na33  1  0.53897391  0.98820186  0.94217766  1
  Na  Na34  1  0.51920193  0.50225529  0.89406995  1
  Na  Na35  1  0.51453063  0.96887931  0.24301393  1
  Na  Na36  1  0.03437125  0.48666893  0.26319271  1
  Na  Na37  1  0.02496259  0.99318973  0.89643072  1
  Na  Na38  1  -0.01595048  0.50604813  0.92511044  1
  Na  Na39  1  0.00929625  0.49800256  0.58428381  1
  Na  Na40  1  -0.00299004  0.99988063  0.26226112  1
  Na  Na41  1  0.50582139  1.01135423  0.55501826  1
  Na  Na42  1  0.74206409  0.74215727  0.01677355  1
  Na  Na43  1  0.74840227  0.75219556  0.66624024  1
  Na  Na44  1  0.26014474  0.26207921  0.65288120  1
  Na  Na45  1  0.24633550  0.24304878  0.00292160  1
  Na  Na46  1  0.27894683  0.78152338  -0.00567422  1
  Na  Na47  1  0.24106654  0.73627258  0.34037024  1
  Na  Na48  1  0.76027888  0.75835279  0.31912766  1
  Na  Na49  1  0.75646740  0.26206240  0.66048223  1
  Na  Na50  1  0.25972299  0.25231028  0.34663616  1
  Na  Na51  1  0.73683530  0.24012062  0.01047382  1
  Na  Na52  1  0.25101157  0.24848629  0.17321853  1
  Na  Na53  1  0.26614312  0.76168968  0.15877460  1
  Na  Na54  1  0.75767298  0.26235259  0.83091009  1
  Na  Na55  1  0.75677984  0.75728106  0.49351612  1
  Na  Na56  1  0.74064797  0.74123316  0.83862873  1
  Na  Na57  1  0.71847981  0.22627972  0.18070777  1
  Na  Na58  1  0.24998190  0.24842138  0.83189641  1
  Na  Na59  1  0.26228977  0.76824938  0.81707557  1
  Na  Na60  1  0.76308395  0.25548469  0.48743593  1
  Na  Na61  1  0.22628848  0.73055573  0.52052880  1
  Fe  Fe62  1  0.96747207  0.80954863  0.12033900  1
  Fe  Fe63  1  0.46445864  0.80737972  0.45052234  1
  Fe  Fe64  1  0.46368573  0.30741279  0.78494915  1
  Fe  Fe65  1  0.96789265  0.80219750  0.46099658  1
  Fe  Fe66  1  0.96328367  0.80532212  0.78538909  1
  Fe  Fe67  1  0.96499149  0.30774447  0.78428991  1
  Fe  Fe68  1  0.46237392  0.80835378  0.78242019  1
  Fe  Fe69  1  0.46533731  0.30988554  0.13057954  1
  Fe  Fe70  1  0.96568628  0.30551098  0.11724807  1
  Fe  Fe71  1  0.96691228  0.30556601  0.44986839  1
  Fe  Fe72  1  0.19302922  0.03314169  0.71261633  1
  Fe  Fe73  1  0.19960266  0.03559798  0.04515611  1
  Fe  Fe74  1  0.69135291  0.03787346  0.71394056  1
  Fe  Fe75  1  0.69316270  0.03375876  0.37941002  1
  Fe  Fe76  1  0.68726091  0.53209087  0.70630254  1
  Fe  Fe77  1  0.70232366  0.53007260  0.04352913  1
  Fe  Fe78  1  0.19195984  0.53928987  0.71693050  1
  Fe  Fe79  1  0.19558569  0.03550007  0.38149831  1
  Fe  Fe80  1  0.19253306  0.53445950  0.04967299  1
  Fe  Fe81  1  0.68618843  0.53502617  0.37391292  1
  Fe  Fe82  1  0.52965068  0.20013625  0.53986360  1
  Fe  Fe83  1  0.03600282  0.69320764  0.21435286  1
  Fe  Fe84  1  0.53370225  0.68970330  0.54039018  1
  Fe  Fe85  1  0.53292491  0.69157590  0.87661025  1
  Fe  Fe86  1  0.53403647  0.69737266  0.20829973  1
  Fe  Fe87  1  0.03460879  0.19246385  0.21637267  1
  Fe  Fe88  1  0.03389750  0.18978205  0.87506920  1
  Fe  Fe89  1  0.53134294  0.19498907  0.88290250  1
  Fe  Fe90  1  0.03413191  0.69565496  0.88487728  1
  Fe  Fe91  1  0.03884756  0.19228424  0.54715742  1
  Fe  Fe92  1  0.79795558  0.97050312  0.95578722  1
  Fe  Fe93  1  0.80841018  0.96710655  0.62353665  1
  Fe  Fe94  1  0.29676170  0.47142742  0.29779975  1
  Fe  Fe95  1  0.30454983  0.46519494  0.95435347  1
  Fe  Fe96  1  0.31293913  0.96391952  0.28719666  1
  Fe  Fe97  1  0.80586794  0.96112394  0.28012227  1
  Fe  Fe98  1  0.80840758  0.46275237  0.28562118  1
  Fe  Fe99  1  0.30532008  0.96230635  0.61543369  1
  Fe  Fe100  1  0.31031259  0.46406545  0.61899207  1
  Fe  Fe101  1  0.80613600  0.46313169  0.61421944  1
  S  S102  1  0.35809084  0.14869176  0.08780889  1
  S  S103  1  0.36287801  0.13588653  0.41940177  1
  S  S104  1  0.35954800  0.14019914  0.74747505  1
  S  S105  1  0.35778199  0.63881933  0.08355228  1
  S  S106  1  0.35541662  0.64565575  0.41718395  1
  S  S107  1  0.35855541  0.64118112  0.75054531  1
  S  S108  1  0.85861907  0.14398801  0.08372175  1
  S  S109  1  0.86709573  0.13455564  0.41674785  1
  S  S110  1  0.85658320  0.14295029  0.74980121  1
  S  S111  1  0.86530440  0.64108748  0.07946014  1
  S  S112  1  0.85500257  0.63832286  0.41528582  1
  S  S113  1  0.85848248  0.63829183  0.75057243  1
  S  S114  1  0.13832210  0.35438961  0.24799039  1
  S  S115  1  0.13941772  0.36111789  0.58777790  1
  S  S116  1  0.13903262  0.36014954  0.91501242  1
  S  S117  1  0.14249002  0.86002218  0.24949562  1
  S  S118  1  0.13859337  0.86203337  0.58102299  1
  S  S119  1  0.13786646  0.86005551  0.91752207  1
  S  S120  1  0.64012348  0.36201807  0.24745068  1
  S  S121  1  0.64380524  0.35723556  0.57894274  1
  S  S122  1  0.63914580  0.35774996  0.91689452  1
  S  S123  1  0.64569342  0.85620306  0.25205409  1
  S  S124  1  0.63844520  0.86305392  0.58250634  1
  S  S125  1  0.64165099  0.85527834  0.91324022  1
  S  S126  1  0.06549588  0.16530790  0.03819233  1
  S  S127  1  0.06935255  0.16874219  0.37368501  1
  S  S128  1  0.06957220  0.17379614  0.71027994  1
  S  S129  1  0.06927674  0.67103577  0.04530594  1
  S  S130  1  0.06286914  0.67276437  0.37412011  1
  S  S131  1  0.06062198  0.66642439  0.71399703  1
  S  S132  1  0.55710487  0.17467679  0.04464588  1
  S  S133  1  0.57075831  0.15802895  0.37729507  1
  S  S134  1  0.56767555  0.17311124  0.70602836  1
  S  S135  1  0.56830072  0.65586004  0.03533745  1
  S  S136  1  0.57009756  0.67560473  0.37573571  1
  S  S137  1  0.56877632  0.67322299  0.70548068  1
  S  S138  1  0.32355705  0.42948207  0.12560921  1
  S  S139  1  0.32225750  0.43299912  0.45584838  1
  S  S140  1  0.32891642  0.43303858  0.79292034  1
  S  S141  1  0.33203236  0.94199876  0.12716150  1
  S  S142  1  0.32814654  0.92969055  0.45522634  1
  S  S143  1  0.33322235  0.93751940  0.78777173  1
  S  S144  1  0.83451660  0.43307804  0.12586727  1
  S  S145  1  0.83430722  0.43047292  0.45770043  1
  S  S146  1  0.83534322  0.43766787  0.78900266  1
  S  S147  1  0.84231258  0.93500140  0.12598010  1
  S  S148  1  0.82774942  0.92832437  0.45755548  1
  S  S149  1  0.82753578  0.93415388  0.79313286  1
  S  S150  1  0.42594896  0.34073773  0.29405878  1
  S  S151  1  0.43472285  0.32689811  0.62729221  1
  S  S152  1  0.42756931  0.33027804  0.96256222  1
  S  S153  1  0.43382961  0.82691711  0.28915748  1
  S  S154  1  0.43212390  0.83062258  0.62062314  1
  S  S155  1  0.44488913  0.83104144  0.95434773  1
  S  S156  1  0.93157647  0.32743241  0.28770086  1
  S  S157  1  0.93598040  0.33091008  0.62351898  1
  S  S158  1  0.93899818  0.32955587  0.95479396  1
  S  S159  1  0.93771000  0.83246532  0.29519389  1
  S  S160  1  0.92541422  0.83109884  0.62682134  1
  S  S161  1  0.92876048  0.83194059  0.95709229  1
  S  S162  1  0.16887198  0.06770184  0.20840259  1
  S  S163  1  0.17060224  0.06813256  0.54278307  1
  S  S164  1  0.16772533  0.06912793  0.87211771  1
  S  S165  1  0.16294112  0.56181179  0.20552299  1
  S  S166  1  0.16679289  0.55990850  0.55135426  1
  S  S167  1  0.16904615  0.57031402  0.88064241  1
  S  S168  1  0.66736380  0.04839040  0.20658508  1
  S  S169  1  0.67553524  0.07468845  0.54736223  1
  S  S170  1  0.66503594  0.06775265  0.87374829  1
  S  S171  1  0.67323693  0.56968499  0.20719129  1
  S  S172  1  0.67349141  0.56825558  0.54132510  1
  S  S173  1  0.67099873  0.56895138  0.87306056  1
  O  O174  1  0.36779357  0.23235223  0.08467410  1
  O  O175  1  0.37173572  0.21194197  0.41031183  1
  O  O176  1  0.36815814  0.22130819  0.74385526  1
  O  O177  1  0.36244527  0.71486592  0.07291760  1
  O  O178  1  0.37215148  0.72126681  0.40414227  1
  O  O179  1  0.36756102  0.72106315  0.74507560  1
  O  O180  1  0.87248496  0.22068061  0.07097976  1
  O  O181  1  0.87653919  0.21451096  0.41195623  1
  O  O182  1  0.86597420  0.22337892  0.74405191  1
  O  O183  1  0.87497944  0.72222692  0.07521828  1
  O  O184  1  0.86281841  0.71851033  0.40881940  1
  O  O185  1  0.86651700  0.71736362  0.74273646  1
  O  O186  1  0.27308709  0.14054648  0.08371874  1
  O  O187  1  0.28621883  0.12311231  0.43148682  1
  O  O188  1  0.28125985  0.13034525  0.75613386  1
  O  O189  1  0.28152788  0.62632513  0.09723447  1
  O  O190  1  0.28173660  0.64693429  0.43305771  1
  O  O191  1  0.28053560  0.63280975  0.76201219  1
  O  O192  1  0.78258408  0.14034789  0.09434200  1
  O  O193  1  0.79199277  0.12577175  0.43163875  1
  O  O194  1  0.77757830  0.13473302  0.75872428  1
  O  O195  1  0.78324989  0.62880145  0.07773575  1
  O  O196  1  0.77471034  0.62807246  0.42128394  1
  O  O197  1  0.77927810  0.62828618  0.75743525  1
  O  O198  1  0.13281965  0.27151636  0.24839995  1
  O  O199  1  0.12760626  0.28326719  0.59832150  1
  O  O200  1  0.13231192  0.28102744  0.92295023  1
  O  O201  1  0.13373482  0.78222272  0.25994366  1
  O  O202  1  0.13037951  0.78477091  0.58763168  1
  O  O203  1  0.12285795  0.78612554  0.93415299  1
  O  O204  1  0.63328241  0.28448970  0.25427133  1
  O  O205  1  0.62930297  0.27705196  0.58558044  1
  O  O206  1  0.62553878  0.27820164  0.92430059  1
  O  O207  1  0.63327128  0.77660312  0.25868648  1
  O  O208  1  0.62875226  0.78291002  0.58744695  1
  O  O209  1  0.63679455  0.77183905  0.91246870  1
  O  O210  1  0.21843616  0.36940449  0.24391215  1
  O  O211  1  0.21976200  0.36739504  0.58471948  1
  O  O212  1  0.21762044  0.37048531  0.90581837  1
  O  O213  1  0.22126082  0.86952834  0.24168888  1
  O  O214  1  0.21448999  0.87282069  0.56531497  1
  O  O215  1  0.21509514  0.86151062  0.90896817  1
  O  O216  1  0.71520283  0.37444026  0.23176582  1
  O  O217  1  0.72787649  0.36154937  0.58022204  1
  O  O218  1  0.71082636  0.36267173  0.89889957  1
  O  O219  1  0.72805484  0.86239510  0.25045238  1
  O  O220  1  0.71657131  0.87205770  0.57279571  1
  O  O221  1  0.72023114  0.86915743  0.90458598  1
  O  O222  1  0.40892992  0.14097628  0.15757760  1
  O  O223  1  0.42451522  0.12884230  0.48917883  1
  O  O224  1  0.42017567  0.13059510  0.81400995  1
  O  O225  1  0.42053214  0.63029054  0.14990725  1
  O  O226  1  0.41940339  0.63356408  0.48008568  1
  O  O227  1  0.41803594  0.63111209  0.81752538  1
  O  O228  1  0.92086305  0.13456791  0.15007909  1
  O  O229  1  0.93050081  0.12300360  0.48163191  1
  O  O230  1  0.91494615  0.13380032  0.81703686  1
  O  O231  1  0.91878345  0.63532643  0.15204670  1
  O  O232  1  0.91303151  0.62924359  0.48147566  1
  O  O233  1  0.91758775  0.63072098  0.81926986  1
  O  O234  1  0.37149006  0.09435455  0.02188685  1
  O  O235  1  0.37038069  0.07402574  0.35311805  1
  O  O236  1  0.36792154  0.08365627  0.67842027  1
  O  O237  1  0.36424093  0.57658572  0.01565312  1
  O  O238  1  0.35203549  0.58405008  0.34497739  1
  O  O239  1  0.36438451  0.58344984  0.68161334  1
  O  O240  1  0.86465201  0.08253464  0.01513319  1
  O  O241  1  0.87124207  0.07684524  0.34662597  1
  O  O242  1  0.86238381  0.08589905  0.68042487  1
  O  O243  1  0.88389230  0.58489583  0.01710981  1
  O  O244  1  0.86333706  0.58090464  0.34595432  1
  O  O245  1  0.86884132  0.57930853  0.68355900  1
  O  O246  1  0.08124644  0.36189343  0.17746202  1
  O  O247  1  0.08167569  0.36662362  0.51785777  1
  O  O248  1  0.07987100  0.36805830  0.84711990  1
  O  O249  1  0.08388014  0.86500913  0.17960853  1
  O  O250  1  0.07610123  0.87438467  0.51621378  1
  O  O251  1  0.07735364  0.86629673  0.84843158  1
  O  O252  1  0.57607932  0.37200199  0.18164569  1
  O  O253  1  0.59266479  0.36641830  0.51031341  1
  O  O254  1  0.57233383  0.37108333  0.85578037  1
  O  O255  1  0.58973296  0.86683424  0.18635016  1
  O  O256  1  0.57800842  0.87556201  0.51745791  1
  O  O257  1  0.58196529  0.86647888  0.84624537  1
  O  O258  1  0.12336192  0.40765020  0.31292910  1
  O  O259  1  0.12696706  0.42178428  0.65331738  1
  O  O260  1  0.13088600  0.41875380  0.98281596  1
  O  O261  1  0.13213308  0.92091489  0.31549834  1
  O  O262  1  0.13651488  0.92232305  0.65127911  1
  O  O263  1  0.12950000  0.92516402  0.98242553  1
  O  O264  1  0.63707354  0.42144445  0.31748592  1
  O  O265  1  0.63624754  0.41467338  0.64829348  1
  O  O266  1  0.64064168  0.41549188  0.98959162  1
  O  O267  1  0.63816647  0.91425081  0.32197270  1
  O  O268  1  0.63362069  0.92047644  0.65277829  1
  O  O269  1  0.63386659  0.90775877  0.98234983  1
  O  O270  1  0.02905289  0.19373978  0.09886296  1
  O  O271  1  0.03822568  0.20258212  0.43794015  1
  O  O272  1  0.02794625  0.20262396  0.76822460  1
  O  O273  1  0.03420731  0.70115178  0.10716214  1
  O  O274  1  0.02483227  0.70317338  0.43275543  1
  O  O275  1  0.02930730  0.70046783  0.77989945  1
  O  O276  1  0.51996523  0.21400620  0.10232878  1
  O  O277  1  0.53694999  0.17992399  0.44113575  1
  O  O278  1  0.52924672  0.20137182  0.76545834  1
  O  O279  1  0.53192005  0.67794495  0.09490408  1
  O  O280  1  0.53171089  0.70565328  0.43609855  1
  O  O281  1  0.52916843  0.70148417  0.76384737  1
  O  O282  1  0.29502009  0.46594029  0.06391306  1
  O  O283  1  0.29418759  0.47528717  0.39901943  1
  O  O284  1  0.29994408  0.46924484  0.73239502  1
  O  O285  1  0.29675525  0.97730796  0.06756485  1
  O  O286  1  0.29703224  0.96366983  0.39296618  1
  O  O287  1  0.30128461  0.96992186  0.72201829  1
  O  O288  1  0.80975662  0.47205830  0.06791781  1
  O  O289  1  0.80529489  0.46465442  0.39564669  1
  O  O290  1  0.80193444  0.46764229  0.72362214  1
  O  O291  1  0.81672000  0.97049651  0.06615660  1
  O  O292  1  0.80293191  0.96731686  0.39873399  1
  O  O293  1  0.79945234  0.97220819  0.73286351  1
  O  O294  1  0.45727137  0.32300524  0.22893462  1
  O  O295  1  0.47353333  0.29546885  0.56876937  1
  O  O296  1  0.46420581  0.30022724  0.90215990  1
  O  O297  1  0.47220167  0.79726143  0.23160560  1
  O  O298  1  0.46937806  0.80118420  0.56028361  1
  O  O299  1  0.47608788  0.79348380  0.88773420  1
  O  O300  1  0.97107809  0.29806089  0.22823980  1
  O  O301  1  0.96880359  0.29889117  0.56071667  1
  O  O302  1  0.97417758  0.29350653  0.89295873  1
  O  O303  1  0.97423018  0.80414399  0.23388035  1
  O  O304  1  0.95779778  0.80622280  0.56489421  1
  O  O305  1  0.96204586  0.80106733  0.89394434  1
  O  O306  1  0.19908697  0.03197394  0.26965534  1
  O  O307  1  0.20222109  0.03321022  0.60412615  1
  O  O308  1  0.18906907  0.03624941  0.93392704  1
  O  O309  1  0.19091970  0.52424264  0.26434916  1
  O  O310  1  0.20743376  0.52414595  0.61322900  1
  O  O311  1  0.19830759  0.53221860  0.94048539  1
  O  O312  1  0.70927598  0.02442298  0.27780992  1
  O  O313  1  0.70041531  0.03442554  0.60648478  1
  O  O314  1  0.69200505  0.02951501  0.93170205  1
  O  O315  1  0.70022840  0.53297127  0.26827537  1
  O  O316  1  0.70279503  0.52874160  0.60074179  1
  O  O317  1  0.68783769  0.52911954  0.92992609  1
  O  O318  1  0.08377059  0.08344172  0.03282378  1
  O  O319  1  0.08882447  0.08789180  0.37261396  1
  O  O320  1  0.09267392  0.09601874  0.70879852  1
  O  O321  1  0.08394897  0.58808153  0.03761451  1
  O  O322  1  0.07678200  0.59168553  0.36923785  1
  O  O323  1  0.08106064  0.58526107  0.71516988  1
  O  O324  1  0.56862288  0.09533771  0.04708272  1
  O  O325  1  0.58388511  0.07329604  0.36177778  1
  O  O326  1  0.58162615  0.08955885  0.69806729  1
  O  O327  1  0.58982742  0.57353473  0.02591792  1
  O  O328  1  0.59004611  0.59657709  0.37503558  1
  O  O329  1  0.59147013  0.59444298  0.70279986  1
  O  O330  1  0.40463752  0.41039774  0.12762999  1
  O  O331  1  0.39945261  0.40969286  0.45913122  1
  O  O332  1  0.41056747  0.41433067  0.80005184  1
  O  O333  1  0.41256053  0.92919673  0.12950807  1
  O  O334  1  0.41037231  0.91400354  0.46188964  1
  O  O335  1  0.41374385  0.91554311  0.78659044  1
  O  O336  1  0.91808233  0.41540524  0.13333067  1
  O  O337  1  0.91747690  0.41390842  0.46546259  1
  O  O338  1  0.91666376  0.41624512  0.78881994  1
  O  O339  1  0.92769331  0.92049777  0.13610445  1
  O  O340  1  0.90719813  0.90465201  0.46131426  1
  O  O341  1  0.90916294  0.91547813  0.80102493  1
  O  O342  1  0.39466537  0.41822369  0.30235088  1
  O  O343  1  0.40930445  0.40328942  0.62459105  1
  O  O344  1  0.41182336  0.41280183  0.96865583  1
  O  O345  1  0.41354594  0.90680018  0.28954900  1
  O  O346  1  0.41527058  0.91319706  0.62561290  1
  O  O347  1  0.44051972  0.91407876  0.96044159  1
  O  O348  1  0.91719513  0.40990089  0.29408017  1
  O  O349  1  0.91987661  0.41352765  0.62861299  1
  O  O350  1  0.93057447  0.41145188  0.95957241  1
  O  O351  1  0.91802836  0.91431186  0.29919919  1
  O  O352  1  0.90635647  0.91284670  0.63964591  1
  O  O353  1  0.91013268  0.91328268  0.96267505  1
  O  O354  1  0.08518424  0.08239563  0.20254757  1
  O  O355  1  0.08876414  0.08502145  0.53817294  1
  O  O356  1  0.08433614  0.08806593  0.86019883  1
  O  O357  1  0.07982352  0.57855832  0.19960865  1
  O  O358  1  0.09210295  0.58197712  0.56392122  1
  O  O359  1  0.08572339  0.58489529  0.87471451  1
  O  O360  1  0.58509502  0.05352621  0.20281523  1
  O  O361  1  0.59690901  0.10000423  0.54655655  1
  O  O362  1  0.58246720  0.08594323  0.86754259  1
  O  O363  1  0.59218911  0.59002446  0.20092764  1
  O  O364  1  0.59223602  0.58590951  0.53718122  1
  O  O365  1  0.58907893  0.59021709  0.85883437  1
  O  O366  1  0.13579663  0.21868613  0.05439881  1
  O  O367  1  0.13666468  0.21921013  0.38029146  1
  O  O368  1  0.13818576  0.23064454  0.72892541  1
  O  O369  1  0.14045480  0.72157837  0.06052238  1
  O  O370  1  0.13568001  0.72383470  0.39184628  1
  O  O371  1  0.13047111  0.71728924  0.72646912  1
  O  O372  1  0.63162513  0.22257903  0.05978888  1
  O  O373  1  0.64652419  0.20630963  0.40199441  1
  O  O374  1  0.64013146  0.22399128  0.72457484  1
  O  O375  1  0.63587050  0.71128153  0.04991822  1
  O  O376  1  0.64002338  0.73029184  0.39379492  1
  O  O377  1  0.63922017  0.72859351  0.72358189  1
  O  O378  1  0.27037745  0.35844086  0.10762612  1
  O  O379  1  0.26451425  0.36548977  0.43732230  1
  O  O380  1  0.27668309  0.36098702  0.77540953  1
  O  O381  1  0.28247536  0.86746314  0.11095397  1
  O  O382  1  0.27764051  0.85860992  0.44080305  1
  O  O383  1  0.28056951  0.86846680  0.77404045  1
  O  O384  1  0.78300446  0.36128253  0.10766912  1
  O  O385  1  0.78384117  0.36056137  0.44536447  1
  O  O386  1  0.78454702  0.36693517  0.77737215  1
  O  O387  1  0.79378758  0.86287600  0.11116519  1
  O  O388  1  0.77180399  0.85928069  0.43967364  1
  O  O389  1  0.77468768  0.86244454  0.77377772  1
  O  O390  1  0.36229100  0.27912675  0.27779479  1
  O  O391  1  0.36857833  0.27091748  0.61613213  1
  O  O392  1  0.35517898  0.27937596  0.94525082  1
  O  O393  1  0.36263415  0.77452866  0.27427439  1
  O  O394  1  0.36168202  0.77939386  0.60536321  1
  O  O395  1  0.36613934  0.78684579  0.93238497  1
  O  O396  1  0.85960470  0.27646910  0.26898831  1
  O  O397  1  0.86457677  0.28035221  0.60955660  1
  O  O398  1  0.86468666  0.28223435  0.93828618  1
  O  O399  1  0.86888372  0.77930392  0.28037272  1
  O  O400  1  0.85413477  0.77760301  0.61100706  1
  O  O401  1  0.85908089  0.77926324  0.94375845  1
  O  O402  1  0.21861622  0.14036026  0.22521959  1
  O  O403  1  0.22045778  0.13945818  0.55711871  1
  O  O404  1  0.22005431  0.14097338  0.88861284  1
  O  O405  1  0.21301986  0.63422610  0.22172069  1
  O  O406  1  0.21934730  0.62787512  0.56157378  1
  O  O407  1  0.21921626  0.64260971  0.89836976  1
  O  O408  1  0.71058555  0.12399293  0.21994965  1
  O  O409  1  0.73287877  0.14205771  0.56504847  1
  O  O410  1  0.71705169  0.13946041  0.89039041  1
  O  O411  1  0.72797340  0.63844491  0.22346775  1
  O  O412  1  0.72590356  0.64039859  0.56152758  1
  O  O413  1  0.72708883  0.63985884  0.89665746  1
  O  O414  1  0.48522072  0.33265959  0.03639612  1
  O  O415  1  0.49146652  0.34697315  0.36114558  1
  O  O416  1  0.49531357  0.33781736  0.70264106  1
  O  O417  1  0.49847804  0.81949834  0.02074817  1
  O  O418  1  0.49088961  0.83418599  0.36488827  1
  O  O419  1  0.49221544  0.83464746  0.69368949  1
  O  O420  1  0.99555502  0.32691264  0.02724785  1
  O  O421  1  0.99004273  0.32648687  0.35979189  1
  O  O422  1  0.99591809  0.33354027  0.69550461  1
  O  O423  1  0.99125292  0.83431647  0.02806979  1
  O  O424  1  0.99754585  0.83969515  0.36898141  1
  O  O425  1  0.98625716  0.82799454  0.69705945  1
  O  O426  1  0.16653256  0.00977480  0.13545656  1
  O  O427  1  0.16669376  0.00774468  0.46998413  1
  O  O428  1  0.16992022  0.00901447  0.80220061  1
  O  O429  1  0.15982850  0.50414669  0.13130739  1
  O  O430  1  0.14995491  0.50017052  0.47773909  1
  O  O431  1  0.16813320  0.51167833  0.80812236  1
  O  O432  1  0.67591478  -0.01272037  0.14232919  1
  O  O433  1  0.67021940  0.01515577  0.47463153  1
  O  O434  1  0.66060117  0.01080786  0.79844037  1
  O  O435  1  0.67127772  0.50914799  0.13529742  1
  O  O436  1  0.67209402  0.51099536  0.46913209  1
  O  O437  1  0.67533297  0.51226173  0.80147422  1
  O  O438  1  0.00416213  0.15877275  0.30165913  1
  O  O439  1  0.01100903  0.17015353  0.63680964  1
  O  O440  1  0.00652275  0.16161515  0.96478739  1
  O  O441  1  0.00630775  0.67280165  0.29991489  1
  O  O442  1  -0.00299232  0.65785369  0.64519817  1
  O  O443  1  0.00823595  0.66933819  0.97331437  1
  O  O444  1  0.51531811  0.17065154  0.31248411  1
  O  O445  1  0.51075018  0.17233937  0.63219113  1
  O  O446  1  0.50247609  0.17025220  0.96827001  1
  O  O447  1  0.51218254  0.67178717  0.30251469  1
  O  O448  1  0.51112348  0.67003895  0.63183490  1
  O  O449  1  0.50757985  0.65030284  0.96122886  1
  O  O450  1  0.32469902  0.48808247  0.19728688  1
  O  O451  1  0.32418765  0.49160134  0.52946237  1
  O  O452  1  0.33014194  0.49160571  0.86540674  1
  O  O453  1  0.33185430  0.99742728  0.20156749  1
  O  O454  1  0.33009151  0.99084101  0.52707390  1
  O  O455  1  0.34108158  1.00003865  0.85699015  1
  O  O456  1  0.83700490  0.49036261  0.19991809  1
  O  O457  1  0.83796870  0.49253634  0.53036796  1
  O  O458  1  0.84524131  0.49963311  0.85958718  1
  O  O459  1  0.84553837  0.99393459  0.19968535  1
  O  O460  1  0.83181209  0.98698756  0.53094789  1
  O  O461  1  0.82639107  0.99273885  0.86464540  1
