# generated using pymatgen
data_Na31Fe20(SO4)36
_symmetry_space_group_name_H-M   'P 1'
_cell_length_a   18.08219366
_cell_length_b   18.07552457
_cell_length_c   19.71144815
_cell_angle_alpha   107.56606169
_cell_angle_beta   107.55585193
_cell_angle_gamma   90.78479800
_symmetry_Int_Tables_number   1
_chemical_formula_structural   Na31Fe20(SO4)36
_chemical_formula_sum   'Na62 Fe40 S72 O288'
_cell_volume   5817.08641983
_cell_formula_units_Z   2
loop_
 _symmetry_equiv_pos_site_id
 _symmetry_equiv_pos_as_xyz
  1  'x, y, z'
loop_
 _atom_site_type_symbol
 _atom_site_label
 _atom_site_symmetry_multiplicity
 _atom_site_fract_x
 _atom_site_fract_y
 _atom_site_fract_z
 _atom_site_occupancy
  Na  Na0  1  0.13466544  0.36020168  0.08199012  1
  Na  Na1  1  0.13166196  0.36711368  0.41495157  1
  Na  Na2  1  0.13145011  0.36032805  0.74346077  1
  Na  Na3  1  0.13836121  0.87484458  0.08678407  1
  Na  Na4  1  0.14460610  0.86422160  0.42595075  1
  Na  Na5  1  0.13337614  0.86245384  0.74262732  1
  Na  Na6  1  0.65269659  0.36828275  0.10547364  1
  Na  Na7  1  0.62327050  0.35724017  0.40950660  1
  Na  Na8  1  0.62096567  0.34267218  0.72854665  1
  Na  Na9  1  0.63577674  0.86565042  0.08458835  1
  Na  Na10  1  0.62865906  0.86473697  0.41170546  1
  Na  Na11  1  0.64897717  0.87915835  0.76210491  1
  Na  Na12  1  0.36893969  0.13878526  0.26020867  1
  Na  Na13  1  0.37796984  0.17778516  0.61365913  1
  Na  Na14  1  0.36226650  0.13688738  0.91694000  1
  Na  Na15  1  0.37176003  0.63881820  0.25491022  1
  Na  Na16  1  0.34145722  0.64596864  0.57533616  1
  Na  Na17  1  0.36820667  0.62754961  0.91107707  1
  Na  Na18  1  0.86408161  0.13332208  0.24320324  1
  Na  Na19  1  0.86629536  0.13728104  0.58767098  1
  Na  Na20  1  0.86206441  0.12288687  0.91160292  1
  Na  Na21  1  0.86185406  0.62767855  0.24799731  1
  Na  Na22  1  0.86744304  0.63241351  0.58309793  1
  Na  Na23  1  0.86999350  0.63037999  0.91769290  1
  Na  Na24  1  0.48679623  0.06322621  0.44493695  1
  Na  Na25  1  0.99054901  0.50197000  0.76367115  1
  Na  Na26  1  0.48135916  0.01375472  0.08413841  1
  Na  Na27  1  0.49327721  0.53527196  0.07922675  1
  Na  Na28  1  0.99100407  0.50385879  0.08491672  1
  Na  Na29  1  0.99711428  0.01016160  0.40761477  1
  Na  Na30  1  0.97656158  0.01433016  0.08251020  1
  Na  Na31  1  0.49728403  0.01720343  0.74386699  1
  Na  Na32  1  0.97128445  0.51154242  0.38557637  1
  Na  Na33  1  0.54775479  0.99263505  0.59302518  1
  Na  Na34  1  0.50491519  0.44350538  0.54952483  1
  Na  Na35  1  0.51612494  0.46004518  0.81014182  1
  Na  Na36  1  0.01066082  0.48981618  0.57873589  1
  Na  Na37  1  0.50693104  0.97052772  0.26021409  1
  Na  Na38  1  0.51358698  0.49886580  0.25643716  1
  Na  Na39  1  0.00011779  0.99078385  0.59856158  1
  Na  Na40  1  0.02699716  0.98882714  0.92264968  1
  Na  Na41  1  0.52197669  0.99106895  0.91275981  1
  Na  Na42  1  0.25431680  0.25382371  0.33656491  1
  Na  Na43  1  0.75327958  0.75778891  -0.00222835  1
  Na  Na44  1  0.74330668  0.24324014  0.01571269  1
  Na  Na45  1  0.73451566  0.73691090  0.33662703  1
  Na  Na46  1  0.75404472  0.75664830  0.66857612  1
  Na  Na47  1  0.72899449  0.22277198  0.67370787  1
  Na  Na48  1  0.24470304  0.23974363  0.00230379  1
  Na  Na49  1  0.76024082  0.26959681  0.31316504  1
  Na  Na50  1  0.24365478  0.74167844  0.34422907  1
  Na  Na51  1  0.25872566  0.75355824  -0.00405536  1
  Na  Na52  1  0.23968884  0.23282208  0.16891524  1
  Na  Na53  1  0.25682908  0.75890523  0.82289783  1
  Na  Na54  1  0.25849386  0.25706296  0.50737791  1
  Na  Na55  1  0.25154638  0.75135967  0.16646879  1
  Na  Na56  1  0.26771550  0.26157619  0.81494991  1
  Na  Na57  1  0.73850252  0.73920059  0.17138380  1
  Na  Na58  1  0.74210133  0.23126879  0.84230506  1
  Na  Na59  1  0.73578797  0.24016899  0.50434796  1
  Na  Na60  1  0.74119491  0.74035862  0.50115176  1
  Na  Na61  1  0.76148526  0.76463565  0.83588425  1
  Fe  Fe62  1  0.96587397  0.81130181  0.12117855  1
  Fe  Fe63  1  0.46338534  0.80595028  0.78087333  1
  Fe  Fe64  1  0.46973812  0.79678799  0.12263888  1
  Fe  Fe65  1  0.96831509  0.80654528  0.78865586  1
  Fe  Fe66  1  0.96584683  0.30608783  0.78700605  1
  Fe  Fe67  1  0.96491618  0.30639705  0.44707627  1
  Fe  Fe68  1  0.46517836  0.80755154  0.45500770  1
  Fe  Fe69  1  0.46245191  0.30883907  0.12020310  1
  Fe  Fe70  1  0.96252649  0.31120281  0.12042968  1
  Fe  Fe71  1  0.96432337  0.80791171  0.45195118  1
  Fe  Fe72  1  0.70129621  0.53072948  0.37738492  1
  Fe  Fe73  1  0.18517498  0.53826021  0.37994488  1
  Fe  Fe74  1  0.69409219  0.03541503  0.37814599  1
  Fe  Fe75  1  0.69410390  0.53240210  0.71223884  1
  Fe  Fe76  1  0.19187844  0.53679316  0.71517194  1
  Fe  Fe77  1  0.69964856  0.03252857  0.04617407  1
  Fe  Fe78  1  0.19299162  0.03404602  0.71497551  1
  Fe  Fe79  1  0.18842184  0.53233301  0.04504812  1
  Fe  Fe80  1  0.69490390  0.53100179  0.04794389  1
  Fe  Fe81  1  0.18955379  0.03458634  0.38129335  1
  Fe  Fe82  1  0.52826157  0.20433693  0.87703972  1
  Fe  Fe83  1  0.03609639  0.18667025  0.87948048  1
  Fe  Fe84  1  0.03428492  0.69579085  0.21637112  1
  Fe  Fe85  1  0.53416934  0.68816326  0.87377375  1
  Fe  Fe86  1  0.03738891  0.69322698  0.54856394  1
  Fe  Fe87  1  0.03811804  0.19418935  0.54965495  1
  Fe  Fe88  1  0.03738848  0.69267154  0.88578450  1
  Fe  Fe89  1  0.03680340  0.19251692  0.21361562  1
  Fe  Fe90  1  0.53472215  0.68491870  0.54261326  1
  Fe  Fe91  1  0.53156806  0.19495182  0.21501844  1
  Fe  Fe92  1  0.30878934  0.96267992  0.61998329  1
  Fe  Fe93  1  0.80798662  0.45998888  0.95077327  1
  Fe  Fe94  1  0.30652421  0.46228504  0.95041006  1
  Fe  Fe95  1  0.30637834  0.97098824  0.29073836  1
  Fe  Fe96  1  0.80721274  0.96569646  0.62522136  1
  Fe  Fe97  1  0.81115941  0.46457880  0.61915477  1
  Fe  Fe98  1  0.30896314  0.46776878  0.62118491  1
  Fe  Fe99  1  0.30138966  0.96741377  0.95536236  1
  Fe  Fe100  1  0.80635175  0.96615446  0.28378998  1
  Fe  Fe101  1  0.31075059  0.46499805  0.29057762  1
  S  S102  1  0.35992013  0.13918333  0.08047655  1
  S  S103  1  0.34960130  0.14510723  0.42191911  1
  S  S104  1  0.35813850  0.13794139  0.75255997  1
  S  S105  1  0.35495699  0.63737125  0.08195403  1
  S  S106  1  0.35750687  0.64131290  0.41734608  1
  S  S107  1  0.35684890  0.64296019  0.74833491  1
  S  S108  1  0.86183049  0.14078821  0.08341630  1
  S  S109  1  0.86152150  0.14097088  0.41694357  1
  S  S110  1  0.86346335  0.14003833  0.74822519  1
  S  S111  1  0.86074816  0.64082008  0.08181838  1
  S  S112  1  0.86170451  0.64494438  0.41814075  1
  S  S113  1  0.86245845  0.63809428  0.75202134  1
  S  S114  1  0.13985128  0.36165799  0.24752663  1
  S  S115  1  0.13732012  0.36333963  0.58235317  1
  S  S116  1  0.14082188  0.35588672  0.91651527  1
  S  S117  1  0.14192901  0.86028900  0.25284375  1
  S  S118  1  0.13741916  0.86190009  0.58239046  1
  S  S119  1  0.14298456  0.85326203  0.91598327  1
  S  S120  1  0.63577858  0.36116831  0.25318105  1
  S  S121  1  0.65146636  0.35772065  0.58490662  1
  S  S122  1  0.64558834  0.35836200  0.91879340  1
  S  S123  1  0.64218904  0.85857644  0.24806477  1
  S  S124  1  0.64220371  0.85367119  0.58199222  1
  S  S125  1  0.63619576  0.85840509  0.91693955  1
  S  S126  1  0.06091739  0.16779496  0.04274743  1
  S  S127  1  0.06716396  0.17156979  0.37786721  1
  S  S128  1  0.06970391  0.17003524  0.70965422  1
  S  S129  1  0.06740255  0.67130695  0.04655447  1
  S  S130  1  0.06428339  0.67173398  0.37471148  1
  S  S131  1  0.06485443  0.66767556  0.70989767  1
  S  S132  1  0.56615769  0.17263288  0.04224613  1
  S  S133  1  0.56605317  0.16040009  0.37069022  1
  S  S134  1  0.56111447  0.17116119  0.71317012  1
  S  S135  1  0.56815935  0.66860598  0.03776969  1
  S  S136  1  0.56717273  0.66664859  0.37594322  1
  S  S137  1  0.57469352  0.67552252  0.71092506  1
  S  S138  1  0.32718211  0.43365961  0.12357578  1
  S  S139  1  0.31917764  0.43865889  0.45284216  1
  S  S140  1  0.31968471  0.43378413  0.78875530  1
  S  S141  1  0.33785355  0.93014725  0.12801341  1
  S  S142  1  0.33154583  0.93299225  0.46003504  1
  S  S143  1  0.32883431  0.93083899  0.79278521  1
  S  S144  1  0.83540571  0.43772431  0.12253981  1
  S  S145  1  0.83492293  0.43437915  0.45807292  1
  S  S146  1  0.83123916  0.42909940  0.78943363  1
  S  S147  1  0.83053663  0.93257123  0.12417948  1
  S  S148  1  0.83148931  0.93358309  0.45727432  1
  S  S149  1  0.83895032  0.92878863  0.79482887  1
  S  S150  1  0.42795198  0.32854575  0.28733479  1
  S  S151  1  0.43735487  0.35555533  0.63084076  1
  S  S152  1  0.43363255  0.33275856  0.96113396  1
  S  S153  1  0.43053786  0.83335127  0.29409045  1
  S  S154  1  0.43695200  0.83360931  0.62711643  1
  S  S155  1  0.43093414  0.82713752  0.95819787  1
  S  S156  1  0.93623806  0.32650871  0.28769710  1
  S  S157  1  0.93513293  0.33015021  0.62345979  1
  S  S158  1  0.93411921  0.32655669  0.95634987  1
  S  S159  1  0.93084707  0.82943658  0.29023550  1
  S  S160  1  0.93149095  0.82771066  0.62240310  1
  S  S161  1  0.94220325  0.83257493  0.96101980  1
  S  S162  1  0.17034211  0.06594835  0.20929393  1
  S  S163  1  0.16823707  0.06963951  0.54305450  1
  S  S164  1  0.16861497  0.06235265  0.87496907  1
  S  S165  1  0.16827206  0.56910547  0.20827105  1
  S  S166  1  0.15656697  0.56556738  0.53725621  1
  S  S167  1  0.16784563  0.56469332  0.87593798  1
  S  S168  1  0.67068004  0.07025726  0.20778467  1
  S  S169  1  0.67448327  0.06053411  0.54030793  1
  S  S170  1  0.65786859  0.07160468  0.87733152  1
  S  S171  1  0.66670630  0.56344103  0.20836538  1
  S  S172  1  0.67785539  0.56853598  0.54421758  1
  S  S173  1  0.67644619  0.56790776  0.87779486  1
  O  O174  1  0.37223561  0.21565874  0.06740368  1
  O  O175  1  0.35981755  0.22132507  0.41288416  1
  O  O176  1  0.35867578  0.21236470  0.73894543  1
  O  O177  1  0.36692799  0.71805660  0.07742863  1
  O  O178  1  0.37083418  0.71937725  0.40775591  1
  O  O179  1  0.36789121  0.72480639  0.74823956  1
  O  O180  1  0.86954142  0.22263352  0.08045568  1
  O  O181  1  0.86942611  0.21879716  0.40680786  1
  O  O182  1  0.87623314  0.21723631  0.73515083  1
  O  O183  1  0.87007233  0.71911312  0.07210018  1
  O  O184  1  0.86748686  0.72649356  0.41322023  1
  O  O185  1  0.87157313  0.71677084  0.74359513  1
  O  O186  1  0.28326706  0.13287044  0.08899216  1
  O  O187  1  0.26523479  0.13178967  0.41870914  1
  O  O188  1  0.28296423  0.12216519  0.76669723  1
  O  O189  1  0.27211524  0.62977606  0.08273088  1
  O  O190  1  0.27720221  0.63517134  0.42233029  1
  O  O191  1  0.28041974  0.63374404  0.76217388  1
  O  O192  1  0.78354241  0.12995833  0.09217198  1
  O  O193  1  0.78325988  0.13089866  0.42562785  1
  O  O194  1  0.78505309  0.13403411  0.75412502  1
  O  O195  1  0.78139234  0.63208536  0.08907307  1
  O  O196  1  0.78195329  0.63415403  0.42476744  1
  O  O197  1  0.78377398  0.62987673  0.76042738  1
  O  O198  1  0.13525120  0.28133141  0.25506879  1
  O  O199  1  0.12882342  0.28493068  0.59039260  1
  O  O200  1  0.13074106  0.27768902  0.92629802  1
  O  O201  1  0.13320435  0.78021557  0.25967682  1
  O  O202  1  0.12804229  0.78533050  0.59369687  1
  O  O203  1  0.13604184  0.77175810  0.92083920  1
  O  O204  1  0.62043616  0.28424600  0.26499859  1
  O  O205  1  0.64544831  0.28214747  0.59701855  1
  O  O206  1  0.62967613  0.27708008  0.92366878  1
  O  O207  1  0.63655960  0.78191240  0.25694611  1
  O  O208  1  0.63305420  0.77163529  0.58423156  1
  O  O209  1  0.62483414  0.77893516  0.92492670  1
  O  O210  1  0.21841147  0.37322973  0.23882227  1
  O  O211  1  0.21501009  0.37510582  0.57373757  1
  O  O212  1  0.22004911  0.36438927  0.90900299  1
  O  O213  1  0.22089705  0.87020929  0.24475687  1
  O  O214  1  0.21514549  0.87374469  0.57446454  1
  O  O215  1  0.22475441  0.86429963  0.91397075  1
  O  O216  1  0.71151668  0.36360891  0.24215378  1
  O  O217  1  0.73304283  0.37028923  0.58016626  1
  O  O218  1  0.72786810  0.36034122  0.91605065  1
  O  O219  1  0.71985487  0.87256939  0.23757839  1
  O  O220  1  0.72076110  0.86242086  0.57254557  1
  O  O221  1  0.71178957  0.86652123  0.90621916  1
  O  O222  1  0.42167354  0.13013695  0.14736209  1
  O  O223  1  0.40008598  0.13647367  0.49204754  1
  O  O224  1  0.42094337  0.13717832  0.82387088  1
  O  O225  1  0.40954131  0.62569795  0.14823189  1
  O  O226  1  0.41420944  0.63523845  0.48728511  1
  O  O227  1  0.41919505  0.62850338  0.81112408  1
  O  O228  1  0.92193725  0.13136395  0.15156388  1
  O  O229  1  0.92145891  0.13424425  0.48544102  1
  O  O230  1  0.92176828  0.13594077  0.81858673  1
  O  O231  1  0.91954570  0.63450902  0.15089213  1
  O  O232  1  0.91962130  0.63824693  0.48785689  1
  O  O233  1  0.92171869  0.62902512  0.81971164  1
  O  O234  1  0.36908599  0.07738621  0.01327133  1
  O  O235  1  0.36419235  0.08350276  0.35597250  1
  O  O236  1  0.37038143  0.07404889  0.68956407  1
  O  O237  1  0.36410809  0.58047205  0.01240300  1
  O  O238  1  0.36581550  0.58127999  0.34983315  1
  O  O239  1  0.35570251  0.58941695  0.67480988  1
  O  O240  1  0.87122502  0.08484794  0.01640432  1
  O  O241  1  0.87068965  0.08013031  0.35004736  1
  O  O242  1  0.87407538  0.07863597  0.68253213  1
  O  O243  1  0.87078124  0.58040103  0.01552427  1
  O  O244  1  0.87284304  0.58934871  0.35211941  1
  O  O245  1  0.87177094  0.57886141  0.68455749  1
  O  O246  1  0.08066844  0.36762211  0.17899900  1
  O  O247  1  0.07697227  0.37182346  0.51466457  1
  O  O248  1  0.08245094  0.36278582  0.84771802  1
  O  O249  1  0.08286284  0.86751729  0.18512908  1
  O  O250  1  0.07739977  0.86810010  0.51325858  1
  O  O251  1  0.08834982  0.85747872  0.84355369  1
  O  O252  1  0.57377897  0.37200924  0.18755800  1
  O  O253  1  0.59602178  0.36369462  0.51592259  1
  O  O254  1  0.59302524  0.37038591  0.85200156  1
  O  O255  1  0.58105292  0.86591419  0.18015181  1
  O  O256  1  0.58260039  0.86420802  0.51425981  1
  O  O257  1  0.57312613  0.86898338  0.85168069  1
  O  O258  1  0.12984141  0.41859554  0.31506639  1
  O  O259  1  0.12691089  0.42264867  0.64966139  1
  O  O260  1  0.13357676  0.41564742  0.98456737  1
  O  O261  1  0.13473960  0.91732961  0.32221929  1
  O  O262  1  0.12581204  0.92356539  0.64802692  1
  O  O263  1  0.12815484  0.90963326  0.97950328  1
  O  O264  1  0.63025522  0.42274772  0.32185728  1
  O  O265  1  0.64145644  0.42027633  0.65153810  1
  O  O266  1  0.63990197  0.41452008  0.98924347  1
  O  O267  1  0.63337827  0.91998052  0.31500753  1
  O  O268  1  0.63462718  0.90973436  0.64980971  1
  O  O269  1  0.62940965  0.91712957  0.98650301  1
  O  O270  1  0.02792424  0.20811618  0.10479416  1
  O  O271  1  0.02974365  0.20306943  0.43870673  1
  O  O272  1  0.03515919  0.19939940  0.77185808  1
  O  O273  1  0.03105746  0.70387066  0.10743901  1
  O  O274  1  0.02914561  0.70323327  0.43674896  1
  O  O275  1  0.02826498  0.69669466  0.77069524  1
  O  O276  1  0.53155026  0.20509561  0.10428939  1
  O  O277  1  0.53243903  0.17557975  0.43075767  1
  O  O278  1  0.52777003  0.20198725  0.77750902  1
  O  O279  1  0.52817417  0.69463140  0.09511629  1
  O  O280  1  0.53248243  0.69623572  0.43959763  1
  O  O281  1  0.53301544  0.70326674  0.76885139  1
  O  O282  1  0.29718683  0.46970059  0.06181154  1
  O  O283  1  0.28335026  0.47558615  0.39133914  1
  O  O284  1  0.29051220  0.47379663  0.72866103  1
  O  O285  1  0.31737212  0.96557436  0.06776932  1
  O  O286  1  0.30122780  0.97071830  0.39992118  1
  O  O287  1  0.29687419  0.96253903  0.72863029  1
  O  O288  1  0.80190866  0.47236156  0.05842542  1
  O  O289  1  0.80607621  0.47307018  0.40083919  1
  O  O290  1  0.80374848  0.47011327  0.73170013  1
  O  O291  1  0.79896488  0.96796107  0.06474643  1
  O  O292  1  0.80184626  0.97011183  0.39607963  1
  O  O293  1  0.81658966  0.94952773  0.72482846  1
  O  O294  1  0.45728114  0.29299026  0.22038505  1
  O  O295  1  0.46934410  0.33197760  0.56895887  1
  O  O296  1  0.47236456  0.30216368  0.90283598  1
  O  O297  1  0.46722843  0.81288741  0.23435927  1
  O  O298  1  0.47169559  0.80273564  0.56485362  1
  O  O299  1  0.46598017  0.79832558  0.89652877  1
  O  O300  1  0.97530103  0.29306162  0.22810431  1
  O  O301  1  0.97124589  0.30149310  0.56220705  1
  O  O302  1  0.97064115  0.29804451  0.89523003  1
  O  O303  1  0.96764738  0.80104289  0.22907711  1
  O  O304  1  0.96960716  0.79759289  0.56257083  1
  O  O305  1  0.97560060  0.79352971  0.89819849  1
  O  O306  1  0.19797914  0.03047176  0.27262065  1
  O  O307  1  0.20060153  0.03618810  0.60576511  1
  O  O308  1  0.19837878  0.02346551  0.93237285  1
  O  O309  1  0.19641006  0.53507123  0.27048573  1
  O  O310  1  0.18779233  0.53316447  0.60077441  1
  O  O311  1  0.19615176  0.52507328  0.93441826  1
  O  O312  1  0.70048026  0.03236326  0.26816959  1
  O  O313  1  0.70803166  0.02197339  0.59754799  1
  O  O314  1  0.67113376  0.03898020  0.94016333  1
  O  O315  1  0.70125453  0.53344644  0.27161156  1
  O  O316  1  0.70904739  0.53277363  0.60599850  1
  O  O317  1  0.70374188  0.52900319  0.93737003  1
  O  O318  1  0.06802791  0.08665422  0.04111031  1
  O  O319  1  0.08423211  0.09089827  0.37727767  1
  O  O320  1  0.08708148  0.08810677  0.70259349  1
  O  O321  1  0.08589863  0.59108286  0.04574751  1
  O  O322  1  0.08005806  0.58991576  0.37155311  1
  O  O323  1  0.08039471  0.58465127  0.70388853  1
  O  O324  1  0.57464784  0.08836599  0.03496469  1
  O  O325  1  0.58678896  0.07639224  0.35253689  1
  O  O326  1  0.56875236  0.08728459  0.70242023  1
  O  O327  1  0.59042883  0.58862021  0.03555068  1
  O  O328  1  0.59715244  0.59023858  0.37742603  1
  O  O329  1  0.59686283  0.59675826  0.70941721  1
  O  O330  1  0.40980482  0.41884513  0.13076182  1
  O  O331  1  0.39741195  0.42448572  0.45140595  1
  O  O332  1  0.39683358  0.41201773  0.79275480  1
  O  O333  1  0.42021638  0.90887413  0.13867980  1
  O  O334  1  0.41444917  0.91788368  0.46736936  1
  O  O335  1  0.41171017  0.91536150  0.79814719  1
  O  O336  1  0.91487117  0.41621273  0.11843617  1
  O  O337  1  0.91704664  0.41557331  0.46099324  1
  O  O338  1  0.91289745  0.41182378  0.79231656  1
  O  O339  1  0.91159157  0.91400935  0.12565654  1
  O  O340  1  0.91430131  0.91746626  0.46213004  1
  O  O341  1  0.92284159  0.90889636  0.81034937  1
  O  O342  1  0.40922229  0.40898522  0.28535217  1
  O  O343  1  0.41759798  0.44014261  0.64054816  1
  O  O344  1  0.41489557  0.41398324  0.96439762  1
  O  O345  1  0.41327848  0.91697590  0.30810426  1
  O  O346  1  0.41939850  0.91583048  0.63129383  1
  O  O347  1  0.41301345  0.90934509  0.96466917  1
  O  O348  1  0.91714732  0.40394803  0.28708437  1
  O  O349  1  0.92174563  0.41410161  0.63207702  1
  O  O350  1  0.91416634  0.40754401  0.96112422  1
  O  O351  1  0.91197922  0.91080705  0.29685722  1
  O  O352  1  0.91231265  0.90753421  0.62268767  1
  O  O353  1  0.93667709  0.91441907  0.96610049  1
  O  O354  1  0.09034246  0.09008570  0.20662723  1
  O  O355  1  0.08460447  0.08411806  0.53811450  1
  O  O356  1  0.08770990  0.08104007  0.87385174  1
  O  O357  1  0.08709121  0.58981017  0.20197096  1
  O  O358  1  0.07211814  0.57893099  0.53111334  1
  O  O359  1  0.08778245  0.58636926  0.87426157  1
  O  O360  1  0.58789436  0.08540407  0.19973679  1
  O  O361  1  0.59507063  0.07602858  0.54118569  1
  O  O362  1  0.57726187  0.10172165  0.86777530  1
  O  O363  1  0.58312772  0.57033919  0.19781274  1
  O  O364  1  0.59696749  0.58505703  0.54026793  1
  O  O365  1  0.59528376  0.58688131  0.87184062  1
  O  O366  1  0.13638389  0.21375484  0.05735597  1
  O  O367  1  0.13790896  0.22425001  0.39439725  1
  O  O368  1  0.13972634  0.22177842  0.72373124  1
  O  O369  1  0.13781899  0.72353618  0.06041469  1
  O  O370  1  0.13509184  0.72186484  0.38809020  1
  O  O371  1  0.13629591  0.71813711  0.72583490  1
  O  O372  1  0.64006450  0.21918641  0.05841945  1
  O  O373  1  0.63688858  0.21412766  0.38806845  1
  O  O374  1  0.63946076  0.21660047  0.73651789  1
  O  O375  1  0.63849578  0.72343341  0.05555749  1
  O  O376  1  0.63390320  0.72535113  0.39080556  1
  O  O377  1  0.64414681  0.73174485  0.73023350  1
  O  O378  1  0.27681564  0.36041734  0.10536186  1
  O  O379  1  0.26747218  0.36652187  0.43665537  1
  O  O380  1  0.26233066  0.36688773  0.77236906  1
  O  O381  1  0.28254196  0.86008028  0.11031182  1
  O  O382  1  0.28093991  0.85995666  0.44067413  1
  O  O383  1  0.27856009  0.86044984  0.78033213  1
  O  O384  1  0.78403407  0.36678180  0.10736524  1
  O  O385  1  0.78399325  0.36276927  0.44297733  1
  O  O386  1  0.77937461  0.35789416  0.77183701  1
  O  O387  1  0.78045620  0.86053060  0.11166093  1
  O  O388  1  0.78010332  0.86194527  0.44047588  1
  O  O389  1  0.78696360  0.85675560  0.78106523  1
  O  O390  1  0.35532500  0.27867343  0.27376007  1
  O  O391  1  0.36380765  0.30578209  0.61507224  1
  O  O392  1  0.36129974  0.28066864  0.94279011  1
  O  O393  1  0.35883904  0.78010883  0.27467015  1
  O  O394  1  0.36753990  0.78346565  0.61579577  1
  O  O395  1  0.35933313  0.77427155  0.94106290  1
  O  O396  1  0.86877045  0.27134986  0.27470207  1
  O  O397  1  0.86334774  0.27949631  0.60609055  1
  O  O398  1  0.86510671  0.27250378  0.94163292  1
  O  O399  1  0.86074502  0.77588489  0.27397006  1
  O  O400  1  0.86079866  0.77457628  0.60638795  1
  O  O401  1  0.86683161  0.78640721  0.94516021  1
  O  O402  1  0.22548552  0.13682686  0.22837790  1
  O  O403  1  0.21605960  0.14048941  0.55379520  1
  O  O404  1  0.21962955  0.13463190  0.89109607  1
  O  O405  1  0.22203079  0.63881926  0.22242195  1
  O  O406  1  0.20254335  0.63768194  0.54856960  1
  O  O407  1  0.22245943  0.63370326  0.89189908  1
  O  O408  1  0.72208233  0.14167033  0.22590206  1
  O  O409  1  0.72533548  0.13338497  0.55606564  1
  O  O410  1  0.71828892  0.13758339  0.89712026  1
  O  O411  1  0.71318922  0.63877257  0.22219466  1
  O  O412  1  0.73001061  0.64130693  0.56269146  1
  O  O413  1  0.73001635  0.63935804  0.89684418  1
  O  O414  1  0.49054943  0.33748153  0.03566602  1
  O  O415  1  0.48910966  0.33228909  0.35575939  1
  O  O416  1  0.49512595  0.35854617  0.70305060  1
  O  O417  1  0.48943691  0.82803513  0.03056278  1
  O  O418  1  0.48901243  0.82834259  0.36457310  1
  O  O419  1  0.49914554  0.83952664  0.69988093  1
  O  O420  1  0.99482408  0.33160241  0.02896554  1
  O  O421  1  0.99669384  0.33130449  0.36201971  1
  O  O422  1  0.99376838  0.33072663  0.69599481  1
  O  O423  1  0.99887559  0.82783144  0.03275098  1
  O  O424  1  0.99154701  0.83228247  0.36219421  1
  O  O425  1  0.98989831  0.83114056  0.69544134  1
  O  O426  1  0.16662317  0.00671479  0.13934055  1
  O  O427  1  0.16268479  0.00692232  0.47060443  1
  O  O428  1  0.16354762  0.00577975  0.79967611  1
  O  O429  1  0.16384007  0.50752488  0.13593625  1
  O  O430  1  0.15349573  0.50449370  0.46520902  1
  O  O431  1  0.15907419  0.50651354  0.80086588  1
  O  O432  1  0.67065033  0.01095302  0.13559574  1
  O  O433  1  0.66976813  0.00538625  0.46397607  1
  O  O434  1  0.65110348  0.00978873  0.80774420  1
  O  O435  1  0.67335592  0.50611573  0.13715991  1
  O  O436  1  0.67952431  0.51079718  0.47314659  1
  O  O437  1  0.67468831  0.50971596  0.80530928  1
  O  O438  1  0.00896239  0.16754010  0.30491862  1
  O  O439  1  0.00848726  0.16782048  0.63752503  1
  O  O440  1  0.00504238  0.16893918  0.96941870  1
  O  O441  1  0.00385818  0.66868395  0.30243908  1
  O  O442  1  0.00610770  0.66602680  0.63728908  1
  O  O443  1  0.00803364  0.66612234  0.97335205  1
  O  O444  1  0.50628125  0.16277339  0.29888333  1
  O  O445  1  0.50854274  0.18352886  0.64643274  1
  O  O446  1  0.50811755  0.17598372  0.96998460  1
  O  O447  1  0.50535145  0.65552349  0.30509043  1
  O  O448  1  0.51650275  0.67161504  0.63763116  1
  O  O449  1  0.51077518  0.66344178  0.96290255  1
  O  O450  1  0.32584118  0.49206651  0.19504531  1
  O  O451  1  0.31819111  0.49652433  0.52497899  1
  O  O452  1  0.32117110  0.49436075  0.86179357  1
  O  O453  1  0.33838824  0.98957391  0.20048980  1
  O  O454  1  0.32958091  0.99001480  0.53178591  1
  O  O455  1  0.33172464  0.99238535  0.86428780  1
  O  O456  1  0.84314432  0.49796536  0.19274765  1
  O  O457  1  0.84359102  0.49200981  0.53446405  1
  O  O458  1  0.83465041  0.48681755  0.86340149  1
  O  O459  1  0.83611088  0.99122850  0.19877324  1
  O  O460  1  0.83548155  0.99195859  0.53055576  1
  O  O461  1  0.83449645  0.99250111  0.85848546  1
