# generated using pymatgen
data_Na31Fe20(SO4)36
_symmetry_space_group_name_H-M   'P 1'
_cell_length_a   18.07191575
_cell_length_b   18.06949244
_cell_length_c   19.72493676
_cell_angle_alpha   107.56620884
_cell_angle_beta   107.55959247
_cell_angle_gamma   90.75871909
_symmetry_Int_Tables_number   1
_chemical_formula_structural   Na31Fe20(SO4)36
_chemical_formula_sum   'Na62 Fe40 S72 O288'
_cell_volume   5816.01511974
_cell_formula_units_Z   2
loop_
 _symmetry_equiv_pos_site_id
 _symmetry_equiv_pos_as_xyz
  1  'x, y, z'
loop_
 _atom_site_type_symbol
 _atom_site_label
 _atom_site_symmetry_multiplicity
 _atom_site_fract_x
 _atom_site_fract_y
 _atom_site_fract_z
 _atom_site_occupancy
  Na  Na0  1  0.13836253  0.36950127  0.09081615  1
  Na  Na1  1  0.12894833  0.36124255  0.41369508  1
  Na  Na2  1  0.13647344  0.36164139  0.74990451  1
  Na  Na3  1  0.14004565  0.85844366  0.08807297  1
  Na  Na4  1  0.12744445  0.85425569  0.40949590  1
  Na  Na5  1  0.13427191  0.87478115  0.74947591  1
  Na  Na6  1  0.62862384  0.37843644  0.08330562  1
  Na  Na7  1  0.62881840  0.37228074  0.41430395  1
  Na  Na8  1  0.63856523  0.36501949  0.75215979  1
  Na  Na9  1  0.64639695  0.87394016  0.09713885  1
  Na  Na10  1  0.63463821  0.86117396  0.40460444  1
  Na  Na11  1  0.63151791  0.86666950  0.75428605  1
  Na  Na12  1  0.36574649  0.13273136  0.24875065  1
  Na  Na13  1  0.36334669  0.13305882  0.58275338  1
  Na  Na14  1  0.36682336  0.12439981  0.90850490  1
  Na  Na15  1  0.34516213  0.65751443  0.25488417  1
  Na  Na16  1  0.36306069  0.63305023  0.57921206  1
  Na  Na17  1  0.38032512  0.63410780  0.92109599  1
  Na  Na18  1  0.86550614  0.13329529  0.25860194  1
  Na  Na19  1  0.86741275  0.13296183  0.58339159  1
  Na  Na20  1  0.86626571  0.13392452  0.91263076  1
  Na  Na21  1  0.86608378  0.63772038  0.25489369  1
  Na  Na22  1  0.86742588  0.63557015  0.58192419  1
  Na  Na23  1  0.86140077  0.63597919  0.91903891  1
  Na  Na24  1  0.97754846  0.51406535  0.08045981  1
  Na  Na25  1  0.47814842  -0.00546622  0.77447772  1
  Na  Na26  1  0.49420731  0.00872910  0.42252409  1
  Na  Na27  1  0.98870102  0.51303057  0.74559761  1
  Na  Na28  1  0.99567392  0.00866120  0.07062580  1
  Na  Na29  1  0.49134047  0.53952052  0.75098197  1
  Na  Na30  1  0.94754288  -0.00715679  0.40340840  1
  Na  Na31  1  0.98845946  0.51395166  0.41436981  1
  Na  Na32  1  0.49619905  0.01604773  0.06181645  1
  Na  Na33  1  0.50260960  0.97823129  0.59364687  1
  Na  Na34  1  -0.00163514  0.98557655  0.24992030  1
  Na  Na35  1  0.01190895  0.48694066  0.91646895  1
  Na  Na36  1  0.02209787  0.48814591  0.24748300  1
  Na  Na37  1  0.51786069  0.98870443  0.24829249  1
  Na  Na38  1  0.01359836  0.46033580  0.56848952  1
  Na  Na39  1  0.47606035  0.54401128  0.22844287  1
  Na  Na40  1  0.02535025  0.96865637  0.59482552  1
  Na  Na41  1  0.56600751  0.51964991  0.95741427  1
  Na  Na42  1  0.24344827  0.23637600  0.67203849  1
  Na  Na43  1  0.25322168  0.25157781  0.00026476  1
  Na  Na44  1  0.72995156  0.73553502  0.00989630  1
  Na  Na45  1  0.24813983  0.74141654  0.00534043  1
  Na  Na46  1  0.76316126  0.26093153  0.33129730  1
  Na  Na47  1  0.76183011  0.76114296  0.33357049  1
  Na  Na48  1  0.25899710  0.26320313  0.32756854  1
  Na  Na49  1  0.74769800  0.75087463  0.66733499  1
  Na  Na50  1  0.74379813  0.24360930  0.67503519  1
  Na  Na51  1  0.76034980  0.26206135  -0.01469472  1
  Na  Na52  1  0.25865625  0.75822163  0.81976856  1
  Na  Na53  1  0.72081668  0.72130431  0.16794464  1
  Na  Na54  1  0.24763611  0.24909130  0.49919422  1
  Na  Na55  1  0.24691703  0.74680613  0.50226110  1
  Na  Na56  1  0.76269771  0.25646622  0.49499888  1
  Na  Na57  1  0.23984159  0.23251455  0.83555255  1
  Na  Na58  1  0.75749404  0.75543059  0.49645595  1
  Na  Na59  1  0.73314818  0.74005044  0.84145767  1
  Na  Na60  1  0.75539707  0.25509749  0.16085370  1
  Na  Na61  1  0.26262349  0.26424496  0.16471433  1
  Fe  Fe62  1  0.46411683  0.31227257  0.12309330  1
  Fe  Fe63  1  0.46717575  0.30933487  0.78774653  1
  Fe  Fe64  1  0.46807051  0.79962459  0.79664671  1
  Fe  Fe65  1  0.96542829  0.80922791  0.78814697  1
  Fe  Fe66  1  0.96627722  0.30617183  0.11672452  1
  Fe  Fe67  1  0.46299047  0.80766261  0.44873102  1
  Fe  Fe68  1  0.96229073  0.80754204  0.11740241  1
  Fe  Fe69  1  0.46870089  0.79918964  0.12692683  1
  Fe  Fe70  1  0.96468446  0.30704519  0.78386479  1
  Fe  Fe71  1  0.46549300  0.31133946  0.45285193  1
  Fe  Fe72  1  0.68682893  0.53915844  0.37860793  1
  Fe  Fe73  1  0.19258878  0.03316385  0.38020006  1
  Fe  Fe74  1  0.69426834  0.03726205  0.71595651  1
  Fe  Fe75  1  0.19060760  0.03391636  0.04475471  1
  Fe  Fe76  1  0.19073399  0.53421436  0.71273219  1
  Fe  Fe77  1  0.70226037  0.03159555  0.38128842  1
  Fe  Fe78  1  0.68598201  0.53565216  0.70611145  1
  Fe  Fe79  1  0.20117788  0.53170838  0.37860495  1
  Fe  Fe80  1  0.19419502  0.53588940  0.05247337  1
  Fe  Fe81  1  0.69514268  0.03322718  0.04621117  1
  Fe  Fe82  1  0.53719053  0.19281926  0.88052418  1
  Fe  Fe83  1  0.53600577  0.19468611  0.21533967  1
  Fe  Fe84  1  0.03528764  0.69714901  0.54603852  1
  Fe  Fe85  1  0.53178747  0.69188345  0.54240817  1
  Fe  Fe86  1  0.03136570  0.19495188  0.21602085  1
  Fe  Fe87  1  0.53503086  0.19462738  0.54880385  1
  Fe  Fe88  1  0.03685986  0.18685393  0.87510944  1
  Fe  Fe89  1  0.03404109  0.69326631  0.21660666  1
  Fe  Fe90  1  0.03393297  0.69108577  0.88170632  1
  Fe  Fe91  1  0.03154546  0.19638611  0.54315436  1
  Fe  Fe92  1  0.81403596  0.96412521  0.62530533  1
  Fe  Fe93  1  0.80663051  0.46589661  0.61570270  1
  Fe  Fe94  1  0.29855702  0.96808123  0.62391079  1
  Fe  Fe95  1  0.80189730  0.46553527  0.95105367  1
  Fe  Fe96  1  0.30737089  0.46530884  0.62062795  1
  Fe  Fe97  1  0.30625294  0.96141900  0.28562385  1
  Fe  Fe98  1  0.80603625  0.46627466  0.28450107  1
  Fe  Fe99  1  0.30516637  0.96362681  0.95265316  1
  Fe  Fe100  1  0.80659636  0.96294412  0.94832390  1
  Fe  Fe101  1  0.31261664  0.46723245  0.95681041  1
  S  S102  1  0.36128419  0.13948525  0.08509017  1
  S  S103  1  0.36027321  0.13932249  0.41551861  1
  S  S104  1  0.36423550  0.13992034  0.74974367  1
  S  S105  1  0.35518559  0.63986330  0.08607731  1
  S  S106  1  0.35979850  0.64565713  0.41613580  1
  S  S107  1  0.35574845  0.63809525  0.74994175  1
  S  S108  1  0.86122002  0.13924298  0.07887852  1
  S  S109  1  0.85872198  0.14080705  0.41865033  1
  S  S110  1  0.85936783  0.14273316  0.75105346  1
  S  S111  1  0.85922952  0.64036441  0.07933799  1
  S  S112  1  0.86074770  0.63972182  0.41882256  1
  S  S113  1  0.85785300  0.64101855  0.75000564  1
  S  S114  1  0.13926076  0.35730013  0.25049074  1
  S  S115  1  0.14510365  0.35747847  0.58588079  1
  S  S116  1  0.14133980  0.35981090  0.91611431  1
  S  S117  1  0.13670591  0.86074302  0.24830564  1
  S  S118  1  0.14274987  0.85514097  0.57952115  1
  S  S119  1  0.14071535  0.85662590  0.91820611  1
  S  S120  1  0.64038935  0.35933588  0.25059741  1
  S  S121  1  0.64291745  0.35702174  0.58091860  1
  S  S122  1  0.64072071  0.35677145  0.91568631  1
  S  S123  1  0.64042999  0.86685241  0.24860953  1
  S  S124  1  0.63942481  0.86214831  0.58430147  1
  S  S125  1  0.64170586  0.85974158  0.91780967  1
  S  S126  1  0.06952113  0.17247317  0.04336912  1
  S  S127  1  0.06761759  0.16458608  0.37301621  1
  S  S128  1  0.06362968  0.17029726  0.70714725  1
  S  S129  1  0.06502678  0.66602912  0.03822255  1
  S  S130  1  0.06696628  0.65867985  0.37350889  1
  S  S131  1  0.06486699  0.66645063  0.70888026  1
  S  S132  1  0.56943194  0.17301809  0.04318076  1
  S  S133  1  0.56864505  0.16816903  0.37778257  1
  S  S134  1  0.56737830  0.16797545  0.70532279  1
  S  S135  1  0.56904578  0.67778448  0.05279597  1
  S  S136  1  0.56668607  0.67706094  0.37918291  1
  S  S137  1  0.56536974  0.67290230  0.70648111  1
  S  S138  1  0.32797699  0.43490783  0.12301811  1
  S  S139  1  0.32497261  0.42768870  0.45781047  1
  S  S140  1  0.32941213  0.43037321  0.79014750  1
  S  S141  1  0.32963488  0.93057766  0.12445754  1
  S  S142  1  0.32835750  0.93341537  0.45980950  1
  S  S143  1  0.33343529  0.92799091  0.79532985  1
  S  S144  1  0.83793185  0.43286762  0.12512300  1
  S  S145  1  0.83104248  0.43847250  0.45662870  1
  S  S146  1  0.83240594  0.43521271  0.78933448  1
  S  S147  1  0.83686680  0.93806362  0.12013474  1
  S  S148  1  0.83217960  0.93397360  0.46586736  1
  S  S149  1  0.82723717  0.93129799  0.78881363  1
  S  S150  1  0.43387656  0.32863134  0.28788323  1
  S  S151  1  0.43390392  0.32919285  0.62436886  1
  S  S152  1  0.42958023  0.32493131  0.95527591  1
  S  S153  1  0.43380812  0.84198968  0.29527491  1
  S  S154  1  0.43379898  0.83258742  0.62881599  1
  S  S155  1  0.42496479  0.82488463  0.96210288  1
  S  S156  1  0.93348376  0.33131025  0.29021437  1
  S  S157  1  0.93664630  0.33489174  0.62644137  1
  S  S158  1  0.93599694  0.33286518  0.95709610  1
  S  S159  1  0.93275126  0.82666990  0.28390921  1
  S  S160  1  0.93478507  0.82811956  0.62736486  1
  S  S161  1  0.93132814  0.82753861  0.95377956  1
  S  S162  1  0.16797340  0.06963050  0.20814923  1
  S  S163  1  0.16907541  0.06900017  0.54047173  1
  S  S164  1  0.17444301  0.06777563  0.88002901  1
  S  S165  1  0.16014821  0.56564064  0.20464534  1
  S  S166  1  0.16836741  0.56281308  0.53977889  1
  S  S167  1  0.16520862  0.56311587  0.87396237  1
  S  S168  1  0.66780645  0.07556544  0.20762475  1
  S  S169  1  0.66920813  0.06726236  0.54330034  1
  S  S170  1  0.67127628  0.06827615  0.87596860  1
  S  S171  1  0.67232086  0.56382535  0.21640188  1
  S  S172  1  0.67218727  0.57069207  0.54400528  1
  S  S173  1  0.66974759  0.56137902  0.86982752  1
  O  O174  1  0.36879271  0.21993840  0.07935821  1
  O  O175  1  0.36939156  0.21794314  0.40711094  1
  O  O176  1  0.37783555  0.21782935  0.73933215  1
  O  O177  1  0.37018416  0.72202869  0.08306449  1
  O  O178  1  0.36764801  0.73021463  0.41995715  1
  O  O179  1  0.36657354  0.71922597  0.74846158  1
  O  O180  1  0.86989765  0.21753245  0.06888231  1
  O  O181  1  0.86226901  0.21888899  0.41127368  1
  O  O182  1  0.86807852  0.22160640  0.74190834  1
  O  O183  1  0.87391423  0.71561262  0.06451157  1
  O  O184  1  0.86617367  0.71438226  0.40573818  1
  O  O185  1  0.86751048  0.72031840  0.74349793  1
  O  O186  1  0.28273732  0.12950656  0.09380448  1
  O  O187  1  0.28242718  0.13041995  0.42559797  1
  O  O188  1  0.28902245  0.13581542  0.76213952  1
  O  O189  1  0.27069994  0.63346334  0.08142200  1
  O  O190  1  0.28104247  0.63178745  0.42514697  1
  O  O191  1  0.27422283  0.62786862  0.75371625  1
  O  O192  1  0.78194915  0.13073849  0.08601660  1
  O  O193  1  0.78176303  0.12789298  0.43253936  1
  O  O194  1  0.78043814  0.13287944  0.75839632  1
  O  O195  1  0.78135992  0.63693433  0.08600295  1
  O  O196  1  0.78359809  0.62808948  0.43096234  1
  O  O197  1  0.77829259  0.63108736  0.75615817  1
  O  O198  1  0.12453345  0.27970988  0.26123411  1
  O  O199  1  0.13362554  0.27910591  0.59491405  1
  O  O200  1  0.13246384  0.27956328  0.92190635  1
  O  O201  1  0.12728700  0.78332508  0.25720918  1
  O  O202  1  0.13428341  0.77129807  0.57754843  1
  O  O203  1  0.13038346  0.77725939  0.92591483  1
  O  O204  1  0.63263684  0.28162867  0.26248229  1
  O  O205  1  0.63375537  0.27761088  0.58868271  1
  O  O206  1  0.63094659  0.27620040  0.92170596  1
  O  O207  1  0.63794117  0.79255580  0.26406923  1
  O  O208  1  0.63034220  0.78342671  0.59251558  1
  O  O209  1  0.63863949  0.78155081  0.92405872  1
  O  O210  1  0.21601838  0.36083635  0.24120636  1
  O  O211  1  0.22765906  0.36518173  0.58538606  1
  O  O212  1  0.21947288  0.36853456  0.90662294  1
  O  O213  1  0.21423367  0.87321360  0.23938798  1
  O  O214  1  0.22614691  0.86754692  0.57934577  1
  O  O215  1  0.21998794  0.86522537  0.91082685  1
  O  O216  1  0.72006708  0.36644539  0.24283049  1
  O  O217  1  0.72227934  0.36649252  0.57322899  1
  O  O218  1  0.72076335  0.36492104  0.90987696  1
  O  O219  1  0.70994590  0.88153793  0.22991846  1
  O  O220  1  0.71913542  0.87149370  0.57826526  1
  O  O221  1  0.71668692  0.87365663  0.90146511  1
  O  O222  1  0.42107022  0.12963103  0.15174447  1
  O  O223  1  0.42109263  0.13049647  0.48252952  1
  O  O224  1  0.42728439  0.12911289  0.81513805  1
  O  O225  1  0.40511997  0.62893936  0.15439936  1
  O  O226  1  0.41831366  0.63540975  0.48427033  1
  O  O227  1  0.41233415  0.62266733  0.81336994  1
  O  O228  1  0.91986548  0.13265700  0.14775608  1
  O  O229  1  0.91977898  0.13470255  0.48789397  1
  O  O230  1  0.91852298  0.13769261  0.82014457  1
  O  O231  1  0.91904181  0.63155206  0.14717760  1
  O  O232  1  0.92147657  0.63439100  0.48815225  1
  O  O233  1  0.91625551  0.63125681  0.81786845  1
  O  O234  1  0.37065766  0.08219397  0.01670908  1
  O  O235  1  0.36683094  0.07925577  0.34731890  1
  O  O236  1  0.36817246  0.07908068  0.68062205  1
  O  O237  1  0.36484751  0.58460856  0.01634326  1
  O  O238  1  0.36690398  0.59485456  0.34653380  1
  O  O239  1  0.36264054  0.58252183  0.67838563  1
  O  O240  1  0.87179406  0.07938595  0.01247105  1
  O  O241  1  0.86659853  0.08025677  0.35309915  1
  O  O242  1  0.86760372  0.08373195  0.68366622  1
  O  O243  1  0.86850815  0.57692153  0.01306876  1
  O  O244  1  0.87178960  0.57567796  0.35418837  1
  O  O245  1  0.86814329  0.58256363  0.68246035  1
  O  O246  1  0.07870629  0.36633957  0.18274559  1
  O  O247  1  0.09078517  0.36575749  0.51758245  1
  O  O248  1  0.08089386  0.37021456  0.84972702  1
  O  O249  1  0.07635433  0.86917536  0.17999297  1
  O  O250  1  0.08892016  0.86835965  0.51300030  1
  O  O251  1  0.08252002  0.86379572  0.85005808  1
  O  O252  1  0.58253018  0.36251092  0.18010729  1
  O  O253  1  0.58434835  0.36361468  0.51254350  1
  O  O254  1  0.58315587  0.36290889  0.84526965  1
  O  O255  1  0.56974327  0.87193733  0.18350486  1
  O  O256  1  0.58052057  0.87183696  0.51687220  1
  O  O257  1  0.57774170  0.86907226  0.85325006  1
  O  O258  1  0.13146149  0.41852709  0.31735067  1
  O  O259  1  0.13396267  0.41759872  0.65299452  1
  O  O260  1  0.13300594  0.41753135  0.98470947  1
  O  O261  1  0.12752521  0.92153175  0.31530279  1
  O  O262  1  0.13209968  0.90739530  0.64816567  1
  O  O263  1  0.13426344  0.91540647  0.98721139  1
  O  O264  1  0.63058550  0.41944506  0.31630050  1
  O  O265  1  0.63614840  0.41516375  0.64937617  1
  O  O266  1  0.62979152  0.41427524  0.98102453  1
  O  O267  1  0.63013605  0.93005462  0.31546154  1
  O  O268  1  0.63015080  0.92174936  0.65223962  1
  O  O269  1  0.63873926  0.91911243  0.98864657  1
  O  O270  1  0.03273708  0.20329307  0.10432820  1
  O  O271  1  0.03610936  0.18860815  0.43565415  1
  O  O272  1  0.02902005  0.20577055  0.77060681  1
  O  O273  1  0.03358102  0.69856096  0.10153540  1
  O  O274  1  0.02933777  0.67686888  0.43203878  1
  O  O275  1  0.02671737  0.69378707  0.76952879  1
  O  O276  1  0.53031932  0.20081072  0.10232988  1
  O  O277  1  0.53042768  0.20007244  0.43728753  1
  O  O278  1  0.53574136  0.19938790  0.76886810  1
  O  O279  1  0.52768520  0.71051292  0.11080828  1
  O  O280  1  0.53303441  0.70999840  0.44386517  1
  O  O281  1  0.52862040  0.70012516  0.76591062  1
  O  O282  1  0.29504297  0.46601743  0.05690615  1
  O  O283  1  0.29559225  0.46418227  0.39892987  1
  O  O284  1  0.29969047  0.46912122  0.73077116  1
  O  O285  1  0.30446663  0.96986927  0.06514844  1
  O  O286  1  0.29919469  0.96990846  0.39785094  1
  O  O287  1  0.31961293  0.96751537  0.73793244  1
  O  O288  1  0.81394078  0.46462682  0.06247895  1
  O  O289  1  0.79005248  0.46893080  0.39389710  1
  O  O290  1  0.80543396  0.47125603  0.72793813  1
  O  O291  1  0.80234090  0.96998217  0.05492690  1
  O  O292  1  0.79871767  0.96499588  0.40256209  1
  O  O293  1  0.79848816  0.97081933  0.72931845  1
  O  O294  1  0.47210995  0.29176789  0.22725136  1
  O  O295  1  0.47138641  0.30105932  0.56325625  1
  O  O296  1  0.46797304  0.29533157  0.89523041  1
  O  O297  1  0.46519231  0.81257077  0.23208473  1
  O  O298  1  0.47459514  0.80999247  0.57042488  1
  O  O299  1  0.46495569  0.80260499  0.90578941  1
  O  O300  1  0.96263956  0.29761431  0.22331193  1
  O  O301  1  0.97378419  0.30561643  0.56815128  1
  O  O302  1  0.97206843  0.30294274  0.89613352  1
  O  O303  1  0.96524759  0.78906979  0.21838394  1
  O  O304  1  0.97178071  0.79801607  0.56906399  1
  O  O305  1  0.96892139  0.79664347  0.89343270  1
  O  O306  1  0.19838101  0.03413447  0.26933905  1
  O  O307  1  0.19914635  0.03344663  0.60027313  1
  O  O308  1  0.20520530  0.03208475  0.94392985  1
  O  O309  1  0.18365326  0.53055687  0.26498169  1
  O  O310  1  0.19735950  0.52487811  0.60076824  1
  O  O311  1  0.19511564  0.52702075  0.93451812  1
  O  O312  1  0.68953948  0.04976564  0.27363756  1
  O  O313  1  0.69729959  0.03217091  0.60514194  1
  O  O314  1  0.70047402  0.03207494  0.93689678  1
  O  O315  1  0.71044488  0.52906226  0.28083598  1
  O  O316  1  0.70190170  0.52954771  0.60272236  1
  O  O317  1  0.70168402  0.52298662  0.92780681  1
  O  O318  1  0.08577751  0.09097063  0.04058841  1
  O  O319  1  0.08504411  0.08094590  0.35842787  1
  O  O320  1  0.07268313  0.08902094  0.69963186  1
  O  O321  1  0.08117579  0.58314896  0.03354088  1
  O  O322  1  0.08864630  0.57602643  0.36285979  1
  O  O323  1  0.07871974  0.58217271  0.70120207  1
  O  O324  1  0.59115318  0.09289767  0.04087570  1
  O  O325  1  0.58536153  0.08674058  0.37551950  1
  O  O326  1  0.58503154  0.08577760  0.70036114  1
  O  O327  1  0.60937870  0.61345925  0.07205298  1
  O  O328  1  0.58785493  0.59749140  0.37933783  1
  O  O329  1  0.58399465  0.59119704  0.70216590  1
  O  O330  1  0.40754976  0.41196564  0.12296950  1
  O  O331  1  0.40366497  0.40410399  0.45915003  1
  O  O332  1  0.41059252  0.41272367  0.79434609  1
  O  O333  1  0.41145603  0.90995729  0.13312212  1
  O  O334  1  0.41202933  0.91852111  0.46511297  1
  O  O335  1  0.41384699  0.90279521  0.80780999  1
  O  O336  1  0.92246835  0.41606436  0.13572976  1
  O  O337  1  0.91266955  0.43205917  0.45865400  1
  O  O338  1  0.91601724  0.41913558  0.79706164  1
  O  O339  1  0.91842581  0.91874955  0.11944474  1
  O  O340  1  0.91515052  0.92569768  0.47548637  1
  O  O341  1  0.90541969  0.90883475  0.79109098  1
  O  O342  1  0.41558349  0.40484175  0.28451249  1
  O  O343  1  0.41502050  0.41039256  0.63233330  1
  O  O344  1  0.40888689  0.40407747  0.95669814  1
  O  O345  1  0.42038154  0.92701702  0.30310608  1
  O  O346  1  0.41452036  0.91534690  0.63594115  1
  O  O347  1  0.40759257  0.90843969  0.97542540  1
  O  O348  1  0.91271294  0.41237193  0.29121019  1
  O  O349  1  0.91783988  0.41729396  0.62888285  1
  O  O350  1  0.91732952  0.41462601  0.95995827  1
  O  O351  1  0.92052334  0.90713544  0.28280073  1
  O  O352  1  0.91718407  0.90975928  0.63143004  1
  O  O353  1  0.91511559  0.90942329  0.95885358  1
  O  O354  1  0.08505044  0.08541311  0.20116008  1
  O  O355  1  0.08862202  0.08995039  0.53671146  1
  O  O356  1  0.09769284  0.09428523  0.88362278  1
  O  O357  1  0.07491484  0.58104173  0.19261839  1
  O  O358  1  0.08633798  0.57998579  0.53641519  1
  O  O359  1  0.08129451  0.57799290  0.86832024  1
  O  O360  1  0.58158787  0.08815755  0.18965180  1
  O  O361  1  0.58675466  0.08590707  0.53750921  1
  O  O362  1  0.58936852  0.08577920  0.86928242  1
  O  O363  1  0.59501933  0.58056830  0.22056177  1
  O  O364  1  0.59484699  0.59338517  0.54483128  1
  O  O365  1  0.58817123  0.57248670  0.86458573  1
  O  O366  1  0.14217873  0.22330747  0.06029818  1
  O  O367  1  0.13889178  0.21615494  0.38719752  1
  O  O368  1  0.13857465  0.22009893  0.72669662  1
  O  O369  1  0.13418229  0.71536551  0.04651748  1
  O  O370  1  0.13552443  0.71398702  0.39097581  1
  O  O371  1  0.13719235  0.71669981  0.72845688  1
  O  O372  1  0.63880137  0.22761845  0.05937721  1
  O  O373  1  0.63965624  0.22004884  0.39320527  1
  O  O374  1  0.63658552  0.21857869  0.71501095  1
  O  O375  1  0.62871873  0.74131655  0.06147196  1
  O  O376  1  0.63817715  0.72955011  0.39551697  1
  O  O377  1  0.63822616  0.72436353  0.72372062  1
  O  O378  1  0.27489103  0.36365815  0.10774423  1
  O  O379  1  0.27080753  0.35751853  0.44432194  1
  O  O380  1  0.27714872  0.35843030  0.77237591  1
  O  O381  1  0.27491096  0.86115461  0.10548223  1
  O  O382  1  0.27762122  0.86315569  0.44459193  1
  O  O383  1  0.27388694  0.86265692  0.77670139  1
  O  O384  1  0.78769581  0.35997445  0.10935265  1
  O  O385  1  0.78657987  0.36356797  0.44527611  1
  O  O386  1  0.78143061  0.36349254  0.77197918  1
  O  O387  1  0.78727346  0.86668153  0.10674706  1
  O  O388  1  0.78458771  0.85953229  0.45157378  1
  O  O389  1  0.77066181  0.86309123  0.77190707  1
  O  O390  1  0.36428717  0.27251704  0.27240908  1
  O  O391  1  0.36354601  0.27470220  0.60595785  1
  O  O392  1  0.35964854  0.27003479  0.93854451  1
  O  O393  1  0.36244416  0.79599544  0.28535397  1
  O  O394  1  0.36438359  0.77760247  0.60826001  1
  O  O395  1  0.35229094  0.77190829  0.94032269  1
  O  O396  1  0.86204161  0.27973703  0.27650271  1
  O  O397  1  0.86501194  0.28473580  0.61345240  1
  O  O398  1  0.86652190  0.28091612  0.94380498  1
  O  O399  1  0.85835359  0.77848725  0.26783684  1
  O  O400  1  0.86153500  0.77797322  0.61220708  1
  O  O401  1  0.85924049  0.77655926  0.93616256  1
  O  O402  1  0.21898821  0.14129099  0.22333086  1
  O  O403  1  0.22247143  0.14009054  0.55465205  1
  O  O404  1  0.23101246  0.13749875  0.89799486  1
  O  O405  1  0.20872596  0.63645467  0.21727390  1
  O  O406  1  0.22088112  0.63241522  0.55528040  1
  O  O407  1  0.21374357  0.63562785  0.88888888  1
  O  O408  1  0.71727086  0.14762878  0.21997013  1
  O  O409  1  0.72105639  0.13883646  0.55984441  1
  O  O410  1  0.72400358  0.13829186  0.89164958  1
  O  O411  1  0.72568156  0.63620675  0.23486231  1
  O  O412  1  0.72888881  0.63958259  0.56261215  1
  O  O413  1  0.71978710  0.63585652  0.88914489  1
  O  O414  1  0.48809006  0.32831424  0.02828724  1
  O  O415  1  0.49229817  0.32965338  0.36109871  1
  O  O416  1  0.49363631  0.32892960  0.69570294  1
  O  O417  1  0.48017655  0.82168210  0.03546654  1
  O  O418  1  0.49628553  0.84539135  0.36716906  1
  O  O419  1  0.49096859  0.83576982  0.70305160  1
  O  O420  1  0.99636962  0.33865261  0.03054247  1
  O  O421  1  0.99544949  0.33721141  0.35919355  1
  O  O422  1  0.99448907  0.34321132  0.70231669  1
  O  O423  1  0.99067502  0.82825958  0.02558560  1
  O  O424  1  0.99164551  0.82689364  0.35345187  1
  O  O425  1  0.99198227  0.83087074  0.70173570  1
  O  O426  1  0.16583042  0.00993329  0.13546283  1
  O  O427  1  0.16522757  0.01027879  0.46650131  1
  O  O428  1  0.16815206  0.00851659  0.80996243  1
  O  O429  1  0.15938609  0.50405575  0.13244160  1
  O  O430  1  0.16461210  0.50292201  0.46699029  1
  O  O431  1  0.16214648  0.50447518  0.80065945  1
  O  O432  1  0.67308826  0.01300771  0.13965503  1
  O  O433  1  0.66572548  0.00782065  0.47091869  1
  O  O434  1  0.66876906  0.00818996  0.80336092  1
  O  O435  1  0.67276646  0.50477309  0.14741719  1
  O  O436  1  0.66784478  0.51217993  0.47083439  1
  O  O437  1  0.67158942  0.50697270  0.79515211  1
  O  O438  1  0.00566032  0.16640215  0.30262522  1
  O  O439  1  0.00706515  0.17957495  0.63777449  1
  O  O440  1  0.01128663  0.17218896  0.97152458  1
  O  O441  1  0.00712107  0.65643636  0.30031833  1
  O  O442  1  0.00796778  0.66748499  0.63684512  1
  O  O443  1  0.00191030  0.66007739  0.96568566  1
  O  O444  1  0.51026839  0.16272322  0.30345464  1
  O  O445  1  0.50426529  0.16315589  0.63351236  1
  O  O446  1  0.51037206  0.16720350  0.96950433  1
  O  O447  1  0.50505767  0.67338778  0.31031292  1
  O  O448  1  0.50829263  0.67102758  0.63323472  1
  O  O449  1  0.51134652  0.65059395  0.97733223  1
  O  O450  1  0.33372820  0.49713878  0.19168169  1
  O  O451  1  0.33186724  0.48673959  0.53235925  1
  O  O452  1  0.32986412  0.48839606  0.86268274  1
  O  O453  1  0.33061160  0.99049251  0.19657054  1
  O  O454  1  0.33250759  0.99368662  0.53247567  1
  O  O455  1  0.33550164  0.98892495  0.86824630  1
  O  O456  1  0.83770253  0.49254856  0.19623130  1
  O  O457  1  0.83041449  0.49616474  0.52992507  1
  O  O458  1  0.83371598  0.49343101  0.86183880  1
  O  O459  1  0.84478646  1.00073513  0.18961712  1
  O  O460  1  0.82647545  0.99312827  0.53682438  1
  O  O461  1  0.83111865  0.99141706  0.86144697  1
