# generated using pymatgen
data_Na31Fe20(SO4)36
_symmetry_space_group_name_H-M   'P 1'
_cell_length_a   18.08188886
_cell_length_b   18.07689757
_cell_length_c   19.71311741
_cell_angle_alpha   107.58090918
_cell_angle_beta   107.58762390
_cell_angle_gamma   90.72812552
_symmetry_Int_Tables_number   1
_chemical_formula_structural   Na31Fe20(SO4)36
_chemical_formula_sum   'Na62 Fe40 S72 O288'
_cell_volume   5816.96600827
_cell_formula_units_Z   2
loop_
 _symmetry_equiv_pos_site_id
 _symmetry_equiv_pos_as_xyz
  1  'x, y, z'
loop_
 _atom_site_type_symbol
 _atom_site_label
 _atom_site_symmetry_multiplicity
 _atom_site_fract_x
 _atom_site_fract_y
 _atom_site_fract_z
 _atom_site_occupancy
  Na  Na0  1  0.21778406  0.39773449  0.16162608  1
  Na  Na1  1  0.14298121  0.36748502  0.41900451  1
  Na  Na2  1  0.13524546  0.36580470  0.75112414  1
  Na  Na3  1  0.13906212  0.85357594  0.06962552  1
  Na  Na4  1  0.13295358  0.86213988  0.41482003  1
  Na  Na5  1  0.13431296  0.86985408  0.75586302  1
  Na  Na6  1  0.63278236  0.35993647  0.08088172  1
  Na  Na7  1  0.61913653  0.37391797  0.41445306  1
  Na  Na8  1  0.63325514  0.36888680  0.75364394  1
  Na  Na9  1  0.63230858  0.86539152  0.08582503  1
  Na  Na10  1  0.62113553  0.84375998  0.39857444  1
  Na  Na11  1  0.62548652  0.86894417  0.74589575  1
  Na  Na12  1  0.35019566  0.14063151  0.23907684  1
  Na  Na13  1  0.36593578  0.13070182  0.57344632  1
  Na  Na14  1  0.37525459  0.13953401  0.92978339  1
  Na  Na15  1  0.36338142  0.62806875  0.24664828  1
  Na  Na16  1  0.35248300  0.62797540  0.57037343  1
  Na  Na17  1  0.35868219  0.64226404  0.91955927  1
  Na  Na18  1  0.86956062  0.13245044  0.25017120  1
  Na  Na19  1  0.86981420  0.12844435  0.58333085  1
  Na  Na20  1  0.87390526  0.13699909  0.92362308  1
  Na  Na21  1  0.86560473  0.63429310  0.25570256  1
  Na  Na22  1  0.83937222  0.63018033  0.55619317  1
  Na  Na23  1  0.86696443  0.63859447  0.91628218  1
  Na  Na24  1  0.49473890  0.55498760  0.10827548  1
  Na  Na25  1  0.49236108  0.00938075  0.08069321  1
  Na  Na26  1  0.43135617  0.49350657  0.38546393  1
  Na  Na27  1  1.01417822  0.48438090  0.08079664  1
  Na  Na28  1  0.99829164  0.50808125  0.41413929  1
  Na  Na29  1  0.99104766  0.00107958  0.42786785  1
  Na  Na30  1  0.99057782  0.55292463  0.76220750  1
  Na  Na31  1  0.99132252  0.00189430  0.75365322  1
  Na  Na32  1  1.01167114  0.00637387  0.05411711  1
  Na  Na33  1  0.01378632  0.49308773  0.58809125  1
  Na  Na34  1  0.50772752  0.49433681  0.90797693  1
  Na  Na35  1  0.50075831  0.98535546  0.59072127  1
  Na  Na36  1  0.05684917  0.50135491  0.26782651  1
  Na  Na37  1  0.01070145  0.50044836  0.91604166  1
  Na  Na38  1  0.45460181  1.01797635  0.30395856  1
  Na  Na39  1  0.51378331  0.46747713  0.58083332  1
  Na  Na40  1  0.02037516  0.98853534  0.24503074  1
  Na  Na41  1  0.52716202  0.47470573  0.25281614  1
  Na  Na42  1  0.28206326  0.28365132  0.32595215  1
  Na  Na43  1  0.75278659  0.75602237  0.65111301  1
  Na  Na44  1  0.74446075  0.24590862  0.67317368  1
  Na  Na45  1  0.72749768  0.71800403  0.35013949  1
  Na  Na46  1  0.75290276  0.25592060  0.33141987  1
  Na  Na47  1  0.24068085  0.74408867  0.67283093  1
  Na  Na48  1  0.25505470  0.75408561  0.32539828  1
  Na  Na49  1  0.25922746  0.25519389  0.66003315  1
  Na  Na50  1  0.25277504  0.25160274  0.01547271  1
  Na  Na51  1  0.74647539  0.74937669  0.00273814  1
  Na  Na52  1  0.25273810  0.24925079  0.83831034  1
  Na  Na53  1  0.74025119  0.23926068  0.84791574  1
  Na  Na54  1  0.75359179  0.75724296  0.82634188  1
  Na  Na55  1  0.26896819  0.26030494  0.48663692  1
  Na  Na56  1  0.24343843  0.74927532  0.50098787  1
  Na  Na57  1  0.75767417  0.25380669  0.15544484  1
  Na  Na58  1  0.75074401  0.25027701  0.50148082  1
  Na  Na59  1  0.25646919  0.76186574  0.15611685  1
  Na  Na60  1  0.22818971  0.74452795  0.85713881  1
  Na  Na61  1  0.73247140  0.73704489  0.17961052  1
  Fe  Fe62  1  0.96063191  0.81049377  0.45312143  1
  Fe  Fe63  1  0.46333435  0.81026485  0.78805520  1
  Fe  Fe64  1  0.97089297  0.30715669  0.11916714  1
  Fe  Fe65  1  0.46324928  0.80109799  0.45020337  1
  Fe  Fe66  1  0.96947873  0.30233896  0.45194707  1
  Fe  Fe67  1  0.46440845  0.80486130  0.12692632  1
  Fe  Fe68  1  0.96529243  0.80332471  0.11555433  1
  Fe  Fe69  1  0.46526571  0.30656737  0.78640823  1
  Fe  Fe70  1  0.96596090  0.30721428  0.78474727  1
  Fe  Fe71  1  0.96494798  0.80473956  0.78842626  1
  Fe  Fe72  1  0.19838262  0.03425320  0.05068453  1
  Fe  Fe73  1  0.69097508  0.53513674  0.71417973  1
  Fe  Fe74  1  0.69466389  0.53215872  0.04948706  1
  Fe  Fe75  1  0.19204533  0.03632790  0.71412019  1
  Fe  Fe76  1  0.19202040  0.53784712  0.71780188  1
  Fe  Fe77  1  0.69135174  0.03455385  0.04194214  1
  Fe  Fe78  1  0.19441596  0.53720837  0.04906187  1
  Fe  Fe79  1  0.20259792  0.02674589  0.37858777  1
  Fe  Fe80  1  0.69141318  0.03552309  0.71175522  1
  Fe  Fe81  1  0.68837644  0.03397241  0.37603796  1
  Fe  Fe82  1  0.53375151  0.20174143  0.20748112  1
  Fe  Fe83  1  0.03049246  0.69150176  0.21397965  1
  Fe  Fe84  1  0.53462164  0.68053290  0.54215392  1
  Fe  Fe85  1  0.03799124  0.19599301  0.88393584  1
  Fe  Fe86  1  0.53350268  0.68988176  0.87632469  1
  Fe  Fe87  1  0.03547339  0.18779761  0.21277872  1
  Fe  Fe88  1  0.53043809  0.19839998  0.53571680  1
  Fe  Fe89  1  0.03397547  0.69567157  0.54810479  1
  Fe  Fe90  1  0.03860568  0.19161228  0.54959522  1
  Fe  Fe91  1  0.53468643  0.19215594  0.88052862  1
  Fe  Fe92  1  0.80470910  0.96513230  0.28299972  1
  Fe  Fe93  1  0.80831413  0.46345907  0.28854586  1
  Fe  Fe94  1  0.80564169  0.96567976  0.95080925  1
  Fe  Fe95  1  0.31035182  0.96471434  0.62493865  1
  Fe  Fe96  1  0.80679907  0.46758807  0.61748218  1
  Fe  Fe97  1  0.80254173  0.96218028  0.61389618  1
  Fe  Fe98  1  0.80938108  0.46476298  0.95429383  1
  Fe  Fe99  1  0.31297730  0.46686094  0.95363871  1
  Fe  Fe100  1  0.31209714  0.46712543  0.62383850  1
  Fe  Fe101  1  0.30844043  0.95856844  0.95170750  1
  S  S102  1  0.36453263  0.13241488  0.08155862  1
  S  S103  1  0.35730258  0.14282047  0.41326950  1
  S  S104  1  0.35870004  0.14153701  0.74988156  1
  S  S105  1  0.35424314  0.64541011  0.07944883  1
  S  S106  1  0.35410952  0.64608664  0.41900771  1
  S  S107  1  0.35575233  0.64543147  0.75348401  1
  S  S108  1  0.86449595  0.13864646  0.08120736  1
  S  S109  1  0.86210997  0.13655883  0.41742202  1
  S  S110  1  0.86156439  0.13889527  0.74926896  1
  S  S111  1  0.85642638  0.64105193  0.08429290  1
  S  S112  1  0.86371085  0.63773314  0.41490267  1
  S  S113  1  0.85275654  0.64329392  0.74705444  1
  S  S114  1  0.13494380  0.35547272  0.25811003  1
  S  S115  1  0.14202660  0.35893919  0.58514016  1
  S  S116  1  0.14059658  0.36193603  0.91645130  1
  S  S117  1  0.13669404  0.85667270  0.25075135  1
  S  S118  1  0.13734480  0.86384477  0.58609410  1
  S  S119  1  0.13380555  0.86755188  0.91486509  1
  S  S120  1  0.64909111  0.35431663  0.24834824  1
  S  S121  1  0.64716396  0.35873268  0.58740081  1
  S  S122  1  0.64200676  0.36010770  0.91488465  1
  S  S123  1  0.64225170  0.85793413  0.25009961  1
  S  S124  1  0.63428419  0.85974497  0.58135992  1
  S  S125  1  0.64052788  0.85761146  0.91477483  1
  S  S126  1  0.07660739  0.17668683  0.04554678  1
  S  S127  1  0.06966538  0.16401398  0.37845062  1
  S  S128  1  0.06820749  0.17014186  0.71140173  1
  S  S129  1  0.06001322  0.66619412  0.04128582  1
  S  S130  1  0.06226460  0.67394138  0.37963257  1
  S  S131  1  0.06360616  0.67340709  0.70985677  1
  S  S132  1  0.56982016  0.16501910  0.04081526  1
  S  S133  1  0.57507792  0.17334790  0.37074197  1
  S  S134  1  0.56705645  0.17215604  0.70569672  1
  S  S135  1  0.56612963  0.66701675  0.03838131  1
  S  S136  1  0.55206990  0.65951580  0.37543044  1
  S  S137  1  0.56482296  0.66988474  0.70906968  1
  S  S138  1  0.34282625  0.44827477  0.11992085  1
  S  S139  1  0.33206397  0.43803292  0.46368329  1
  S  S140  1  0.32931588  0.43388166  0.78965238  1
  S  S141  1  0.33385013  0.93405987  0.12472339  1
  S  S142  1  0.32823490  0.92644340  0.46226712  1
  S  S143  1  0.32668953  0.93164630  0.78918458  1
  S  S144  1  0.83562397  0.43148049  0.12514905  1
  S  S145  1  0.84324650  0.42931227  0.46190921  1
  S  S146  1  0.83448454  0.43571224  0.79254605  1
  S  S147  1  0.83008984  0.93275120  0.12275124  1
  S  S148  1  0.82425084  0.92986178  0.45221436  1
  S  S149  1  0.82557911  0.93152463  0.78615561  1
  S  S150  1  0.43856818  0.33042598  0.28120855  1
  S  S151  1  0.43589124  0.32981112  0.62686393  1
  S  S152  1  0.43825921  0.33336934  0.95543520  1
  S  S153  1  0.42466857  0.82616453  0.28973038  1
  S  S154  1  0.43113126  0.82791943  0.62311175  1
  S  S155  1  0.43365859  0.82691985  0.95660860  1
  S  S156  1  0.93291656  0.32605303  0.29104759  1
  S  S157  1  0.93578308  0.33004609  0.62453921  1
  S  S158  1  0.93435819  0.33094030  0.95529183  1
  S  S159  1  0.93001398  0.83421436  0.29037136  1
  S  S160  1  0.92821896  0.82933024  0.62420351  1
  S  S161  1  0.92704661  0.83085602  0.95682321  1
  S  S162  1  0.16065075  0.06305923  0.20577749  1
  S  S163  1  0.17268844  0.06644314  0.54318854  1
  S  S164  1  0.17309542  0.07401097  0.87728646  1
  S  S165  1  0.16183687  0.56849722  0.20575082  1
  S  S166  1  0.16149809  0.56463883  0.54521859  1
  S  S167  1  0.16727682  0.56094580  0.87476127  1
  S  S168  1  0.67359640  0.07254266  0.20681070  1
  S  S169  1  0.67262216  0.07293215  0.54309512  1
  S  S170  1  0.67545286  0.06974962  0.87495840  1
  S  S171  1  0.67475670  0.56004538  0.21150035  1
  S  S172  1  0.66680749  0.55988582  0.54477009  1
  S  S173  1  0.67261552  0.56734303  0.87820107  1
  O  O174  1  0.36799553  0.20263753  0.06100877  1
  O  O175  1  0.35595472  0.22391178  0.41334816  1
  O  O176  1  0.36657451  0.22070572  0.74137286  1
  O  O177  1  0.36656827  0.72438083  0.07236543  1
  O  O178  1  0.36705884  0.73012668  0.41564350  1
  O  O179  1  0.36539059  0.72537826  0.74753292  1
  O  O180  1  0.87650615  0.21611800  0.07221956  1
  O  O181  1  0.87180840  0.21506725  0.40872147  1
  O  O182  1  0.87158679  0.21665508  0.73851927  1
  O  O183  1  0.86627671  0.71935693  0.07472884  1
  O  O184  1  0.87278913  0.71472115  0.40145330  1
  O  O185  1  0.86226971  0.72339709  0.74098175  1
  O  O186  1  0.28968980  0.12095153  0.09661753  1
  O  O187  1  0.28308424  0.12168038  0.42839533  1
  O  O188  1  0.27854100  0.13214892  0.75600255  1
  O  O189  1  0.27137170  0.63695345  0.07954972  1
  O  O190  1  0.27950916  0.64157712  0.43224630  1
  O  O191  1  0.27729234  0.63747131  0.76391123  1
  O  O192  1  0.78421283  0.12880989  0.08547751  1
  O  O193  1  0.78414976  0.12840811  0.42688191  1
  O  O194  1  0.78178429  0.13240976  0.75615577  1
  O  O195  1  0.77609740  0.63299496  0.08979178  1
  O  O196  1  0.78734339  0.62792181  0.42309154  1
  O  O197  1  0.77188173  0.63456373  0.75188599  1
  O  O198  1  0.12172733  0.27495588  0.26368377  1
  O  O199  1  0.13270019  0.28080044  0.59552398  1
  O  O200  1  0.13251516  0.28315223  0.92521680  1
  O  O201  1  0.12107744  0.78058443  0.26355770  1
  O  O202  1  0.12764579  0.78428225  0.59404790  1
  O  O203  1  0.12968961  0.79174565  0.92558668  1
  O  O204  1  0.63598284  0.26850040  0.24488444  1
  O  O205  1  0.63498412  0.27771172  0.59065130  1
  O  O206  1  0.63257571  0.27844770  0.91469390  1
  O  O207  1  0.64391053  0.78220822  0.26279437  1
  O  O208  1  0.62521848  0.78333815  0.59344869  1
  O  O209  1  0.63222952  0.77761114  0.92131811  1
  O  O210  1  0.21591370  0.36493816  0.25998855  1
  O  O211  1  0.22244423  0.36854667  0.58149170  1
  O  O212  1  0.21829060  0.36980680  0.90578416  1
  O  O213  1  0.21346965  0.86006748  0.24247280  1
  O  O214  1  0.21707134  0.87140598  0.57922451  1
  O  O215  1  0.21018591  0.88024028  0.90026947  1
  O  O216  1  0.73213816  0.35907917  0.24620904  1
  O  O217  1  0.73013148  0.36656110  0.58655972  1
  O  O218  1  0.71979165  0.37106620  0.90409526  1
  O  O219  1  0.71765972  0.87506260  0.23576694  1
  O  O220  1  0.71326656  0.87016237  0.57534038  1
  O  O221  1  0.71922649  0.86746959  0.90579120  1
  O  O222  1  0.42804588  0.13226126  0.15191330  1
  O  O223  1  0.42185330  0.13488921  0.47959674  1
  O  O224  1  0.41638094  0.13580408  0.81913106  1
  O  O225  1  0.40762602  0.63604918  0.14753160  1
  O  O226  1  0.41682866  0.63616014  0.48547878  1
  O  O227  1  0.41530013  0.63503517  0.81971266  1
  O  O228  1  0.92056989  0.13167928  0.15177867  1
  O  O229  1  0.92255039  0.12794940  0.48482389  1
  O  O230  1  0.92016608  0.13244090  0.81839782  1
  O  O231  1  0.91271058  0.63510234  0.15429683  1
  O  O232  1  0.92544286  0.63339651  0.48446761  1
  O  O233  1  0.90914167  0.63320832  0.81369590  1
  O  O234  1  0.37542936  0.06471470  0.01947309  1
  O  O235  1  0.36318712  0.08987500  0.34304156  1
  O  O236  1  0.36716398  0.08305530  0.68204634  1
  O  O237  1  0.36593935  0.58693316  0.01167648  1
  O  O238  1  0.35984011  0.59218907  0.34960893  1
  O  O239  1  0.35955382  0.58830383  0.68323517  1
  O  O240  1  0.87627748  0.07714969  0.01601249  1
  O  O241  1  0.86978631  0.07682781  0.34936295  1
  O  O242  1  0.87021734  0.07715904  0.68299536  1
  O  O243  1  0.86586642  0.58105433  0.01759804  1
  O  O244  1  0.87727625  0.57603321  0.35036892  1
  O  O245  1  0.86209348  0.58564356  0.67793053  1
  O  O246  1  0.08223477  0.36339592  0.18481134  1
  O  O247  1  0.08496155  0.36321909  0.51439507  1
  O  O248  1  0.07999894  0.36757757  0.84727870  1
  O  O249  1  0.07582077  0.86592412  0.18322915  1
  O  O250  1  0.07931871  0.87212194  0.51796595  1
  O  O251  1  0.07239413  0.87435942  0.84690650  1
  O  O252  1  0.59576129  0.36899882  0.18291466  1
  O  O253  1  0.59244191  0.37220727  0.52245063  1
  O  O254  1  0.58101035  0.37563140  0.85161554  1
  O  O255  1  0.57969922  0.85917702  0.18083284  1
  O  O256  1  0.57499567  0.86561168  0.51146801  1
  O  O257  1  0.58105811  0.86571910  0.84757317  1
  O  O258  1  0.11590770  0.41251425  0.31966139  1
  O  O259  1  0.12856139  0.41911708  0.64980807  1
  O  O260  1  0.13045846  0.42238525  0.98199507  1
  O  O261  1  0.12913893  0.91909827  0.31851007  1
  O  O262  1  0.12994399  0.92199311  0.65471616  1
  O  O263  1  0.12690432  0.92982607  0.98228733  1
  O  O264  1  0.64262861  0.40506132  0.31890419  1
  O  O265  1  0.63931572  0.41476872  0.65817417  1
  O  O266  1  0.63819645  0.41510330  0.98648244  1
  O  O267  1  0.63329476  0.91914083  0.31657697  1
  O  O268  1  0.62284343  0.92258942  0.64625086  1
  O  O269  1  0.63591388  0.91538864  0.98474238  1
  O  O270  1  0.03680185  0.20298812  0.10467580  1
  O  O271  1  0.03106122  0.19592496  0.43855321  1
  O  O272  1  0.03083985  0.20215498  0.77160534  1
  O  O273  1  0.02600555  0.69775685  0.10571494  1
  O  O274  1  0.03023423  0.71445486  0.44253661  1
  O  O275  1  0.02715283  0.70118322  0.76935625  1
  O  O276  1  0.53233618  0.18658196  0.10035346  1
  O  O277  1  0.53934332  0.19844534  0.43039470  1
  O  O278  1  0.52961741  0.19835795  0.76633380  1
  O  O279  1  0.52897732  0.69238828  0.09710929  1
  O  O280  1  0.52345149  0.70699982  0.44401166  1
  O  O281  1  0.52573729  0.69878780  0.76876913  1
  O  O282  1  0.29582734  0.47572679  0.05296098  1
  O  O283  1  0.30861096  0.47532860  0.40609192  1
  O  O284  1  0.29914559  0.47121576  0.72914990  1
  O  O285  1  0.29360266  0.95802485  0.05526980  1
  O  O286  1  0.30207911  0.96083804  0.40199561  1
  O  O287  1  0.29781816  0.97260045  0.73058981  1
  O  O288  1  0.80316006  0.46813964  0.06362002  1
  O  O289  1  0.81864112  0.46077661  0.39962682  1
  O  O290  1  0.80670483  0.47453851  0.73363419  1
  O  O291  1  0.80010984  0.96926307  0.06188470  1
  O  O292  1  0.79551742  0.96906000  0.39297449  1
  O  O293  1  0.79395823  0.96978909  0.72621510  1
  O  O294  1  0.48100647  0.29383194  0.22432021  1
  O  O295  1  0.47515351  0.30296002  0.56973534  1
  O  O296  1  0.47116164  0.29754399  0.89007568  1
  O  O297  1  0.46716595  0.80377335  0.23439657  1
  O  O298  1  0.46857863  0.80043966  0.56266071  1
  O  O299  1  0.47310889  0.79902037  0.89701126  1
  O  O300  1  0.96414781  0.29605761  0.22695389  1
  O  O301  1  0.97210441  0.29884008  0.56331320  1
  O  O302  1  0.97072968  0.30014906  0.89410268  1
  O  O303  1  0.96381900  0.80215319  0.22821831  1
  O  O304  1  0.96460496  0.80213433  0.56282200  1
  O  O305  1  0.95658300  0.80617612  0.89310850  1
  O  O306  1  0.17935634  0.02867036  0.26688109  1
  O  O307  1  0.20026740  0.03099531  0.60514737  1
  O  O308  1  0.20380596  0.04217639  0.94036392  1
  O  O309  1  0.18405995  0.53365773  0.26515836  1
  O  O310  1  0.19390588  0.53475713  0.61157280  1
  O  O311  1  0.20507054  0.52581833  0.93496022  1
  O  O312  1  0.69986407  0.03632605  0.26835141  1
  O  O313  1  0.70115821  0.03297380  0.60260520  1
  O  O314  1  0.70347634  0.02911087  0.93387591  1
  O  O315  1  0.71090808  0.52089270  0.26734728  1
  O  O316  1  0.70076765  0.52561660  0.60940966  1
  O  O317  1  0.70238282  0.53034493  0.93904672  1
  O  O318  1  0.09642889  0.09597059  0.04158580  1
  O  O319  1  0.08447470  0.08196919  0.37482046  1
  O  O320  1  0.08490073  0.08937027  0.70924600  1
  O  O321  1  0.08228883  0.58542189  0.04021180  1
  O  O322  1  0.07142386  0.59369905  0.38050174  1
  O  O323  1  0.08157528  0.59043599  0.70545176  1
  O  O324  1  0.58699174  0.08178317  0.02979034  1
  O  O325  1  0.58792987  0.08855726  0.35738893  1
  O  O326  1  0.58628911  0.09020987  0.69788365  1
  O  O327  1  0.58632281  0.58452620  0.03152303  1
  O  O328  1  0.55976107  0.58091956  0.38161657  1
  O  O329  1  0.58566855  0.58979437  0.70645376  1
  O  O330  1  0.42591069  0.45823446  0.12719551  1
  O  O331  1  0.41366448  0.42057653  0.47667400  1
  O  O332  1  0.40986852  0.41447364  0.79415796  1
  O  O333  1  0.41145302  0.90951275  0.11902449  1
  O  O334  1  0.40949199  0.90214609  0.46957491  1
  O  O335  1  0.40456729  0.90867379  0.78884749  1
  O  O336  1  0.91782349  0.41600845  0.12753964  1
  O  O337  1  0.92819826  0.41342094  0.47390932  1
  O  O338  1  0.91678092  0.41774166  0.79812581  1
  O  O339  1  0.91129833  0.91323228  0.12808794  1
  O  O340  1  0.90628894  0.91354760  0.45558889  1
  O  O341  1  0.90482390  0.91141200  0.78607811  1
  O  O342  1  0.42057613  0.40654436  0.27075975  1
  O  O343  1  0.41640262  0.41096124  0.63244149  1
  O  O344  1  0.41802730  0.41309021  0.95120689  1
  O  O345  1  0.40425542  0.90536806  0.30193385  1
  O  O346  1  0.41505692  0.91034574  0.62977082  1
  O  O347  1  0.41810803  0.90947848  0.96378464  1
  O  O348  1  0.91563668  0.40816381  0.29857060  1
  O  O349  1  0.91947935  0.41214279  0.63036856  1
  O  O350  1  0.91834194  0.41367786  0.95921285  1
  O  O351  1  0.91614037  0.91774307  0.29604184  1
  O  O352  1  0.90895779  0.91127664  0.63107145  1
  O  O353  1  0.90826251  0.91401529  0.96948267  1
  O  O354  1  0.07413807  0.07597839  0.18805706  1
  O  O355  1  0.09069160  0.08544365  0.53638638  1
  O  O356  1  0.09023389  0.09059956  0.86844241  1
  O  O357  1  0.07642095  0.58514473  0.19406665  1
  O  O358  1  0.07951706  0.58457156  0.54339802  1
  O  O359  1  0.08544242  0.56829812  0.87165269  1
  O  O360  1  0.59418476  0.09740176  0.20104315  1
  O  O361  1  0.59510870  0.09741823  0.54337876  1
  O  O362  1  0.59888840  0.09569511  0.87536376  1
  O  O363  1  0.59606160  0.57529004  0.21355960  1
  O  O364  1  0.58481375  0.57465206  0.54401340  1
  O  O365  1  0.59119901  0.58430285  0.87319497  1
  O  O366  1  0.14482335  0.23055789  0.06070496  1
  O  O367  1  0.14079255  0.21546637  0.39607980  1
  O  O368  1  0.13970620  0.22170899  0.72701335  1
  O  O369  1  0.12905176  0.71958760  0.05633443  1
  O  O370  1  0.13551785  0.72031477  0.39140558  1
  O  O371  1  0.13670673  0.72377473  0.72697842  1
  O  O372  1  0.64072282  0.21783644  0.05956798  1
  O  O373  1  0.64924067  0.22262604  0.38931145  1
  O  O374  1  0.63967339  0.22547774  0.72717728  1
  O  O375  1  0.63750146  0.72006086  0.05506172  1
  O  O376  1  0.62618571  0.70567877  0.38958066  1
  O  O377  1  0.63441026  0.72506361  0.72699090  1
  O  O378  1  0.31091636  0.36649660  0.10065590  1
  O  O379  1  0.27795970  0.36580952  0.44527073  1
  O  O380  1  0.27606349  0.36305502  0.77273447  1
  O  O381  1  0.28257692  0.86910704  0.12226297  1
  O  O382  1  0.27317862  0.85860099  0.45006512  1
  O  O383  1  0.26985061  0.86328755  0.77075703  1
  O  O384  1  0.78588326  0.35970476  0.10953609  1
  O  O385  1  0.79439866  0.35740597  0.44983294  1
  O  O386  1  0.78276803  0.36415751  0.77543740  1
  O  O387  1  0.77698319  0.86268505  0.10744316  1
  O  O388  1  0.77312958  0.85888719  0.43558343  1
  O  O389  1  0.77134794  0.86130592  0.76943190  1
  O  O390  1  0.36759765  0.27657622  0.26220884  1
  O  O391  1  0.36394696  0.27654114  0.60892021  1
  O  O392  1  0.36621015  0.28280145  0.94052166  1
  O  O393  1  0.35566398  0.76838870  0.26894425  1
  O  O394  1  0.35874431  0.77709966  0.60605438  1
  O  O395  1  0.36033033  0.77640981  0.93484617  1
  O  O396  1  0.86287209  0.27343672  0.27755691  1
  O  O397  1  0.86486618  0.27792725  0.60869145  1
  O  O398  1  0.86293765  0.28042651  0.93889922  1
  O  O399  1  0.85796989  0.78551980  0.27659873  1
  O  O400  1  0.85872919  0.77610952  0.60829923  1
  O  O401  1  0.85628774  0.77904461  0.94412827  1
  O  O402  1  0.20976470  0.13587267  0.22401366  1
  O  O403  1  0.22511894  0.13743564  0.55996159  1
  O  O404  1  0.22382118  0.14548184  0.89058724  1
  O  O405  1  0.21121588  0.64012176  0.21827557  1
  O  O406  1  0.21135106  0.63692170  0.55897437  1
  O  O407  1  0.21263249  0.63459949  0.88763399  1
  O  O408  1  0.73146457  0.13877980  0.22192311  1
  O  O409  1  0.73073828  0.14102341  0.56146079  1
  O  O410  1  0.73453763  0.13462695  0.89032360  1
  O  O411  1  0.72551478  0.63345892  0.22749522  1
  O  O412  1  0.71409336  0.63491991  0.56374177  1
  O  O413  1  0.72447489  0.63900215  0.89499512  1
  O  O414  1  0.49870485  0.33897728  0.02479558  1
  O  O415  1  0.49090084  0.34196590  0.35763903  1
  O  O416  1  0.49223463  0.33225443  0.70178631  1
  O  O417  1  0.49025141  0.82468848  0.02853729  1
  O  O418  1  0.48235046  0.82202071  0.36427788  1
  O  O419  1  0.48914752  0.82740077  0.69512024  1
  O  O420  1  0.99333257  0.33549236  0.02815006  1
  O  O421  1  0.99427124  0.32725425  0.36235727  1
  O  O422  1  0.99512376  0.33092004  0.69661421  1
  O  O423  1  0.98976368  0.83074169  0.02714880  1
  O  O424  1  0.99008566  0.83757892  0.36331850  1
  O  O425  1  0.98931580  0.83281861  0.69653932  1
  O  O426  1  0.16507151  0.00342643  0.13521437  1
  O  O427  1  0.17110710  0.00626978  0.47168415  1
  O  O428  1  0.17114449  0.01247535  0.80570916  1
  O  O429  1  0.15904569  0.50792136  0.13184041  1
  O  O430  1  0.15479355  0.50273184  0.47587555  1
  O  O431  1  0.16710801  0.50341525  0.80029549  1
  O  O432  1  0.66764977  0.01023862  0.13446545  1
  O  O433  1  0.66703794  0.01430456  0.46968310  1
  O  O434  1  0.66686771  0.00939698  0.80056651  1
  O  O435  1  0.66975555  0.50599453  0.13419907  1
  O  O436  1  0.66991733  0.50211054  0.47682295  1
  O  O437  1  0.67268882  0.50891713  0.80617050  1
  O  O438  1  0.01096964  0.16080993  0.30493123  1
  O  O439  1  0.00993392  0.16759920  0.63808106  1
  O  O440  1  0.01483264  0.17183603  0.97243633  1
  O  O441  1  0.00378471  0.67205598  0.30617697  1
  O  O442  1  0.00612941  0.66972427  0.63626405  1
  O  O443  1  -0.00173708  0.65743461  0.97065331  1
  O  O444  1  0.51822483  0.17701382  0.29846134  1
  O  O445  1  0.50991507  0.17238621  0.63364024  1
  O  O446  1  0.51104160  0.16815633  0.96987169  1
  O  O447  1  0.49266792  0.65912100  0.30652777  1
  O  O448  1  0.50653596  0.66612776  0.63592338  1
  O  O449  1  0.50847505  0.66222990  0.96340265  1
  O  O450  1  0.32410994  0.49820249  0.18513217  1
  O  O451  1  0.32653720  0.49426208  0.53763678  1
  O  O452  1  0.33206422  0.49372966  0.86176047  1
  O  O453  1  0.34761695  1.00296564  0.19155279  1
  O  O454  1  0.33673313  0.98836804  0.53641521  1
  O  O455  1  0.33219623  0.98953685  0.86305296  1
  O  O456  1  0.83869961  0.49057701  0.19774581  1
  O  O457  1  0.84291808  0.49101079  0.53306861  1
  O  O458  1  0.83723148  0.49369356  0.86628268  1
  O  O459  1  0.83351511  0.99296942  0.19541177  1
  O  O460  1  0.82798477  0.98853355  0.52586523  1
  O  O461  1  0.83065510  0.98972530  0.85988740  1
