# generated using pymatgen
data_Na31Fe20(SO4)36
_symmetry_space_group_name_H-M   'P 1'
_cell_length_a   18.08490067
_cell_length_b   18.08869445
_cell_length_c   19.70802624
_cell_angle_alpha   107.59333332
_cell_angle_beta   107.56971327
_cell_angle_gamma   90.75802702
_symmetry_Int_Tables_number   1
_chemical_formula_structural   Na31Fe20(SO4)36
_chemical_formula_sum   'Na62 Fe40 S72 O288'
_cell_volume   5820.03896575
_cell_formula_units_Z   2
loop_
 _symmetry_equiv_pos_site_id
 _symmetry_equiv_pos_as_xyz
  1  'x, y, z'
loop_
 _atom_site_type_symbol
 _atom_site_label
 _atom_site_symmetry_multiplicity
 _atom_site_fract_x
 _atom_site_fract_y
 _atom_site_fract_z
 _atom_site_occupancy
  Na  Na0  1  0.13241170  0.36611492  0.08126589  1
  Na  Na1  1  0.13544240  0.36695932  0.41646137  1
  Na  Na2  1  0.12745341  0.37173498  0.74968601  1
  Na  Na3  1  0.13351452  0.85915141  0.06859315  1
  Na  Na4  1  0.13941478  0.86124747  0.42013405  1
  Na  Na5  1  0.13114691  0.85991406  0.74783798  1
  Na  Na6  1  0.63648198  0.37692969  0.08736111  1
  Na  Na7  1  0.66199814  0.38052500  0.44135122  1
  Na  Na8  1  0.63363470  0.37460643  0.75472196  1
  Na  Na9  1  0.60695795  0.79865604  0.03287654  1
  Na  Na10  1  0.64794790  0.87364770  0.43153215  1
  Na  Na11  1  0.63908569  0.85149809  0.75578876  1
  Na  Na12  1  0.36914474  0.13096139  0.24847548  1
  Na  Na13  1  0.36817731  0.13102814  0.58304162  1
  Na  Na14  1  0.37240675  0.12969829  0.91359058  1
  Na  Na15  1  0.37110092  0.63641354  0.25612472  1
  Na  Na16  1  0.36668525  0.65598104  0.60837976  1
  Na  Na17  1  0.37669210  0.64297257  0.91810798  1
  Na  Na18  1  0.86287521  0.13243622  0.24755778  1
  Na  Na19  1  0.86016796  0.12948761  0.58303140  1
  Na  Na20  1  0.86154805  0.13275040  0.91397460  1
  Na  Na21  1  0.86410271  0.63222240  0.24753038  1
  Na  Na22  1  0.85443167  0.63187515  0.57604978  1
  Na  Na23  1  0.84803607  0.66233315  0.91983288  1
  Na  Na24  1  0.98905633  0.51512881  0.07221639  1
  Na  Na25  1  0.99193776  0.00520451  0.41481691  1
  Na  Na26  1  0.54313810  0.49086401  0.37299381  1
  Na  Na27  1  0.49061333  0.00667937  0.41409895  1
  Na  Na28  1  0.52760391  -0.02382051  0.06179994  1
  Na  Na29  1  0.99571844  0.51068106  0.42844848  1
  Na  Na30  1  0.51796760  -0.04265078  0.80905485  1
  Na  Na31  1  0.48416949  0.51323051  0.08756539  1
  Na  Na32  1  0.94734866  0.00344949  0.74045026  1
  Na  Na33  1  0.51359108  0.95391509  0.22990252  1
  Na  Na34  1  0.51837402  0.98637065  0.59797438  1
  Na  Na35  1  -0.02269156  0.55262124  0.86564366  1
  Na  Na36  1  0.48009271  0.50749920  0.60113436  1
  Na  Na37  1  -0.00134214  0.98730850  0.58734408  1
  Na  Na38  1  -0.04305497  0.51726547  0.63880518  1
  Na  Na39  1  0.00830504  0.99064639  0.23044937  1
  Na  Na40  1  0.00348421  0.97904507  0.92875095  1
  Na  Na41  1  0.03701546  0.48907017  0.26213170  1
  Na  Na42  1  0.74462219  0.74415864  0.33943041  1
  Na  Na43  1  0.26023580  0.75699820  -0.01143176  1
  Na  Na44  1  0.74242820  0.74263391  0.67776793  1
  Na  Na45  1  0.76006214  0.26147804  -0.01327525  1
  Na  Na46  1  0.25607459  0.25450151  -0.00558058  1
  Na  Na47  1  0.24145011  0.73452980  0.34130909  1
  Na  Na48  1  0.74165093  0.24875238  0.68089035  1
  Na  Na49  1  0.75809908  0.26111468  0.33210099  1
  Na  Na50  1  0.25872373  0.25512882  0.32774045  1
  Na  Na51  1  0.25858417  0.25511186  0.66387736  1
  Na  Na52  1  0.25244376  0.25330145  0.49467671  1
  Na  Na53  1  0.25475829  0.25872644  0.16327269  1
  Na  Na54  1  0.25855240  0.75535457  0.15757366  1
  Na  Na55  1  0.75567558  0.25334089  0.50362942  1
  Na  Na56  1  0.24012513  0.73315539  0.51636401  1
  Na  Na57  1  0.75488578  0.25890834  0.16166744  1
  Na  Na58  1  0.73981011  0.73958104  0.50753248  1
  Na  Na59  1  0.28544915  0.76456339  0.80823759  1
  Na  Na60  1  0.25073457  0.25347095  0.82949933  1
  Na  Na61  1  0.75092215  0.74742022  0.15485277  1
  Fe  Fe62  1  0.96008391  0.31825776  0.78953524  1
  Fe  Fe63  1  0.96585067  0.30958538  0.45822712  1
  Fe  Fe64  1  0.46675315  0.31232711  0.12570400  1
  Fe  Fe65  1  0.46678046  0.80845148  0.45200298  1
  Fe  Fe66  1  0.46802427  0.30645459  0.45533403  1
  Fe  Fe67  1  0.96296218  0.80166791  0.11212892  1
  Fe  Fe68  1  0.46900765  0.30971025  0.79098634  1
  Fe  Fe69  1  0.96609496  0.30583767  0.12024970  1
  Fe  Fe70  1  0.96489960  0.80770228  0.45203315  1
  Fe  Fe71  1  0.96671261  0.79933799  0.78965093  1
  Fe  Fe72  1  0.69525479  0.03213990  0.38031469  1
  Fe  Fe73  1  0.19058926  0.03717325  0.71493904  1
  Fe  Fe74  1  0.18823832  0.53726399  0.71425955  1
  Fe  Fe75  1  0.70391597  0.03246831  0.71557699  1
  Fe  Fe76  1  0.18602296  0.53652661  0.04336157  1
  Fe  Fe77  1  0.19260797  0.03878162  0.04848730  1
  Fe  Fe78  1  0.19448452  0.03283076  0.38113536  1
  Fe  Fe79  1  0.69467292  0.53559067  0.70775380  1
  Fe  Fe80  1  0.66746254  0.54762518  0.02613481  1
  Fe  Fe81  1  0.69379934  0.03228241  0.04540825  1
  Fe  Fe82  1  0.53264642  0.69397598  0.55060960  1
  Fe  Fe83  1  0.53171493  0.69936429  0.21025050  1
  Fe  Fe84  1  0.03542855  0.69098640  0.21498704  1
  Fe  Fe85  1  0.53639987  0.18987572  0.21233300  1
  Fe  Fe86  1  0.03842308  0.69381578  0.55315953  1
  Fe  Fe87  1  0.53950239  0.18867451  0.87953395  1
  Fe  Fe88  1  0.03566076  0.19211952  0.55047987  1
  Fe  Fe89  1  0.03489173  0.18958232  0.21388642  1
  Fe  Fe90  1  0.03086114  0.19466584  0.88066234  1
  Fe  Fe91  1  0.53567981  0.19327812  0.55098350  1
  Fe  Fe92  1  0.30283488  0.47025023  0.29362367  1
  Fe  Fe93  1  0.30539558  0.97299329  0.94977207  1
  Fe  Fe94  1  0.81313586  0.96189598  0.95930275  1
  Fe  Fe95  1  0.80919295  0.96172237  0.28396608  1
  Fe  Fe96  1  0.80380502  0.46553677  0.94865315  1
  Fe  Fe97  1  0.30657406  0.96215193  0.28064358  1
  Fe  Fe98  1  0.31307018  0.96265279  0.62195172  1
  Fe  Fe99  1  0.79780150  0.47299304  0.28842910  1
  Fe  Fe100  1  0.30309291  0.46600225  0.62285608  1
  Fe  Fe101  1  0.30511737  0.46547027  0.95377728  1
  S  S102  1  0.35895859  0.14594574  0.08591009  1
  S  S103  1  0.36181808  0.13732692  0.41599861  1
  S  S104  1  0.36160545  0.14124727  0.74978910  1
  S  S105  1  0.35603351  0.63922061  0.08669694  1
  S  S106  1  0.35935603  0.64482919  0.41520435  1
  S  S107  1  0.35941448  0.63331175  0.74896607  1
  S  S108  1  0.85928345  0.13999512  0.08583775  1
  S  S109  1  0.86235418  0.13798029  0.41604122  1
  S  S110  1  0.85958915  0.14727927  0.75147682  1
  S  S111  1  0.86105211  0.63498643  0.08356219  1
  S  S112  1  0.86120953  0.64227212  0.41650902  1
  S  S113  1  0.85477524  0.64372674  0.75008294  1
  S  S114  1  0.14079970  0.35366039  0.24984356  1
  S  S115  1  0.14114853  0.35652304  0.58520447  1
  S  S116  1  0.13810013  0.35782819  0.91786500  1
  S  S117  1  0.14189387  0.85824491  0.25108146  1
  S  S118  1  0.13858563  0.86341106  0.58115389  1
  S  S119  1  0.13980335  0.86676889  0.91585399  1
  S  S120  1  0.63926869  0.35687453  0.25190519  1
  S  S121  1  0.64072071  0.35854040  0.58428644  1
  S  S122  1  0.64244343  0.35797762  0.91828805  1
  S  S123  1  0.64655979  0.85702768  0.24828945  1
  S  S124  1  0.64011967  0.86287951  0.58269298  1
  S  S125  1  0.64378147  0.86399463  0.91919098  1
  S  S126  1  0.06593214  0.17089292  0.04324058  1
  S  S127  1  0.06635486  0.16296426  0.37451759  1
  S  S128  1  0.06488356  0.16662284  0.70894209  1
  S  S129  1  0.06320020  0.67003188  0.04386125  1
  S  S130  1  0.06329204  0.66999036  0.37793345  1
  S  S131  1  0.06472249  0.67008438  0.70945769  1
  S  S132  1  0.56860956  0.17304062  0.04517419  1
  S  S133  1  0.56931674  0.16721074  0.37552459  1
  S  S134  1  0.57075684  0.16886080  0.70996805  1
  S  S135  1  0.55334230  0.64956818  0.03749272  1
  S  S136  1  0.57173731  0.68114296  0.37534173  1
  S  S137  1  0.56883788  0.66516182  0.70345076  1
  S  S138  1  0.32527601  0.43081463  0.12532214  1
  S  S139  1  0.32954746  0.42619281  0.45873270  1
  S  S140  1  0.32381709  0.42404829  0.79018524  1
  S  S141  1  0.32894615  0.93919752  0.12157508  1
  S  S142  1  0.33057790  0.93418846  0.45601175  1
  S  S143  1  0.32063813  0.93763004  0.78340660  1
  S  S144  1  0.83631771  0.42994960  0.12799285  1
  S  S145  1  0.84301471  0.43534000  0.45950593  1
  S  S146  1  0.82620069  0.43912595  0.78965179  1
  S  S147  1  0.82826837  0.92863477  0.12656148  1
  S  S148  1  0.83694923  0.93703898  0.45749598  1
  S  S149  1  0.83340714  0.93391416  0.79528706  1
  S  S150  1  0.43170299  0.32910783  0.29210267  1
  S  S151  1  0.42919925  0.32390499  0.62281006  1
  S  S152  1  0.43100801  0.32740768  0.95966601  1
  S  S153  1  0.43731356  0.83526760  0.29114194  1
  S  S154  1  0.43667449  0.83659495  0.62333358  1
  S  S155  1  0.42296744  0.84147220  0.95170007  1
  S  S156  1  0.93599045  0.32890952  0.29215357  1
  S  S157  1  0.93157632  0.32138498  0.62219387  1
  S  S158  1  0.93247434  0.33106113  0.95939678  1
  S  S159  1  0.93731975  0.83020259  0.28940758  1
  S  S160  1  0.93554139  0.82733841  0.62299014  1
  S  S161  1  0.93815715  0.84289345  0.96819207  1
  S  S162  1  0.17044702  0.06589952  0.21048614  1
  S  S163  1  0.16784505  0.06755394  0.54161952  1
  S  S164  1  0.16510487  0.07292575  0.87408470  1
  S  S165  1  0.16658303  0.56227966  0.20697003  1
  S  S166  1  0.16754831  0.56130007  0.54048156  1
  S  S167  1  0.17602032  0.56758579  0.88070361  1
  S  S168  1  0.67276611  0.06809898  0.21274162  1
  S  S169  1  0.66721842  0.07082351  0.54244097  1
  S  S170  1  0.67547147  0.06986442  0.87745312  1
  S  S171  1  0.67103443  0.57368255  0.20252364  1
  S  S172  1  0.66399238  0.56789591  0.54034158  1
  S  S173  1  0.66864918  0.56697001  0.87224056  1
  O  O174  1  0.36709051  0.22760718  0.08320346  1
  O  O175  1  0.37089791  0.21629370  0.40825388  1
  O  O176  1  0.37229605  0.22023593  0.74183995  1
  O  O177  1  0.35838610  0.71581853  0.07709473  1
  O  O178  1  0.37509500  0.71957342  0.39898877  1
  O  O179  1  0.36155744  0.70591996  0.73074787  1
  O  O180  1  0.86749075  0.21996785  0.07899231  1
  O  O181  1  0.87233723  0.21697661  0.40830566  1
  O  O182  1  0.86965062  0.22875527  0.74891867  1
  O  O183  1  0.86873681  0.71543112  0.07924900  1
  O  O184  1  0.87310698  0.72068802  0.40598382  1
  O  O185  1  0.86467478  0.72645443  0.74905551  1
  O  O186  1  0.28102751  0.13623766  0.09672285  1
  O  O187  1  0.28289051  0.12899272  0.42482187  1
  O  O188  1  0.28316650  0.13535741  0.75990697  1
  O  O189  1  0.27891909  0.62325440  0.09765836  1
  O  O190  1  0.28068339  0.64316553  0.42087373  1
  O  O191  1  0.27777123  0.62128920  0.75535521  1
  O  O192  1  0.78148918  0.13095963  0.09688090  1
  O  O193  1  0.78348325  0.12989670  0.42444623  1
  O  O194  1  0.77940568  0.13594782  0.75489240  1
  O  O195  1  0.78391372  0.62029795  0.09135518  1
  O  O196  1  0.78603115  0.63697626  0.42883404  1
  O  O197  1  0.76889650  0.63195484  0.74378441  1
  O  O198  1  0.13288516  0.27181207  0.25346444  1
  O  O199  1  0.13310832  0.27868796  0.59679434  1
  O  O200  1  0.12751662  0.28036145  0.92946772  1
  O  O201  1  0.13304004  0.77985739  0.26007155  1
  O  O202  1  0.13320772  0.78347184  0.58600935  1
  O  O203  1  0.13819585  0.79480794  0.93431327  1
  O  O204  1  0.63151835  0.27304602  0.25079169  1
  O  O205  1  0.62699874  0.28166877  0.59655029  1
  O  O206  1  0.62967500  0.28028156  0.92877012  1
  O  O207  1  0.63258720  0.77797816  0.25505897  1
  O  O208  1  0.62720584  0.78302854  0.58806287  1
  O  O209  1  0.63406539  0.78866786  0.92846265  1
  O  O210  1  0.22172269  0.36491225  0.24640039  1
  O  O211  1  0.22151344  0.36440737  0.57919425  1
  O  O212  1  0.21882736  0.36343754  0.91285965  1
  O  O213  1  0.21992222  0.86606231  0.24024710  1
  O  O214  1  0.21522081  0.87602631  0.56937349  1
  O  O215  1  0.21502967  0.88212450  0.90310389  1
  O  O216  1  0.71898366  0.36809233  0.24476188  1
  O  O217  1  0.71561493  0.36262702  0.57135966  1
  O  O218  1  0.72208234  0.36327411  0.91181314  1
  O  O219  1  0.73012403  0.86325930  0.25025256  1
  O  O220  1  0.71262009  0.86924442  0.56582725  1
  O  O221  1  0.72504682  0.87792971  0.91543470  1
  O  O222  1  0.41938928  0.13484065  0.15129756  1
  O  O223  1  0.42114770  0.12791010  0.48322931  1
  O  O224  1  0.42150663  0.13296900  0.81690854  1
  O  O225  1  0.41770061  0.63534988  0.15663605  1
  O  O226  1  0.41733347  0.63944530  0.48446057  1
  O  O227  1  0.41603255  0.63064562  0.81764399  1
  O  O228  1  0.91952640  0.13286136  0.15369918  1
  O  O229  1  0.92158945  0.12804461  0.48302049  1
  O  O230  1  0.91634363  0.13840167  0.82181476  1
  O  O231  1  0.92209900  0.62672506  0.15154754  1
  O  O232  1  0.92460126  0.63092115  0.48040198  1
  O  O233  1  0.90254549  0.63636764  0.82167288  1
  O  O234  1  0.36279670  0.09173241  0.01451104  1
  O  O235  1  0.36957017  0.07829024  0.34786468  1
  O  O236  1  0.36587594  0.08231437  0.68024814  1
  O  O237  1  0.36764144  0.57733746  0.02177762  1
  O  O238  1  0.36618060  0.58048153  0.34877945  1
  O  O239  1  0.36831427  0.56877268  0.68179658  1
  O  O240  1  0.86541238  0.08237238  0.01716658  1
  O  O241  1  0.87052298  0.07924225  0.34780362  1
  O  O242  1  0.87314881  0.09117553  0.68641437  1
  O  O243  1  0.87265877  0.57834810  0.01581356  1
  O  O244  1  0.86495779  0.58302017  0.34578905  1
  O  O245  1  0.87042906  0.59074198  0.68473361  1
  O  O246  1  0.08462551  0.36025560  0.17891568  1
  O  O247  1  0.08495538  0.35753470  0.51324956  1
  O  O248  1  0.08189925  0.36165962  0.84684911  1
  O  O249  1  0.08123435  0.86957481  0.18621881  1
  O  O250  1  0.07658127  0.87412077  0.51517838  1
  O  O251  1  0.07691231  0.86731409  0.84633717  1
  O  O252  1  0.58165824  0.36715693  0.18366689  1
  O  O253  1  0.57798382  0.36549795  0.51746939  1
  O  O254  1  0.58407393  0.36233244  0.84821867  1
  O  O255  1  0.59474613  0.86739227  0.17984696  1
  O  O256  1  0.57429315  0.87856881  0.52155456  1
  O  O257  1  0.58908902  0.87396071  0.85134359  1
  O  O258  1  0.12714692  0.40929387  0.31458151  1
  O  O259  1  0.13013043  0.41733560  0.64980294  1
  O  O260  1  0.12832553  0.41887898  0.98316143  1
  O  O261  1  0.13794018  0.91739541  0.32152795  1
  O  O262  1  0.12926809  0.92059166  0.64973562  1
  O  O263  1  0.12774567  0.93233624  0.97968895  1
  O  O264  1  0.63101128  0.40861162  0.32113268  1
  O  O265  1  0.63614569  0.42027548  0.65307933  1
  O  O266  1  0.63565388  0.41921717  0.98502801  1
  O  O267  1  0.63582500  0.91637965  0.31648905  1
  O  O268  1  0.63920118  0.92068527  0.65532994  1
  O  O269  1  0.63372186  0.92644669  0.98757814  1
  O  O270  1  0.02856997  0.19891940  0.10381640  1
  O  O271  1  0.03370143  0.19326214  0.43751654  1
  O  O272  1  0.03040577  0.19665857  0.77044063  1
  O  O273  1  0.03236414  0.70313172  0.11033364  1
  O  O274  1  0.03068898  0.70885267  0.44020972  1
  O  O275  1  0.02875685  0.69971153  0.76901625  1
  O  O276  1  0.52639334  0.20148671  0.10219473  1
  O  O277  1  0.53294707  0.19701899  0.43666991  1
  O  O278  1  0.53337654  0.19762684  0.77070388  1
  O  O279  1  0.53014154  0.68696135  0.10563287  1
  O  O280  1  0.53376921  0.71015377  0.43561007  1
  O  O281  1  0.54289163  0.69116224  0.76709444  1
  O  O282  1  0.29434538  0.46507189  0.06328748  1
  O  O283  1  0.30652571  0.45900850  0.39693107  1
  O  O284  1  0.29265065  0.45934847  0.72927535  1
  O  O285  1  0.29235969  0.97606756  0.06158473  1
  O  O286  1  0.30071134  0.97000414  0.39406594  1
  O  O287  1  0.28724114  0.97682822  0.72264465  1
  O  O288  1  0.81698190  0.46113705  0.06467812  1
  O  O289  1  0.81639975  0.46092018  0.39234412  1
  O  O290  1  0.79503169  0.47803145  0.73215462  1
  O  O291  1  0.80154286  0.96821645  0.06813506  1
  O  O292  1  0.80383377  0.97053932  0.39362008  1
  O  O293  1  0.80985752  0.97701063  0.73999109  1
  O  O294  1  0.46969562  0.29916550  0.23214933  1
  O  O295  1  0.46529195  0.29200799  0.56140727  1
  O  O296  1  0.46824264  0.30057827  0.89944446  1
  O  O297  1  0.47667583  0.80676909  0.23385656  1
  O  O298  1  0.46665117  0.79949410  0.55781266  1
  O  O299  1  0.43669858  0.82082970  0.87994749  1
  O  O300  1  0.97232669  0.29648188  0.23082454  1
  O  O301  1  0.97263876  0.29037012  0.56281939  1
  O  O302  1  0.96984079  0.30305362  0.89864292  1
  O  O303  1  0.97273804  0.79856435  0.22807742  1
  O  O304  1  0.97338015  0.79288760  0.56239897  1
  O  O305  1  0.96858280  0.82050563  0.90437187  1
  O  O306  1  0.20125019  0.02776511  0.27056731  1
  O  O307  1  0.19940465  0.03646966  0.60512121  1
  O  O308  1  0.20086677  0.04454465  0.93958515  1
  O  O309  1  0.19464938  0.52355368  0.26456723  1
  O  O310  1  0.19749462  0.52780111  0.60482251  1
  O  O311  1  0.20477849  0.52388239  0.93867805  1
  O  O312  1  0.70291934  0.02918605  0.27214173  1
  O  O313  1  0.69043228  0.03776372  0.60385635  1
  O  O314  1  0.70510580  0.03725541  0.94067208  1
  O  O315  1  0.69591068  0.52879786  0.25530019  1
  O  O316  1  0.68566870  0.53044671  0.60084519  1
  O  O317  1  0.70456803  0.52400486  0.93155201  1
  O  O318  1  0.08479901  0.08970772  0.03689062  1
  O  O319  1  0.08155391  0.07928798  0.36711193  1
  O  O320  1  0.08218233  0.08395602  0.70269291  1
  O  O321  1  0.08176605  0.58875966  0.04316768  1
  O  O322  1  0.07040662  0.58843270  0.37451353  1
  O  O323  1  0.08353789  0.58852770  0.70609116  1
  O  O324  1  0.59101991  0.09449989  0.04598694  1
  O  O325  1  0.58383778  0.08395228  0.36834021  1
  O  O326  1  0.59520193  0.09012745  0.70787492  1
  O  O327  1  0.54523127  0.56223480  0.01899625  1
  O  O328  1  0.58956409  0.60190218  0.36738973  1
  O  O329  1  0.59441862  0.58241522  0.69308861  1
  O  O330  1  0.40676601  0.41375624  0.12894158  1
  O  O331  1  0.41230779  0.40696169  0.47263356  1
  O  O332  1  0.40106617  0.39905835  0.78922555  1
  O  O333  1  0.40991823  0.92944435  0.12616875  1
  O  O334  1  0.41404629  0.92205853  0.46383327  1
  O  O335  1  0.39582033  0.91681024  0.77809437  1
  O  O336  1  0.92077746  0.41333115  0.14556357  1
  O  O337  1  0.92663051  0.41605405  0.46832530  1
  O  O338  1  0.90688419  0.41932575  0.78902033  1
  O  O339  1  0.90834192  0.90599495  0.13022894  1
  O  O340  1  0.91872627  0.91787369  0.45700041  1
  O  O341  1  0.91451204  0.91261515  0.79803045  1
  O  O342  1  0.41039478  0.40860009  0.29476569  1
  O  O343  1  0.40816923  0.40286094  0.62419143  1
  O  O344  1  0.40803566  0.40716386  0.96619798  1
  O  O345  1  0.41766221  0.91712246  0.29214487  1
  O  O346  1  0.41821001  0.91766463  0.62028817  1
  O  O347  1  0.40363633  0.92696686  0.97239609  1
  O  O348  1  0.92290395  0.41124110  0.29880675  1
  O  O349  1  0.90829760  0.39695607  0.62022564  1
  O  O350  1  0.91057152  0.41068318  0.96219637  1
  O  O351  1  0.92148571  0.91284615  0.29367827  1
  O  O352  1  0.92747345  0.90933731  0.62666192  1
  O  O353  1  0.92551775  0.92808803  0.98474858  1
  O  O354  1  0.09032543  0.08510760  0.21063711  1
  O  O355  1  0.08462242  0.08276908  0.53560268  1
  O  O356  1  0.08279519  0.08731771  0.86996856  1
  O  O357  1  0.08366468  0.57970764  0.20293288  1
  O  O358  1  0.09100475  0.59203994  0.54373698  1
  O  O359  1  0.10071287  0.59162329  0.88390669  1
  O  O360  1  0.59051784  0.08369228  0.20814856  1
  O  O361  1  0.58219813  0.08513949  0.52759717  1
  O  O362  1  0.59228526  0.08487941  0.86974190  1
  O  O363  1  0.59050062  0.59558946  0.20015664  1
  O  O364  1  0.58232175  0.58992856  0.52886582  1
  O  O365  1  0.58845390  0.57085910  0.86878133  1
  O  O366  1  0.13690739  0.22371869  0.06031309  1
  O  O367  1  0.13867842  0.21190330  0.38785687  1
  O  O368  1  0.13636046  0.21700398  0.72289415  1
  O  O369  1  0.13516905  0.71994830  0.05821356  1
  O  O370  1  0.13823101  0.71657817  0.39293068  1
  O  O371  1  0.13443528  0.72103213  0.72044050  1
  O  O372  1  0.63763487  0.22876778  0.06326510  1
  O  O373  1  0.64214956  0.21714183  0.39239384  1
  O  O374  1  0.63548724  0.22578128  0.72185257  1
  O  O375  1  0.63969742  0.67316742  0.05671435  1
  O  O376  1  0.64264803  0.73625577  0.39456308  1
  O  O377  1  0.63273870  0.71709469  0.70302814  1
  O  O378  1  0.27384605  0.35800072  0.10831039  1
  O  O379  1  0.27591084  0.35408727  0.44079678  1
  O  O380  1  0.26786028  0.35515572  0.77636404  1
  O  O381  1  0.27957927  0.86561538  0.10541443  1
  O  O382  1  0.28158632  0.86085782  0.43825759  1
  O  O383  1  0.26441535  0.87100593  0.76887683  1
  O  O384  1  0.78339714  0.35764077  0.10904448  1
  O  O385  1  0.79293459  0.36265506  0.44652093  1
  O  O386  1  0.77477747  0.36872073  0.77589020  1
  O  O387  1  0.77338511  0.86266199  0.11501610  1
  O  O388  1  0.78706571  0.86534692  0.44289520  1
  O  O389  1  0.77804196  0.86540428  0.77623116  1
  O  O390  1  0.36189097  0.27357224  0.27486945  1
  O  O391  1  0.35863180  0.26959954  0.60619684  1
  O  O392  1  0.36178071  0.27104801  0.94218325  1
  O  O393  1  0.36557201  0.78415348  0.27488681  1
  O  O394  1  0.36426715  0.78978849  0.61200188  1
  O  O395  1  0.35463515  0.78949143  0.94600618  1
  O  O396  1  0.86223384  0.27854990  0.27360611  1
  O  O397  1  0.86436433  0.26356093  0.60530449  1
  O  O398  1  0.86603393  0.27538793  0.94610387  1
  O  O399  1  0.86553531  0.78020900  0.27447174  1
  O  O400  1  0.86078871  0.77981838  0.60410001  1
  O  O401  1  0.86713849  0.79517386  0.95709704  1
  O  O402  1  0.22324533  0.13671400  0.22707610  1
  O  O403  1  0.21682659  0.13920544  0.55301760  1
  O  O404  1  0.21315629  0.14487807  0.88388364  1
  O  O405  1  0.21674244  0.63506285  0.22383825  1
  O  O406  1  0.22481330  0.62510653  0.55032608  1
  O  O407  1  0.23540335  0.63321371  0.89932115  1
  O  O408  1  0.72454344  0.14050507  0.23198577  1
  O  O409  1  0.71684675  0.14399842  0.55888784  1
  O  O410  1  0.72494465  0.14188441  0.89225561  1
  O  O411  1  0.72663494  0.64478838  0.22527967  1
  O  O412  1  0.71974006  0.63914465  0.56253449  1
  O  O413  1  0.71872550  0.63934850  0.89416436  1
  O  O414  1  0.49063227  0.33114673  0.03258142  1
  O  O415  1  0.49089689  0.33355182  0.36519174  1
  O  O416  1  0.48873864  0.32649320  0.69470425  1
  O  O417  1  0.49151105  0.84372614  0.01642715  1
  O  O418  1  0.49355002  0.84536030  0.36782147  1
  O  O419  1  0.49944071  0.84503537  0.69303104  1
  O  O420  1  0.99366041  0.33824377  0.03311405  1
  O  O421  1  0.99329840  0.32541727  0.36350549  1
  O  O422  1  0.99075056  0.32576134  0.69600405  1
  O  O423  1  1.00128952  0.83742766  0.03684052  1
  O  O424  1  0.99665237  0.83453043  0.36253828  1
  O  O425  1  0.99039606  0.82499284  0.69595988  1
  O  O426  1  0.16497184  0.00840459  0.13678553  1
  O  O427  1  0.16476043  0.00644562  0.46961038  1
  O  O428  1  0.16320436  0.01067912  0.80383479  1
  O  O429  1  0.16134027  0.50597678  0.13149949  1
  O  O430  1  0.15061046  0.49722380  0.46970293  1
  O  O431  1  0.16948822  0.50880199  0.80607201  1
  O  O432  1  0.67084762  0.01177628  0.13968975  1
  O  O433  1  0.67144795  0.01170489  0.47147325  1
  O  O434  1  0.67555491  0.00938551  0.80657872  1
  O  O435  1  0.66635551  0.52175349  0.12536082  1
  O  O436  1  0.66480335  0.51008348  0.47007073  1
  O  O437  1  0.67560190  0.51226479  0.79838586  1
  O  O438  1  0.00608716  0.16148281  0.30280878  1
  O  O439  1  0.00538659  0.16221286  0.63579011  1
  O  O440  1  0.00635997  0.16997702  0.97149347  1
  O  O441  1  0.00673649  0.67198706  0.30471952  1
  O  O442  1  0.00374209  0.66185852  0.63443591  1
  O  O443  1  0.00060482  0.66547471  0.97524544  1
  O  O444  1  0.51057793  0.16807106  0.30374059  1
  O  O445  1  0.50772864  0.15898761  0.63609336  1
  O  O446  1  0.51198847  0.16677177  0.96997270  1
  O  O447  1  0.51332205  0.68490735  0.30310334  1
  O  O448  1  0.50185023  0.65348680  0.63008701  1
  O  O449  1  0.50761976  0.67496410  0.97636831  1
  O  O450  1  0.32582945  0.48828751  0.19756099  1
  O  O451  1  0.32743189  0.48559860  0.52936370  1
  O  O452  1  0.33132269  0.48361953  0.86360863  1
  O  O453  1  0.32656651  0.99587639  0.19509320  1
  O  O454  1  0.32733714  0.99262986  0.52691251  1
  O  O455  1  0.32661991  0.99866065  0.85679588  1
  O  O456  1  0.82948756  0.48922444  0.19680316  1
  O  O457  1  0.84430354  0.49745040  0.52744173  1
  O  O458  1  0.83753615  0.49624638  0.86619329  1
  O  O459  1  0.83777108  0.99192381  0.20053626  1
  O  O460  1  0.84493107  0.99726904  0.52860167  1
  O  O461  1  0.84189402  0.99043720  0.87202214  1
