# generated using pymatgen
data_Na31Fe20(SO4)36
_symmetry_space_group_name_H-M   'P 1'
_cell_length_a   18.07308706
_cell_length_b   18.06831711
_cell_length_c   19.70450519
_cell_angle_alpha   107.57063776
_cell_angle_beta   107.58564917
_cell_angle_gamma   90.64680015
_symmetry_Int_Tables_number   1
_chemical_formula_structural   Na31Fe20(SO4)36
_chemical_formula_sum   'Na62 Fe40 S72 O288'
_cell_volume   5810.32384956
_cell_formula_units_Z   2
loop_
 _symmetry_equiv_pos_site_id
 _symmetry_equiv_pos_as_xyz
  1  'x, y, z'
loop_
 _atom_site_type_symbol
 _atom_site_label
 _atom_site_symmetry_multiplicity
 _atom_site_fract_x
 _atom_site_fract_y
 _atom_site_fract_z
 _atom_site_occupancy
  Na  Na0  1  0.13479221  0.36327025  0.08394497  1
  Na  Na1  1  0.12404191  0.36217862  0.41784673  1
  Na  Na2  1  0.13624614  0.36691115  0.75116447  1
  Na  Na3  1  0.13718113  0.86718023  0.08495948  1
  Na  Na4  1  0.14646888  0.86186355  0.42043170  1
  Na  Na5  1  0.12501165  0.85554050  0.73224801  1
  Na  Na6  1  0.62630985  0.36540713  0.08125603  1
  Na  Na7  1  0.65212870  0.36643885  0.42778937  1
  Na  Na8  1  0.63186611  0.34600007  0.72491403  1
  Na  Na9  1  0.64310833  0.87427217  0.09849663  1
  Na  Na10  1  0.63741711  0.87292828  0.42827869  1
  Na  Na11  1  0.62668194  0.87032230  0.74553226  1
  Na  Na12  1  0.37208015  0.13600132  0.25438240  1
  Na  Na13  1  0.36596201  0.13419686  0.57518020  1
  Na  Na14  1  0.36919709  0.13368900  0.92218927  1
  Na  Na15  1  0.36400321  0.63534367  0.25788682  1
  Na  Na16  1  0.36190124  0.63291568  0.57865252  1
  Na  Na17  1  0.36635594  0.63575027  0.92016415  1
  Na  Na18  1  0.87153935  0.13166489  0.26997244  1
  Na  Na19  1  0.83522701  0.14677338  0.57428956  1
  Na  Na20  1  0.86843759  0.12938883  0.91330704  1
  Na  Na21  1  0.86091630  0.64605828  0.25071797  1
  Na  Na22  1  0.87048852  0.63577927  0.56869173  1
  Na  Na23  1  0.86958778  0.63033572  0.91393511  1
  Na  Na24  1  0.99260211  0.52256125  0.46413008  1
  Na  Na25  1  0.49405306  0.50607234  0.75643891  1
  Na  Na26  1  0.48626858  0.01379949  0.09097359  1
  Na  Na27  1  0.98915823  0.01027857  0.41398744  1
  Na  Na28  1  0.96380845  0.00664118  0.75855970  1
  Na  Na29  1  0.99183501  0.50552541  0.74769793  1
  Na  Na30  1  0.99400397  0.01395973  0.07478405  1
  Na  Na31  1  0.52599570  0.48635700  0.40124139  1
  Na  Na32  1  0.99636100  0.51717408  0.07438429  1
  Na  Na33  1  0.50402440  0.48263732  0.93950881  1
  Na  Na34  1  -0.02522760  1.00937655  0.59389025  1
  Na  Na35  1  0.49753163  1.02285019  0.56194285  1
  Na  Na36  1  0.52532942  0.48136410  0.23047848  1
  Na  Na37  1  0.51410494  0.99713110  0.89340738  1
  Na  Na38  1  0.03837793  0.98655210  0.26091468  1
  Na  Na39  1  0.50884260  0.48537395  0.57656558  1
  Na  Na40  1  -0.01349478  0.49979591  0.26419924  1
  Na  Na41  1  0.50015062  1.01936483  0.36350767  1
  Na  Na42  1  0.75877282  0.25427038  0.34569613  1
  Na  Na43  1  0.24454842  0.74523408  0.00538681  1
  Na  Na44  1  0.26566589  0.26016795  -0.00191856  1
  Na  Na45  1  0.74672739  0.75090519  0.33591293  1
  Na  Na46  1  0.75576041  0.76102661  0.65534755  1
  Na  Na47  1  0.74976654  0.24862515  -0.00227509  1
  Na  Na48  1  0.25087393  0.24842061  0.66335696  1
  Na  Na49  1  0.24543124  0.23492943  0.33922905  1
  Na  Na50  1  0.24622345  0.75393035  0.64657809  1
  Na  Na51  1  0.75892542  0.75955196  -0.00352541  1
  Na  Na52  1  0.75225828  0.75399629  0.49576236  1
  Na  Na53  1  0.76017554  0.76610779  0.16680903  1
  Na  Na54  1  0.24077286  0.73835562  0.18136637  1
  Na  Na55  1  0.24231359  0.23566505  0.49803127  1
  Na  Na56  1  0.25796380  0.25410081  0.83211195  1
  Na  Na57  1  0.25957531  0.25394421  0.16344827  1
  Na  Na58  1  0.75733706  0.25521680  0.81403810  1
  Na  Na59  1  0.24926366  0.75241522  0.82524139  1
  Na  Na60  1  0.74340884  0.24261637  0.17540024  1
  Na  Na61  1  0.75550810  0.75663767  0.82449641  1
  Fe  Fe62  1  0.46094268  0.80605729  0.78211610  1
  Fe  Fe63  1  0.47730852  0.29490818  0.45235515  1
  Fe  Fe64  1  0.96615271  0.80424191  0.78054506  1
  Fe  Fe65  1  0.96949934  0.80522189  0.12150387  1
  Fe  Fe66  1  0.46873680  0.29959436  0.78288684  1
  Fe  Fe67  1  0.96298310  0.31086046  0.12246069  1
  Fe  Fe68  1  0.45909654  0.81273805  0.12288531  1
  Fe  Fe69  1  0.96408636  0.31414732  0.78373913  1
  Fe  Fe70  1  0.45775316  0.80519109  0.45097290  1
  Fe  Fe71  1  0.97045910  0.80378321  0.45352555  1
  Fe  Fe72  1  0.69373346  0.53782696  0.04863481  1
  Fe  Fe73  1  0.69863409  0.03130370  0.04903586  1
  Fe  Fe74  1  0.69759872  0.03093351  0.70055780  1
  Fe  Fe75  1  0.18784089  0.03943530  0.71056621  1
  Fe  Fe76  1  0.69327316  0.53722367  0.71497211  1
  Fe  Fe77  1  0.70334670  0.02682017  0.37615665  1
  Fe  Fe78  1  0.18630579  0.53565181  0.70999642  1
  Fe  Fe79  1  0.18677014  0.03577600  0.04307352  1
  Fe  Fe80  1  0.19240392  0.53405981  0.04861920  1
  Fe  Fe81  1  0.19373784  0.53415896  0.38592858  1
  Fe  Fe82  1  0.03774519  0.69100361  0.87874845  1
  Fe  Fe83  1  0.53496416  0.19725430  0.20972866  1
  Fe  Fe84  1  0.03166099  0.19830422  0.22024120  1
  Fe  Fe85  1  0.04741158  0.69270959  0.23140358  1
  Fe  Fe86  1  0.53657520  0.18799426  0.87774076  1
  Fe  Fe87  1  0.02686935  0.20436929  0.54517469  1
  Fe  Fe88  1  0.03393190  0.19705054  0.88169056  1
  Fe  Fe89  1  0.53239166  0.69295547  0.21683171  1
  Fe  Fe90  1  0.52946298  0.69097307  0.54650660  1
  Fe  Fe91  1  0.53234946  0.69573394  0.88382426  1
  Fe  Fe92  1  0.80440342  0.46567413  0.94965255  1
  Fe  Fe93  1  0.29968664  0.96994466  0.29041027  1
  Fe  Fe94  1  0.30272258  0.96491260  0.95137947  1
  Fe  Fe95  1  0.31342544  0.46259834  0.95993712  1
  Fe  Fe96  1  0.79896591  0.47146581  0.29300734  1
  Fe  Fe97  1  0.30330741  0.96726267  0.61316056  1
  Fe  Fe98  1  0.80500170  0.46796161  0.61136451  1
  Fe  Fe99  1  0.80854815  0.96290087  0.95237784  1
  Fe  Fe100  1  0.30885133  0.46047691  0.62042109  1
  Fe  Fe101  1  0.31063405  0.46118584  0.28884283  1
  S  S102  1  0.35720943  0.13731864  0.08304872  1
  S  S103  1  0.36593705  0.13897334  0.41349122  1
  S  S104  1  0.35932849  0.13722917  0.75061692  1
  S  S105  1  0.35949376  0.64112740  0.08314344  1
  S  S106  1  0.35776702  0.63657536  0.41713463  1
  S  S107  1  0.35943760  0.63772588  0.75237701  1
  S  S108  1  0.86160481  0.14052286  0.08293281  1
  S  S109  1  0.86240398  0.13327601  0.42097302  1
  S  S110  1  0.86430338  0.14508587  0.75051946  1
  S  S111  1  0.86147974  0.64009323  0.08368846  1
  S  S112  1  0.86181058  0.64271783  0.40787313  1
  S  S113  1  0.86014516  0.63994193  0.75075069  1
  S  S114  1  0.14075692  0.36026491  0.25215861  1
  S  S115  1  0.14530514  0.36017797  0.58816597  1
  S  S116  1  0.14208164  0.35975452  0.91915517  1
  S  S117  1  0.14304455  0.85456213  0.24460636  1
  S  S118  1  0.13659238  0.86711048  0.58489069  1
  S  S119  1  0.13951689  0.85908199  0.91445078  1
  S  S120  1  0.64190508  0.35937818  0.24845767  1
  S  S121  1  0.63702794  0.36831814  0.58367383  1
  S  S122  1  0.63987403  0.35927081  0.91589798  1
  S  S123  1  0.63379423  0.85916272  0.24804760  1
  S  S124  1  0.63260811  0.85575807  0.58391958  1
  S  S125  1  0.63980767  0.85851662  0.91700804  1
  S  S126  1  0.06645296  0.17429255  0.04547441  1
  S  S127  1  0.06373781  0.17089940  0.37803288  1
  S  S128  1  0.06856846  0.17882513  0.71328398  1
  S  S129  1  0.06774669  0.66900072  0.04127668  1
  S  S130  1  0.06428112  0.66310287  0.36811666  1
  S  S131  1  0.06247849  0.66479194  0.70895517  1
  S  S132  1  0.56827464  0.15706800  0.03700674  1
  S  S133  1  0.58289350  0.17456273  0.37002545  1
  S  S134  1  0.56716437  0.16359603  0.70944153  1
  S  S135  1  0.56868156  0.67374557  0.04496018  1
  S  S136  1  0.56063083  0.66728784  0.37508425  1
  S  S137  1  0.56244076  0.66855445  0.71163063  1
  S  S138  1  0.32996327  0.43611572  0.12617904  1
  S  S139  1  0.33213672  0.42532065  0.45730271  1
  S  S140  1  0.33883877  0.43213719  0.79636459  1
  S  S141  1  0.32520615  0.93354391  0.12236615  1
  S  S142  1  0.33187481  0.93229331  0.45861526  1
  S  S143  1  0.32517030  0.93097922  0.78897661  1
  S  S144  1  0.82459916  0.43342799  0.12379236  1
  S  S145  1  0.83467248  0.44127925  0.45709711  1
  S  S146  1  0.82612779  0.43490250  0.79078795  1
  S  S147  1  0.83883396  0.93593567  0.12512443  1
  S  S148  1  0.83042408  0.92863524  0.45428617  1
  S  S149  1  0.82762244  0.92946780  0.79026845  1
  S  S150  1  0.43609819  0.32731559  0.28972995  1
  S  S151  1  0.43142707  0.32953321  0.62400854  1
  S  S152  1  0.43591240  0.32350520  0.95625630  1
  S  S153  1  0.42673612  0.82836777  0.28942104  1
  S  S154  1  0.42519723  0.82756983  0.62507316  1
  S  S155  1  0.43108434  0.83205678  0.95740818  1
  S  S156  1  0.92838469  0.33572260  0.29080767  1
  S  S157  1  0.93436487  0.33787345  0.63227788  1
  S  S158  1  0.93215577  0.33305071  0.95977250  1
  S  S159  1  0.94640615  0.83036132  0.28915488  1
  S  S160  1  0.93106039  0.83410418  0.62290250  1
  S  S161  1  0.93454246  0.82635918  0.95632072  1
  S  S162  1  0.16491844  0.06742427  0.20489382  1
  S  S163  1  0.16502348  0.07024966  0.54119753  1
  S  S164  1  0.16866062  0.07098871  0.87508059  1
  S  S165  1  0.16787856  0.56113789  0.20716040  1
  S  S166  1  0.17647257  0.56361346  0.54893262  1
  S  S167  1  0.17474911  0.56644271  0.87837413  1
  S  S168  1  0.67375434  0.07035525  0.21083861  1
  S  S169  1  0.66018791  0.06161035  0.53045529  1
  S  S170  1  0.67729111  0.06532740  0.87466110  1
  S  S171  1  0.66874610  0.56834496  0.20723333  1
  S  S172  1  0.66592802  0.57071847  0.54397231  1
  S  S173  1  0.66902204  0.56983546  0.87756414  1
  O  O174  1  0.36413619  0.21333911  0.07298952  1
  O  O175  1  0.38299149  0.21320896  0.39673720  1
  O  O176  1  0.36805741  0.21748210  0.74393534  1
  O  O177  1  0.37078600  0.71861518  0.07139624  1
  O  O178  1  0.36686303  0.71345986  0.40680098  1
  O  O179  1  0.36551492  0.71829042  0.74735628  1
  O  O180  1  0.86867888  0.21836308  0.07192765  1
  O  O181  1  0.86309605  0.20722597  0.40568090  1
  O  O182  1  0.87161041  0.23010997  0.75912252  1
  O  O183  1  0.87031982  0.71944013  0.07574372  1
  O  O184  1  0.87951127  0.71585182  0.39060998  1
  O  O185  1  0.86617640  0.72045576  0.74522004  1
  O  O186  1  0.27850548  0.12530784  0.09231358  1
  O  O187  1  0.28494337  0.13839665  0.41419010  1
  O  O188  1  0.28075781  0.13029232  0.76102309  1
  O  O189  1  0.27833942  0.63509840  0.08747244  1
  O  O190  1  0.28021657  0.62543913  0.42628826  1
  O  O191  1  0.28109161  0.62572690  0.76070090  1
  O  O192  1  0.78142918  0.12978820  0.08762225  1
  O  O193  1  0.78282908  0.11653792  0.42919386  1
  O  O194  1  0.78455555  0.12811528  0.75424996  1
  O  O195  1  0.78282383  0.63342215  0.09363670  1
  O  O196  1  0.78519413  0.64612420  0.41864910  1
  O  O197  1  0.78342361  0.63075121  0.76409684  1
  O  O198  1  0.13018855  0.28138904  0.26007833  1
  O  O199  1  0.13098529  0.28175434  0.59705478  1
  O  O200  1  0.13317096  0.28072170  0.92802080  1
  O  O201  1  0.13852927  0.77009526  0.23796552  1
  O  O202  1  0.12873836  0.79388859  0.60034842  1
  O  O203  1  0.13257484  0.78073881  0.92518989  1
  O  O204  1  0.63651726  0.27351425  0.23934853  1
  O  O205  1  0.62795176  0.29552415  0.59732827  1
  O  O206  1  0.63105287  0.28255976  0.92840138  1
  O  O207  1  0.62339788  0.78335651  0.26314429  1
  O  O208  1  0.61734120  0.78098451  0.60012013  1
  O  O209  1  0.62939226  0.77856139  0.92271117  1
  O  O210  1  0.21940061  0.36704194  0.24231865  1
  O  O211  1  0.22808310  0.36142514  0.58455391  1
  O  O212  1  0.22300104  0.36760713  0.91344902  1
  O  O213  1  0.21958113  0.87084655  0.23381529  1
  O  O214  1  0.21598973  0.87861423  0.57808671  1
  O  O215  1  0.21980531  0.86818095  0.90823112  1
  O  O216  1  0.72640078  0.37406460  0.24859800  1
  O  O217  1  0.71355231  0.38211722  0.57292962  1
  O  O218  1  0.72084647  0.36863868  0.91237547  1
  O  O219  1  0.70801100  0.86445359  0.23402214  1
  O  O220  1  0.70863617  0.85475109  0.57214979  1
  O  O221  1  0.71839616  0.86473891  0.90726126  1
  O  O222  1  0.41760016  0.12876227  0.15049551  1
  O  O223  1  0.42111769  0.13282497  0.48220963  1
  O  O224  1  0.41826180  0.12808900  0.81787857  1
  O  O225  1  0.41516222  0.63568195  0.15332171  1
  O  O226  1  0.41804757  0.62905541  0.48549356  1
  O  O227  1  0.41965608  0.62971586  0.82066638  1
  O  O228  1  0.91924152  0.13549482  0.15275283  1
  O  O229  1  0.91922201  0.13705932  0.49633205  1
  O  O230  1  0.92230812  0.13085357  0.81844234  1
  O  O231  1  0.92143444  0.62863857  0.14864612  1
  O  O232  1  0.92234080  0.63093831  0.47099931  1
  O  O233  1  0.92185790  0.62985740  0.81656541  1
  O  O234  1  0.36561527  0.07480642  0.01566879  1
  O  O235  1  0.37404917  0.07443223  0.34617573  1
  O  O236  1  0.36454094  0.08006454  0.68114452  1
  O  O237  1  0.36872719  0.58030268  0.01676351  1
  O  O238  1  0.36630343  0.57551822  0.34995852  1
  O  O239  1  0.37081317  0.58075311  0.68507770  1
  O  O240  1  0.87411908  0.08007873  0.01746417  1
  O  O241  1  0.87889563  0.06983991  0.36237508  1
  O  O242  1  0.87857624  0.09613310  0.68275970  1
  O  O243  1  0.86633226  0.58102289  0.01365370  1
  O  O244  1  0.86025288  0.57771188  0.33607723  1
  O  O245  1  0.86620421  0.58272828  0.68160535  1
  O  O246  1  0.08139062  0.36931138  0.18475807  1
  O  O247  1  0.09177447  0.37315202  0.52317673  1
  O  O248  1  0.08558306  0.36728174  0.85040231  1
  O  O249  1  0.08119525  0.86855583  0.17918737  1
  O  O250  1  0.07888031  0.87086336  0.51409677  1
  O  O251  1  0.08259399  0.86389087  0.84455719  1
  O  O252  1  0.58924896  0.37597156  0.18332896  1
  O  O253  1  0.57563258  0.37622775  0.51490850  1
  O  O254  1  0.58367163  0.36349367  0.84492373  1
  O  O255  1  0.57062366  0.86467751  0.18052303  1
  O  O256  1  0.57128817  0.86296644  0.51662767  1
  O  O257  1  0.57971153  0.87059174  0.85134145  1
  O  O258  1  0.13480574  0.41945561  0.32086118  1
  O  O259  1  0.14342430  0.41884570  0.66012239  1
  O  O260  1  0.13356859  0.41835761  0.98670482  1
  O  O261  1  0.13410057  0.90417368  0.31433708  1
  O  O262  1  0.12479151  0.93183964  0.64901634  1
  O  O263  1  0.12998621  0.91848907  0.98123133  1
  O  O264  1  0.63006916  0.40583522  0.31849363  1
  O  O265  1  0.62530190  0.43403471  0.64863311  1
  O  O266  1  0.62755661  0.42174602  0.98036171  1
  O  O267  1  0.62783039  0.92270491  0.31533970  1
  O  O268  1  0.63050642  0.91989849  0.65162080  1
  O  O269  1  0.63544631  0.91607285  0.98730851  1
  O  O270  1  0.03048877  0.20445910  0.10688120  1
  O  O271  1  0.03393609  0.20544397  0.44117596  1
  O  O272  1  0.03264035  0.20958153  0.77504392  1
  O  O273  1  0.02783793  0.69708938  0.09885421  1
  O  O274  1  0.04363254  0.70561464  0.43432174  1
  O  O275  1  0.03062199  0.70197937  0.77458722  1
  O  O276  1  0.52904018  0.17702839  0.09416711  1
  O  O277  1  0.55114495  0.20382030  0.43273539  1
  O  O278  1  0.53226616  0.19471664  0.77395497  1
  O  O279  1  0.53294182  0.69803827  0.10614901  1
  O  O280  1  0.52609325  0.70195604  0.43768150  1
  O  O281  1  0.52680551  0.70164800  0.77337922  1
  O  O282  1  0.29460324  0.47356889  0.06487913  1
  O  O283  1  0.29984467  0.46287094  0.39711324  1
  O  O284  1  0.31108379  0.46871636  0.73633963  1
  O  O285  1  0.29184973  0.96749876  0.05967195  1
  O  O286  1  0.30612025  0.96461501  0.39626406  1
  O  O287  1  0.29763014  0.96794876  0.72917176  1
  O  O288  1  0.79710663  0.47075931  0.06282086  1
  O  O289  1  0.80491813  0.47834485  0.39532801  1
  O  O290  1  0.79578428  0.47039609  0.72920699  1
  O  O291  1  0.80323889  0.96572562  0.05798870  1
  O  O292  1  0.78934003  0.95480137  0.38808768  1
  O  O293  1  0.80101966  0.96878035  0.73316730  1
  O  O294  1  0.47192870  0.29779366  0.23012882  1
  O  O295  1  0.46132216  0.30712772  0.56059611  1
  O  O296  1  0.46808308  0.29456336  0.89067030  1
  O  O297  1  0.46306473  0.79766063  0.22774004  1
  O  O298  1  0.45781620  0.79373523  0.56203727  1
  O  O299  1  0.46833515  0.80207325  0.89661873  1
  O  O300  1  0.96149592  0.30470107  0.22534237  1
  O  O301  1  0.96923302  0.30748782  0.57249214  1
  O  O302  1  0.97358423  0.30699148  0.90285332  1
  O  O303  1  0.98007283  0.78718514  0.22671467  1
  O  O304  1  0.95785513  0.80345762  0.55722051  1
  O  O305  1  0.96961270  0.79832773  0.89445342  1
  O  O306  1  0.19293068  0.02960295  0.26302463  1
  O  O307  1  0.20163086  0.04240364  0.60897518  1
  O  O308  1  0.19632474  0.03188724  0.93480377  1
  O  O309  1  0.19775515  0.52687977  0.26914413  1
  O  O310  1  0.21114869  0.52370288  0.60853541  1
  O  O311  1  0.20301167  0.52953238  0.93914039  1
  O  O312  1  0.69562548  0.03467751  0.27149565  1
  O  O313  1  0.68580611  0.02434847  0.59071456  1
  O  O314  1  0.70508747  0.02739400  0.93598318  1
  O  O315  1  0.69963689  0.52859534  0.26450100  1
  O  O316  1  0.70476111  0.54505549  0.61170982  1
  O  O317  1  0.69960010  0.53283024  0.93839691  1
  O  O318  1  0.08120506  0.09177193  0.03903537  1
  O  O319  1  0.07238636  0.08781654  0.36777707  1
  O  O320  1  0.08111463  0.09529597  0.70566424  1
  O  O321  1  0.08748489  0.58824454  0.03967254  1
  O  O322  1  0.08858709  0.58476257  0.37373341  1
  O  O323  1  0.08404828  0.58630331  0.71595976  1
  O  O324  1  0.58746565  0.07343239  0.02412842  1
  O  O325  1  0.60761571  0.09452006  0.36785301  1
  O  O326  1  0.59355457  0.08588858  0.70940123  1
  O  O327  1  0.58845860  0.59173767  0.03379891  1
  O  O328  1  0.56979729  0.58479721  0.36664772  1
  O  O329  1  0.57708613  0.58605878  0.70807619  1
  O  O330  1  0.40995810  0.42413639  0.12976784  1
  O  O331  1  0.41252565  0.40672268  0.45930882  1
  O  O332  1  0.42191041  0.41473067  0.80326440  1
  O  O333  1  0.40746769  0.91952117  0.12517531  1
  O  O334  1  0.41480692  0.91251556  0.46855568  1
  O  O335  1  0.40721860  0.91150373  0.79703481  1
  O  O336  1  0.90833181  0.41967922  0.13295601  1
  O  O337  1  0.91535116  0.42702550  0.46578514  1
  O  O338  1  0.90770342  0.41804692  0.79619273  1
  O  O339  1  0.91841270  0.91354582  0.12265732  1
  O  O340  1  0.90890819  0.90625586  0.44742765  1
  O  O341  1  0.90752095  0.90640785  0.79283859  1
  O  O342  1  0.41751855  0.41001542  0.29470772  1
  O  O343  1  0.41639450  0.41489021  0.63968255  1
  O  O344  1  0.41345416  0.40428373  0.95863286  1
  O  O345  1  0.40453733  0.90751445  0.28967502  1
  O  O346  1  0.40419878  0.90648826  0.62662881  1
  O  O347  1  0.41331619  0.91381423  0.96206774  1
  O  O348  1  0.89743003  0.41270182  0.28515927  1
  O  O349  1  0.90896505  0.41701104  0.63250764  1
  O  O350  1  0.91181927  0.41437403  0.96584039  1
  O  O351  1  0.94682864  0.91226947  0.29194062  1
  O  O352  1  0.92339978  0.91830722  0.63921837  1
  O  O353  1  0.91620898  0.90821311  0.96498540  1
  O  O354  1  0.08297095  0.08762209  0.20080524  1
  O  O355  1  0.08740345  0.09679933  0.54451138  1
  O  O356  1  0.08789930  0.09120652  0.87028809  1
  O  O357  1  0.08583389  0.58056521  0.20225703  1
  O  O358  1  0.10085252  0.58480819  0.55389351  1
  O  O359  1  0.09283869  0.58430521  0.87076386  1
  O  O360  1  0.59181162  0.09026856  0.19571099  1
  O  O361  1  0.57432084  0.05941521  0.50505615  1
  O  O362  1  0.59613795  0.08400656  0.87100981  1
  O  O363  1  0.58855990  0.58727153  0.20732774  1
  O  O364  1  0.58381830  0.58682329  0.54523638  1
  O  O365  1  0.58737740  0.58795004  0.87409203  1
  O  O366  1  0.13959454  0.22399983  0.06234017  1
  O  O367  1  0.13791335  0.21789918  0.38999136  1
  O  O368  1  0.14374988  0.22693132  0.73292254  1
  O  O369  1  0.13918005  0.72179956  0.05881985  1
  O  O370  1  0.12458973  0.70809650  0.35460354  1
  O  O371  1  0.13421808  0.71500398  0.72205122  1
  O  O372  1  0.63911875  0.21121016  0.05631394  1
  O  O373  1  0.64812583  0.22761767  0.37554407  1
  O  O374  1  0.63390415  0.22037813  0.72460518  1
  O  O375  1  0.63866803  0.72767590  0.06098139  1
  O  O376  1  0.63379322  0.71633036  0.39087065  1
  O  O377  1  0.63525816  0.71747914  0.72762577  1
  O  O378  1  0.27847270  0.36282384  0.10751798  1
  O  O379  1  0.27897513  0.35553758  0.44296578  1
  O  O380  1  0.28715766  0.36022852  0.77979913  1
  O  O381  1  0.27752978  0.85934624  0.10615828  1
  O  O382  1  0.28053693  0.86474581  0.44957267  1
  O  O383  1  0.27247565  0.85943144  0.77175761  1
  O  O384  1  0.77431272  0.36015855  0.10412891  1
  O  O385  1  0.78209816  0.37062202  0.43984789  1
  O  O386  1  0.77406999  0.36565070  0.77814879  1
  O  O387  1  0.78666936  0.86469447  0.11137251  1
  O  O388  1  0.78173142  0.85804207  0.44838275  1
  O  O389  1  0.77266393  0.85956736  0.77431801  1
  O  O390  1  0.36329361  0.27735822  0.27453343  1
  O  O391  1  0.35997309  0.27870992  0.61023613  1
  O  O392  1  0.36373826  0.27105704  0.93893241  1
  O  O393  1  0.35885700  0.77348616  0.27523619  1
  O  O394  1  0.35904694  0.77415205  0.61792460  1
  O  O395  1  0.35945845  0.77960806  0.93953142  1
  O  O396  1  0.86295532  0.27888481  0.27916239  1
  O  O397  1  0.87115128  0.28493852  0.63004504  1
  O  O398  1  0.86170122  0.27844419  0.94003028  1
  O  O399  1  0.86781353  0.78963193  0.27038806  1
  O  O400  1  0.85739559  0.78597286  0.61033910  1
  O  O401  1  0.86237691  0.77382190  0.93870340  1
  O  O402  1  0.21715713  0.13802709  0.21911216  1
  O  O403  1  0.21993920  0.13788825  0.55076788  1
  O  O404  1  0.22351654  0.14121949  0.89403783  1
  O  O405  1  0.22025366  0.62925595  0.21806628  1
  O  O406  1  0.23196750  0.63129592  0.56356326  1
  O  O407  1  0.22683774  0.63875638  0.89667750  1
  O  O408  1  0.72949592  0.13969391  0.22876712  1
  O  O409  1  0.70323071  0.13803466  0.55269481  1
  O  O410  1  0.72984380  0.13741938  0.89440811  1
  O  O411  1  0.71999646  0.64028068  0.22258119  1
  O  O412  1  0.71175370  0.64273388  0.55152744  1
  O  O413  1  0.72109269  0.64089386  0.89371984  1
  O  O414  1  0.49571847  0.32545577  0.02485327  1
  O  O415  1  0.49452836  0.33264438  0.36401626  1
  O  O416  1  0.49241214  0.32710969  0.69458012  1
  O  O417  1  0.48905479  0.83452360  0.03034791  1
  O  O418  1  0.48757311  0.83472983  0.36225386  1
  O  O419  1  0.48959046  0.83425175  0.69769707  1
  O  O420  1  0.98904935  0.33702969  0.03478615  1
  O  O421  1  0.99239544  0.35092784  0.36006286  1
  O  O422  1  0.99928561  0.35452513  0.70826149  1
  O  O423  1  0.99386589  0.82496654  0.02732702  1
  O  O424  1  0.99995823  0.82242991  0.36000086  1
  O  O425  1  0.99131878  0.82458950  0.69186317  1
  O  O426  1  0.15745181  0.00878581  0.12913808  1
  O  O427  1  0.15430274  0.00494501  0.47294888  1
  O  O428  1  0.16636279  0.01280107  0.80238647  1
  O  O429  1  0.16002039  0.50005392  0.13336367  1
  O  O430  1  0.17030415  0.50411897  0.47456802  1
  O  O431  1  0.17608813  0.50822156  0.80687300  1
  O  O432  1  0.67647058  0.00952353  0.13987671  1
  O  O433  1  0.67907035  0.00648719  0.46210203  1
  O  O434  1  0.67726722  0.00796254  0.80317947  1
  O  O435  1  0.66260941  0.51133197  0.13173510  1
  O  O436  1  0.65807208  0.50636559  0.47527305  1
  O  O437  1  0.66472062  0.51067625  0.80473413  1
  O  O438  1  0.00499449  0.17724350  0.30670420  1
  O  O439  1  0.01188072  0.18275838  0.64308234  1
  O  O440  1  0.00850214  0.17568430  0.97363553  1
  O  O441  1  -0.00570961  0.64250155  0.29651996  1
  O  O442  1  0.00143298  0.65618406  0.63924769  1
  O  O443  1  0.01138236  0.66425435  0.96639821  1
  O  O444  1  0.51681408  0.16384230  0.29783415  1
  O  O445  1  0.50390758  0.15512105  0.63950882  1
  O  O446  1  0.51054230  0.15690144  0.96323240  1
  O  O447  1  0.50194084  0.67158464  0.30371832  1
  O  O448  1  0.50330734  0.66680920  0.63967648  1
  O  O449  1  0.50744594  0.67332633  0.97344275  1
  O  O450  1  0.32557594  0.49265123  0.19805536  1
  O  O451  1  0.33798939  0.48536146  0.53126781  1
  O  O452  1  0.34092554  0.49044340  0.86974376  1
  O  O453  1  0.32460645  0.99150395  0.19377296  1
  O  O454  1  0.33708921  0.99735999  0.53051986  1
  O  O455  1  0.32744708  0.98990861  0.86209333  1
  O  O456  1  0.82171228  0.49099955  0.19521585  1
  O  O457  1  0.82853032  0.50160420  0.52703839  1
  O  O458  1  0.82864755  0.49596108  0.86338680  1
  O  O459  1  0.84551259  0.99789222  0.19380805  1
  O  O460  1  0.84398927  0.99263934  0.52477226  1
  O  O461  1  0.83522454  0.98651030  0.86640467  1
