# generated using pymatgen
data_Na31Fe20(SO4)36
_symmetry_space_group_name_H-M   'P 1'
_cell_length_a   18.06690495
_cell_length_b   18.06054003
_cell_length_c   19.68869333
_cell_angle_alpha   107.61098556
_cell_angle_beta   107.59931983
_cell_angle_gamma   90.69125743
_symmetry_Int_Tables_number   1
_chemical_formula_structural   Na31Fe20(SO4)36
_chemical_formula_sum   'Na62 Fe40 S72 O288'
_cell_volume   5798.65323483
_cell_formula_units_Z   2
loop_
 _symmetry_equiv_pos_site_id
 _symmetry_equiv_pos_as_xyz
  1  'x, y, z'
loop_
 _atom_site_type_symbol
 _atom_site_label
 _atom_site_symmetry_multiplicity
 _atom_site_fract_x
 _atom_site_fract_y
 _atom_site_fract_z
 _atom_site_occupancy
  Na  Na0  1  0.14966384  0.37408219  0.09992720  1
  Na  Na1  1  0.14606650  0.36533836  0.41536945  1
  Na  Na2  1  0.13932738  0.36134520  0.75468277  1
  Na  Na3  1  0.12823536  0.87134224  0.08151482  1
  Na  Na4  1  0.13636178  0.86324736  0.41699432  1
  Na  Na5  1  0.13262239  0.85856566  0.74354515  1
  Na  Na6  1  0.63533698  0.36413052  0.09015871  1
  Na  Na7  1  0.62752441  0.37210780  0.41881373  1
  Na  Na8  1  0.62773715  0.37297842  0.74547760  1
  Na  Na9  1  0.63191150  0.85327817  0.07176222  1
  Na  Na10  1  0.62563842  0.86025979  0.40501637  1
  Na  Na11  1  0.64136821  0.86346111  0.76362650  1
  Na  Na12  1  0.36803100  0.12881519  0.24259687  1
  Na  Na13  1  0.37369280  0.13541515  0.58506838  1
  Na  Na14  1  0.37208756  0.13872725  0.92193784  1
  Na  Na15  1  0.37147605  0.63205590  0.25786700  1
  Na  Na16  1  0.37072067  0.64470998  0.59593483  1
  Na  Na17  1  0.36030536  0.63270846  0.90911588  1
  Na  Na18  1  0.85802524  0.14042893  0.24281775  1
  Na  Na19  1  0.85902085  0.13483135  0.58404184  1
  Na  Na20  1  0.87636804  0.12143824  0.92124401  1
  Na  Na21  1  0.86209795  0.63432240  0.24883940  1
  Na  Na22  1  0.86556106  0.63868105  0.58773143  1
  Na  Na23  1  0.85892722  0.63420384  0.90950351  1
  Na  Na24  1  0.48791886  0.53394394  0.09576509  1
  Na  Na25  1  0.50070717  0.01480399  0.06765320  1
  Na  Na26  1  0.49312303  0.03743926  0.41646965  1
  Na  Na27  1  0.97782575  0.51004119  0.08523864  1
  Na  Na28  1  1.01444512  0.49680192  0.41264523  1
  Na  Na29  1  0.98927856  0.00946412  0.41007615  1
  Na  Na30  1  0.97814181  0.51093526  0.75009692  1
  Na  Na31  1  0.51401713  -0.03572871  0.80565479  1
  Na  Na32  1  0.99210432  0.00523264  0.76837197  1
  Na  Na33  1  0.51051079  0.99737599  0.59012844  1
  Na  Na34  1  0.49505987  0.47489897  0.25295944  1
  Na  Na35  1  0.51003290  0.50163740  0.89425399  1
  Na  Na36  1  -0.00053861  1.00445001  0.22386273  1
  Na  Na37  1  0.01370248  0.48790172  0.92158857  1
  Na  Na38  1  0.52907186  0.48753860  0.59678552  1
  Na  Na39  1  0.01037949  0.49286800  0.58413934  1
  Na  Na40  1  0.06177418  0.49789539  0.26491137  1
  Na  Na41  1  0.00847531  0.98864809  0.58563314  1
  Na  Na42  1  0.26595040  0.27369227  0.32536322  1
  Na  Na43  1  0.24193111  0.73015825  0.34331764  1
  Na  Na44  1  0.73457612  0.23906931  0.67203615  1
  Na  Na45  1  0.25593254  0.75324423  -0.00587818  1
  Na  Na46  1  0.74388630  0.24074192  0.01502912  1
  Na  Na47  1  0.75535926  0.26179258  0.32548336  1
  Na  Na48  1  0.73554243  0.74192752  0.33412406  1
  Na  Na49  1  0.24350942  0.23998011  0.67594310  1
  Na  Na50  1  0.27007614  0.26491994  -0.01164833  1
  Na  Na51  1  0.73769832  0.73581436  0.67991239  1
  Na  Na52  1  0.24624232  0.73752319  0.51938106  1
  Na  Na53  1  0.27139125  0.76082092  0.81137149  1
  Na  Na54  1  0.27719703  0.27231362  0.15837844  1
  Na  Na55  1  0.25067676  0.75214510  0.16692060  1
  Na  Na56  1  0.25326962  0.25196898  0.49948023  1
  Na  Na57  1  0.74998072  0.75664980  0.15810835  1
  Na  Na58  1  0.74199765  0.24140301  0.84116507  1
  Na  Na59  1  0.74244130  0.74116926  0.85021173  1
  Na  Na60  1  0.73940865  0.74055854  0.50375727  1
  Na  Na61  1  0.73624714  0.24383371  0.50441322  1
  Fe  Fe62  1  0.46636286  0.30371854  0.78490714  1
  Fe  Fe63  1  0.96355075  0.30603944  0.11847245  1
  Fe  Fe64  1  0.46594438  0.80666540  0.45169924  1
  Fe  Fe65  1  0.47011659  0.80381006  0.12658881  1
  Fe  Fe66  1  0.96354150  0.30688509  0.45004856  1
  Fe  Fe67  1  0.95885036  0.80717814  0.10858142  1
  Fe  Fe68  1  0.46960020  0.30004408  0.46079752  1
  Fe  Fe69  1  0.96243814  0.80742324  0.44981324  1
  Fe  Fe70  1  0.96546324  0.30609772  0.78578128  1
  Fe  Fe71  1  0.96490921  0.81228701  0.79058151  1
  Fe  Fe72  1  0.19370845  0.53622199  0.04974115  1
  Fe  Fe73  1  0.19084543  0.03664946  0.38132644  1
  Fe  Fe74  1  0.19283303  0.03723423  0.71740033  1
  Fe  Fe75  1  0.19392222  0.53402025  0.71704785  1
  Fe  Fe76  1  0.70038060  0.02889030  0.04010235  1
  Fe  Fe77  1  0.68706645  0.53811847  0.04672808  1
  Fe  Fe78  1  0.69815427  0.03108108  0.71621771  1
  Fe  Fe79  1  0.19198920  0.03469486  0.04687611  1
  Fe  Fe80  1  0.68717512  0.03452691  0.37515413  1
  Fe  Fe81  1  0.68786343  0.53568892  0.37609976  1
  Fe  Fe82  1  0.03019766  0.69711140  0.21421005  1
  Fe  Fe83  1  0.03656878  0.69391893  0.88277007  1
  Fe  Fe84  1  0.03032481  0.19331672  0.54947076  1
  Fe  Fe85  1  0.53530602  0.19679875  0.20835290  1
  Fe  Fe86  1  0.03756068  0.69056787  0.54891687  1
  Fe  Fe87  1  0.53022925  0.69811918  0.87342717  1
  Fe  Fe88  1  0.53378491  0.19269896  0.88063128  1
  Fe  Fe89  1  0.03844932  0.19634813  0.88599990  1
  Fe  Fe90  1  0.03333132  0.19047930  0.21101205  1
  Fe  Fe91  1  0.53062600  0.69278194  0.54704309  1
  Fe  Fe92  1  0.80896463  0.46328751  0.28343622  1
  Fe  Fe93  1  0.30950926  0.46211880  0.61900512  1
  Fe  Fe94  1  0.80922196  0.96093736  0.61742157  1
  Fe  Fe95  1  0.31415814  0.46327467  0.95358762  1
  Fe  Fe96  1  0.80310172  0.96712893  0.27975331  1
  Fe  Fe97  1  0.30754634  0.96216165  0.94908805  1
  Fe  Fe98  1  0.30428482  0.96597855  0.28467540  1
  Fe  Fe99  1  0.80032993  0.47061244  0.94834146  1
  Fe  Fe100  1  0.79829766  0.47060264  0.61840368  1
  Fe  Fe101  1  0.31308512  0.96136033  0.62297758  1
  S  S102  1  0.36090721  0.13605199  0.08164142  1
  S  S103  1  0.35635849  0.13939590  0.41514739  1
  S  S104  1  0.35815025  0.13897497  0.74814496  1
  S  S105  1  0.35367221  0.64280966  0.08073363  1
  S  S106  1  0.35895648  0.64621021  0.41991876  1
  S  S107  1  0.35974037  0.63612407  0.75047353  1
  S  S108  1  0.86240336  0.13771217  0.08325788  1
  S  S109  1  0.85679760  0.14006599  0.41652524  1
  S  S110  1  0.86384658  0.13854347  0.75024087  1
  S  S111  1  0.85651103  0.64196485  0.08348689  1
  S  S112  1  0.85964865  0.64028659  0.41624961  1
  S  S113  1  0.86372518  0.64108416  0.74929025  1
  S  S114  1  0.13882802  0.35424525  0.24858798  1
  S  S115  1  0.13707397  0.35899682  0.58553378  1
  S  S116  1  0.14092326  0.36095782  0.91761182  1
  S  S117  1  0.13490127  0.86273686  0.25015682  1
  S  S118  1  0.13768284  0.86227014  0.58179293  1
  S  S119  1  0.14186159  0.85917062  0.91522598  1
  S  S120  1  0.64330618  0.36061624  0.25063560  1
  S  S121  1  0.64320697  0.35720132  0.58137495  1
  S  S122  1  0.64177257  0.36110240  0.91658365  1
  S  S123  1  0.64234112  0.85952587  0.24916277  1
  S  S124  1  0.64125630  0.85826678  0.58228377  1
  S  S125  1  0.63619606  0.86095477  0.91725641  1
  S  S126  1  0.07360936  0.17615396  0.04695377  1
  S  S127  1  0.06260855  0.16842498  0.37632917  1
  S  S128  1  0.06377554  0.16770258  0.70807000  1
  S  S129  1  0.06271149  0.67011458  0.04132567  1
  S  S130  1  0.06140583  0.67133244  0.37894784  1
  S  S131  1  0.06850331  0.66727890  0.71019153  1
  S  S132  1  0.57512927  0.16593597  0.04100567  1
  S  S133  1  0.56714356  0.17320358  0.37307117  1
  S  S134  1  0.56888341  0.16732123  0.71019299  1
  S  S135  1  0.56112023  0.66699109  0.03758844  1
  S  S136  1  0.56502631  0.66996410  0.37383574  1
  S  S137  1  0.56897247  0.67159696  0.71316274  1
  S  S138  1  0.33486701  0.44453769  0.12164853  1
  S  S139  1  0.33540468  0.42013335  0.46358964  1
  S  S140  1  0.32773574  0.42802145  0.78841351  1
  S  S141  1  0.32559906  0.92689963  0.12063207  1
  S  S142  1  0.32594015  0.93354783  0.45621684  1
  S  S143  1  0.32197322  0.93279665  0.78690862  1
  S  S144  1  0.83340613  0.43519244  0.12299702  1
  S  S145  1  0.83484136  0.43579249  0.45877383  1
  S  S146  1  0.83566816  0.43040142  0.79051392  1
  S  S147  1  0.82783677  0.93442545  0.12497597  1
  S  S148  1  0.83295838  0.93430781  0.45656819  1
  S  S149  1  0.83098753  0.93242093  0.78724520  1
  S  S150  1  0.43503313  0.32378355  0.29313709  1
  S  S151  1  0.43243173  0.32534383  0.62381723  1
  S  S152  1  0.44105920  0.33367145  0.95761742  1
  S  S153  1  0.42982522  0.83964496  0.29387162  1
  S  S154  1  0.44168145  0.84035384  0.62643062  1
  S  S155  1  0.42904025  0.82400879  0.95897481  1
  S  S156  1  0.93512017  0.33233186  0.29488546  1
  S  S157  1  0.93013487  0.33079684  0.62272321  1
  S  S158  1  0.93275635  0.33323660  0.95804109  1
  S  S159  1  0.93082787  0.83193525  0.28926445  1
  S  S160  1  0.93528601  0.83057519  0.62307217  1
  S  S161  1  0.93435626  0.82862387  0.95249189  1
  S  S162  1  0.17080657  0.06887289  0.21157867  1
  S  S163  1  0.16231263  0.06705416  0.54117292  1
  S  S164  1  0.17115362  0.06877981  0.87740817  1
  S  S165  1  0.16163346  0.57468552  0.20467410  1
  S  S166  1  0.16515882  0.56122296  0.54368311  1
  S  S167  1  0.16366128  0.56316541  0.87482463  1
  S  S168  1  0.67321200  0.07292703  0.20689628  1
  S  S169  1  0.67060912  0.05812726  0.54121634  1
  S  S170  1  0.67376655  0.06913427  0.87793367  1
  S  S171  1  0.67058530  0.56371840  0.20982955  1
  S  S172  1  0.67179008  0.57196921  0.54263878  1
  S  S173  1  0.66788866  0.56954331  0.87552043  1
  O  O174  1  0.36430276  0.21236008  0.07081158  1
  O  O175  1  0.36934939  0.22172206  0.41346704  1
  O  O176  1  0.36991252  0.21661307  0.73795708  1
  O  O177  1  0.36637657  0.72376564  0.07778014  1
  O  O178  1  0.37380488  0.72595801  0.40947433  1
  O  O179  1  0.36138366  0.71261753  0.74119765  1
  O  O180  1  0.86933265  0.22046766  0.08060287  1
  O  O181  1  0.86659504  0.21917836  0.40934616  1
  O  O182  1  0.87220067  0.21620562  0.73859435  1
  O  O183  1  0.86523451  0.72164681  0.07892124  1
  O  O184  1  0.86637116  0.71894940  0.40596541  1
  O  O185  1  0.87820136  0.71694638  0.73591125  1
  O  O186  1  0.28533536  0.12259394  0.09570672  1
  O  O187  1  0.27529764  0.13293685  0.42070934  1
  O  O188  1  0.27773308  0.13283586  0.75340371  1
  O  O189  1  0.27011092  0.63629417  0.08031583  1
  O  O190  1  0.28077039  0.64610451  0.42840527  1
  O  O191  1  0.28586248  0.62130092  0.76851887  1
  O  O192  1  0.78190377  0.12612601  0.09042496  1
  O  O193  1  0.77774585  0.13025596  0.42392931  1
  O  O194  1  0.78429055  0.13119829  0.75755393  1
  O  O195  1  0.77939373  0.63107026  0.09418935  1
  O  O196  1  0.77987643  0.63015401  0.42225933  1
  O  O197  1  0.78771952  0.63772521  0.75997719  1
  O  O198  1  0.12491054  0.27536200  0.25811200  1
  O  O199  1  0.12642456  0.28011628  0.59424000  1
  O  O200  1  0.13295391  0.28214470  0.92628018  1
  O  O201  1  0.12551728  0.78486090  0.26060682  1
  O  O202  1  0.12902446  0.78333282  0.58905447  1
  O  O203  1  0.13343898  0.78072149  0.92512022  1
  O  O204  1  0.63232641  0.27949947  0.25510409  1
  O  O205  1  0.64343060  0.27734004  0.58456842  1
  O  O206  1  0.63530948  0.28033625  0.92124445  1
  O  O207  1  0.63368359  0.78415864  0.26014677  1
  O  O208  1  0.63300016  0.77982399  0.59130835  1
  O  O209  1  0.61814905  0.78405561  0.93010414  1
  O  O210  1  0.21222100  0.35607208  0.23172381  1
  O  O211  1  0.21600713  0.36684280  0.57842451  1
  O  O212  1  0.21915191  0.37150343  0.91031047  1
  O  O213  1  0.21288770  0.87018308  0.24014728  1
  O  O214  1  0.21588488  0.87266259  0.57288211  1
  O  O215  1  0.22080705  0.86681512  0.90637886  1
  O  O216  1  0.72465723  0.36807654  0.24666596  1
  O  O217  1  0.71633831  0.37503030  0.56383619  1
  O  O218  1  0.71958070  0.37176476  0.90545026  1
  O  O219  1  0.72343861  0.87161430  0.24392170  1
  O  O220  1  0.71984226  0.86613622  0.57243358  1
  O  O221  1  0.71215079  0.86103994  0.90600870  1
  O  O222  1  0.42484350  0.12961288  0.14834223  1
  O  O223  1  0.41306691  0.12401823  0.47854399  1
  O  O224  1  0.41567240  0.13167703  0.81714162  1
  O  O225  1  0.40680950  0.62941343  0.14691048  1
  O  O226  1  0.41660688  0.64343869  0.49265171  1
  O  O227  1  0.42472157  0.62934271  0.81777613  1
  O  O228  1  0.92001011  0.13285102  0.15480243  1
  O  O229  1  0.91560427  0.13124577  0.48500770  1
  O  O230  1  0.92302436  0.13296935  0.81968761  1
  O  O231  1  0.91754582  0.63049324  0.14957955  1
  O  O232  1  0.91763373  0.63608960  0.48676367  1
  O  O233  1  0.92530735  0.62987416  0.81536580  1
  O  O234  1  0.36921138  0.07392831  0.01425515  1
  O  O235  1  0.36110003  0.08487259  0.34294280  1
  O  O236  1  0.36534856  0.07886341  0.67998576  1
  O  O237  1  0.36194102  0.58621637  0.01013111  1
  O  O238  1  0.36721252  0.58609083  0.35553610  1
  O  O239  1  0.36492695  0.57526704  0.68225485  1
  O  O240  1  0.87254183  0.08244141  0.01765116  1
  O  O241  1  0.86675817  0.08089382  0.34923786  1
  O  O242  1  0.87389551  0.07755314  0.68420973  1
  O  O243  1  0.86453571  0.58407667  0.01405741  1
  O  O244  1  0.87100980  0.58069436  0.35025894  1
  O  O245  1  0.87055794  0.57826016  0.68136040  1
  O  O246  1  0.07458180  0.36548941  0.18293849  1
  O  O247  1  0.07810832  0.36663634  0.51700891  1
  O  O248  1  0.08072128  0.36730770  0.84838632  1
  O  O249  1  0.07451140  0.87092737  0.18264911  1
  O  O250  1  0.07758569  0.87169960  0.51407101  1
  O  O251  1  0.08336855  0.86547270  0.84603992  1
  O  O252  1  0.58538810  0.37432751  0.18746096  1
  O  O253  1  0.57683219  0.36273906  0.51383777  1
  O  O254  1  0.58044940  0.37204696  0.85117283  1
  O  O255  1  0.58612986  0.86489960  0.17831719  1
  O  O256  1  0.58225921  0.86677828  0.51406375  1
  O  O257  1  0.57496354  0.87363946  0.85527286  1
  O  O258  1  0.13655454  0.41432468  0.31720018  1
  O  O259  1  0.12723140  0.41877486  0.65263691  1
  O  O260  1  0.12822839  0.41988579  0.98388652  1
  O  O261  1  0.12823440  0.92310581  0.31850877  1
  O  O262  1  0.12762400  0.92172585  0.64925631  1
  O  O263  1  0.13449765  0.91888673  0.98280365  1
  O  O264  1  0.63858424  0.41675514  0.32313045  1
  O  O265  1  0.63576247  0.41470720  0.64850375  1
  O  O266  1  0.63739044  0.41776263  0.98721933  1
  O  O267  1  0.63333392  0.92254152  0.31523035  1
  O  O268  1  0.63355733  0.91873827  0.64974553  1
  O  O269  1  0.63754102  0.92277771  0.99084829  1
  O  O270  1  0.03186630  0.20290492  0.10461458  1
  O  O271  1  0.02555970  0.19801497  0.43743214  1
  O  O272  1  0.03267863  0.20142051  0.77234469  1
  O  O273  1  0.02576656  0.70207539  0.10180349  1
  O  O274  1  0.02541322  0.70725575  0.44036267  1
  O  O275  1  0.03614879  0.69988895  0.77312021  1
  O  O276  1  0.53758251  0.18386134  0.10026095  1
  O  O277  1  0.52375056  0.19986258  0.42840850  1
  O  O278  1  0.53485192  0.19792254  0.77401198  1
  O  O279  1  0.52134788  0.69373436  0.09441094  1
  O  O280  1  0.53630552  0.70075919  0.44099655  1
  O  O281  1  0.53324262  0.70008945  0.77540299  1
  O  O282  1  0.29485558  0.47530997  0.05522636  1
  O  O283  1  0.31455803  0.43958705  0.39544918  1
  O  O284  1  0.29711562  0.46261172  0.72624843  1
  O  O285  1  0.29578888  0.96304941  0.05899650  1
  O  O286  1  0.29626840  0.97151675  0.39552816  1
  O  O287  1  0.29041711  0.97235202  0.72638968  1
  O  O288  1  0.80564448  0.47247258  0.06230174  1
  O  O289  1  0.80595334  0.47107980  0.39748034  1
  O  O290  1  0.81375755  0.46237447  0.72802350  1
  O  O291  1  0.79597714  0.96946436  0.06469222  1
  O  O292  1  0.80246605  0.97096401  0.39659085  1
  O  O293  1  0.79800546  0.96570718  0.72169120  1
  O  O294  1  0.47892062  0.29098758  0.23936810  1
  O  O295  1  0.47006460  0.29704856  0.56428303  1
  O  O296  1  0.47003037  0.29716399  0.88988276  1
  O  O297  1  0.46504895  0.81879771  0.23345313  1
  O  O298  1  0.47423082  0.80548621  0.56239726  1
  O  O299  1  0.46288616  0.79106404  0.89783497  1
  O  O300  1  0.96547117  0.29889821  0.23087100  1
  O  O301  1  0.96543082  0.29849904  0.56076580  1
  O  O302  1  0.96893118  0.30169522  0.89650676  1
  O  O303  1  0.96513745  0.80097608  0.22705095  1
  O  O304  1  0.97085355  0.79972673  0.56157837  1
  O  O305  1  0.97495669  0.79268542  0.89298191  1
  O  O306  1  0.19945211  0.02908217  0.27089356  1
  O  O307  1  0.19315866  0.03351133  0.60310201  1
  O  O308  1  0.20009946  0.02989622  0.93656368  1
  O  O309  1  0.18397915  0.54676747  0.26860394  1
  O  O310  1  0.19785816  0.53057821  0.60942181  1
  O  O311  1  0.19308384  0.52742721  0.93552831  1
  O  O312  1  0.69788895  0.03203749  0.26542936  1
  O  O313  1  0.70924343  0.02563967  0.60447622  1
  O  O314  1  0.69801440  0.03415400  0.93942879  1
  O  O315  1  0.70813105  0.52720512  0.27077955  1
  O  O316  1  0.70162495  0.53611633  0.60240441  1
  O  O317  1  0.69606194  0.53759892  0.94265161  1
  O  O318  1  0.09518971  0.09704368  0.04347611  1
  O  O319  1  0.07718933  0.08485293  0.36958228  1
  O  O320  1  0.07960738  0.08527680  0.70431910  1
  O  O321  1  0.08023825  0.58841968  0.03783015  1
  O  O322  1  0.07154318  0.59026826  0.37656169  1
  O  O323  1  0.08176229  0.58349651  0.70478154  1
  O  O324  1  0.59981734  0.08443196  0.03142505  1
  O  O325  1  0.58957955  0.09441119  0.37688795  1
  O  O326  1  0.59764509  0.08969310  0.71146644  1
  O  O327  1  0.57469543  0.58207289  0.02899766  1
  O  O328  1  0.58560948  0.58798165  0.36760244  1
  O  O329  1  0.58302071  0.59047769  0.70137565  1
  O  O330  1  0.41643645  0.43723542  0.12294107  1
  O  O331  1  0.41959894  0.39900905  0.48405659  1
  O  O332  1  0.40924503  0.41018019  0.79434037  1
  O  O333  1  0.40455404  0.90531410  0.12341249  1
  O  O334  1  0.40859982  0.91865355  0.46424572  1
  O  O335  1  0.39716832  0.90841284  0.78447846  1
  O  O336  1  0.91597289  0.41794914  0.12868859  1
  O  O337  1  0.91852285  0.41940412  0.46524757  1
  O  O338  1  0.92150381  0.41606302  0.80507114  1
  O  O339  1  0.90703684  0.91137494  0.12435737  1
  O  O340  1  0.91624900  0.91877203  0.46079088  1
  O  O341  1  0.91128308  0.91235689  0.78421987  1
  O  O342  1  0.42018241  0.40224324  0.29272003  1
  O  O343  1  0.41432072  0.40690377  0.63216656  1
  O  O344  1  0.42061680  0.41449982  0.95611911  1
  O  O345  1  0.41099858  0.92323909  0.30876840  1
  O  O346  1  0.41908134  0.92002362  0.62169641  1
  O  O347  1  0.41250284  0.90626345  0.96344930  1
  O  O348  1  0.91806088  0.41448855  0.29889942  1
  O  O349  1  0.91543465  0.41312374  0.62744250  1
  O  O350  1  0.91606229  0.41563005  0.96149456  1
  O  O351  1  0.91347876  0.91399516  0.29441963  1
  O  O352  1  0.92244963  0.91467045  0.62943884  1
  O  O353  1  0.91588216  0.90478345  0.94971645  1
  O  O354  1  0.08972708  0.08685584  0.20983252  1
  O  O355  1  0.07834753  0.08196303  0.53533800  1
  O  O356  1  0.09070724  0.09026429  0.87447485  1
  O  O357  1  0.07591299  0.59128006  0.19021086  1
  O  O358  1  0.08279246  0.58207205  0.54319791  1
  O  O359  1  0.08007056  0.57857562  0.86879226  1
  O  O360  1  0.59080159  0.08987295  0.19618729  1
  O  O361  1  0.58855400  0.06467950  0.53684708  1
  O  O362  1  0.59213313  0.08959167  0.86772889  1
  O  O363  1  0.59019240  0.57373869  0.20775260  1
  O  O364  1  0.59147417  0.59142877  0.53948556  1
  O  O365  1  0.58975659  0.59924294  0.87654422  1
  O  O366  1  0.14222592  0.23218434  0.06445628  1
  O  O367  1  0.13505838  0.21837629  0.39438874  1
  O  O368  1  0.13355441  0.21664219  0.71719033  1
  O  O369  1  0.13328277  0.72203970  0.05631633  1
  O  O370  1  0.13499256  0.72056150  0.39620537  1
  O  O371  1  0.14050682  0.71456079  0.72180714  1
  O  O372  1  0.64200411  0.22308540  0.05824225  1
  O  O373  1  0.63736563  0.22810136  0.39214822  1
  O  O374  1  0.63661906  0.22468188  0.72510388  1
  O  O375  1  0.63528557  0.71528264  0.05718609  1
  O  O376  1  0.63814025  0.72174119  0.39032604  1
  O  O377  1  0.64177745  0.72514402  0.73420804  1
  O  O378  1  0.28910186  0.36741690  0.10257023  1
  O  O379  1  0.28233338  0.35119512  0.45615916  1
  O  O380  1  0.27553803  0.35797319  0.77410008  1
  O  O381  1  0.26954894  0.85823270  0.10573261  1
  O  O382  1  0.27413008  0.86135988  0.43718404  1
  O  O383  1  0.26385128  0.86728585  0.77246415  1
  O  O384  1  0.78175907  0.36439716  0.10666643  1
  O  O385  1  0.78556055  0.36314278  0.44320897  1
  O  O386  1  0.78664749  0.35781379  0.77591710  1
  O  O387  1  0.77549187  0.86799802  0.11840176  1
  O  O388  1  0.78403258  0.86194194  0.44217545  1
  O  O389  1  0.78037465  0.86047661  0.77145946  1
  O  O390  1  0.36272427  0.26938448  0.27140877  1
  O  O391  1  0.36096204  0.27228951  0.60660802  1
  O  O392  1  0.37067640  0.28337857  0.94598134  1
  O  O393  1  0.35877905  0.78630112  0.27578656  1
  O  O394  1  0.37144342  0.79010555  0.61528244  1
  O  O395  1  0.35533121  0.77448279  0.94280976  1
  O  O396  1  0.86643095  0.28301926  0.28802402  1
  O  O397  1  0.85828214  0.28040082  0.60776016  1
  O  O398  1  0.86150018  0.28241983  0.94311387  1
  O  O399  1  0.86009257  0.78047017  0.27560758  1
  O  O400  1  0.86170101  0.78251269  0.60609875  1
  O  O401  1  0.86768083  0.77156246  0.93847833  1
  O  O402  1  0.22324649  0.13945625  0.22922639  1
  O  O403  1  0.21058548  0.13980542  0.55458527  1
  O  O404  1  0.22539611  0.13710707  0.89202469  1
  O  O405  1  0.21073599  0.64615600  0.21470676  1
  O  O406  1  0.21491108  0.63083029  0.55421383  1
  O  O407  1  0.21263497  0.63544609  0.88965229  1
  O  O408  1  0.72703985  0.14383342  0.22959025  1
  O  O409  1  0.71700698  0.13380622  0.55770523  1
  O  O410  1  0.72879339  0.13900693  0.89518058  1
  O  O411  1  0.72018055  0.63717009  0.22624238  1
  O  O412  1  0.72518763  0.64366768  0.55866895  1
  O  O413  1  0.72493450  0.63493006  0.88880246  1
  O  O414  1  0.50478282  0.33988643  0.02537833  1
  O  O415  1  0.48585684  0.32459223  0.37097135  1
  O  O416  1  0.49119033  0.32438897  0.69605726  1
  O  O417  1  0.48754247  0.82718178  0.03236275  1
  O  O418  1  0.48975007  0.83765750  0.36499646  1
  O  O419  1  0.50407208  0.85317066  0.69765690  1
  O  O420  1  0.99254528  0.33684231  0.03059282  1
  O  O421  1  0.99923520  0.33868668  0.36713477  1
  O  O422  1  0.99014799  0.33207333  0.69496775  1
  O  O423  1  0.99470135  0.83149248  0.02677137  1
  O  O424  1  0.99167754  0.83572064  0.36185272  1
  O  O425  1  0.99344912  0.83049976  0.69513727  1
  O  O426  1  0.16687882  0.01030253  0.13825091  1
  O  O427  1  0.15903488  0.00769439  0.46807031  1
  O  O428  1  0.16229952  0.00842901  0.80268342  1
  O  O429  1  0.16087617  0.51147457  0.13351916  1
  O  O430  1  0.15421575  0.49731751  0.47360641  1
  O  O431  1  0.16169119  0.50379572  0.80203983  1
  O  O432  1  0.67631803  0.01549347  0.13455715  1
  O  O433  1  0.67469376  0.00220267  0.46891744  1
  O  O434  1  0.67327182  0.00762041  0.80698924  1
  O  O435  1  0.67207703  0.50739590  0.13621288  1
  O  O436  1  0.66999666  0.51383504  0.46903153  1
  O  O437  1  0.65808278  0.50414877  0.80804893  1
  O  O438  1  0.00416858  0.16745677  0.30390205  1
  O  O439  1  0.00034540  0.16306578  0.63642556  1
  O  O440  1  0.01389497  0.17327932  0.97366018  1
  O  O441  1  0.00470230  0.67223816  0.30566022  1
  O  O442  1  0.00723258  0.66532484  0.63818071  1
  O  O443  1  0.00337761  0.66457874  0.96769762  1
  O  O444  1  0.51361318  0.16366742  0.29607134  1
  O  O445  1  0.50755405  0.15514376  0.63873756  1
  O  O446  1  0.51355695  0.16349205  0.96895103  1
  O  O447  1  0.50431735  0.66952757  0.30585711  1
  O  O448  1  0.51112261  0.68097747  0.64399242  1
  O  O449  1  0.50660399  0.66680571  0.96195450  1
  O  O450  1  0.32978124  0.50045529  0.19052916  1
  O  O451  1  0.33334364  0.48661500  0.53111073  1
  O  O452  1  0.32947569  0.48966496  0.86020561  1
  O  O453  1  0.32827593  0.98752341  0.19294554  1
  O  O454  1  0.32330280  0.99203287  0.52772914  1
  O  O455  1  0.32853393  0.99390895  0.86084242  1
  O  O456  1  0.83582293  0.49401332  0.19614010  1
  O  O457  1  0.83722130  0.49489186  0.53153260  1
  O  O458  1  0.83266137  0.49142241  0.86091022  1
  O  O459  1  0.84200375  0.99796007  0.20017569  1
  O  O460  1  0.83850563  0.99250216  0.53120826  1
  O  O461  1  0.83634662  0.99331215  0.85617266  1
