# generated using pymatgen
data_Na31Fe20(SO4)36
_symmetry_space_group_name_H-M   'P 1'
_cell_length_a   18.07701433
_cell_length_b   18.08283295
_cell_length_c   19.71913644
_cell_angle_alpha   107.59331051
_cell_angle_beta   107.59152085
_cell_angle_gamma   90.72529609
_symmetry_Int_Tables_number   1
_chemical_formula_structural   Na31Fe20(SO4)36
_chemical_formula_sum   'Na62 Fe40 S72 O288'
_cell_volume   5818.52768666
_cell_formula_units_Z   2
loop_
 _symmetry_equiv_pos_site_id
 _symmetry_equiv_pos_as_xyz
  1  'x, y, z'
loop_
 _atom_site_type_symbol
 _atom_site_label
 _atom_site_symmetry_multiplicity
 _atom_site_fract_x
 _atom_site_fract_y
 _atom_site_fract_z
 _atom_site_occupancy
  Na  Na0  1  0.13119841  0.36549621  0.08053354  1
  Na  Na1  1  0.12970988  0.38034169  0.41822777  1
  Na  Na2  1  0.13600297  0.35904109  0.74583820  1
  Na  Na3  1  0.14073500  0.86493587  0.08276845  1
  Na  Na4  1  0.13356292  0.86433556  0.42719661  1
  Na  Na5  1  0.11743440  0.85663216  0.73044701  1
  Na  Na6  1  0.64958310  0.37181867  0.10250569  1
  Na  Na7  1  0.64046506  0.35778287  0.41101407  1
  Na  Na8  1  0.63340908  0.36201760  0.74531930  1
  Na  Na9  1  0.63383240  0.85503029  0.07673740  1
  Na  Na10  1  0.63521379  0.86396127  0.41249207  1
  Na  Na11  1  0.63781538  0.86243186  0.75704093  1
  Na  Na12  1  0.36527979  0.12552920  0.24480987  1
  Na  Na13  1  0.36563012  0.12750831  0.58490878  1
  Na  Na14  1  0.37045991  0.13618547  0.92498142  1
  Na  Na15  1  0.37046252  0.62853872  0.25074893  1
  Na  Na16  1  0.36380981  0.63050191  0.57305337  1
  Na  Na17  1  0.36738385  0.64069738  0.91722739  1
  Na  Na18  1  0.86350857  0.13508528  0.25352405  1
  Na  Na19  1  0.87351184  0.14654098  0.59700232  1
  Na  Na20  1  0.86327909  0.13265201  0.90960676  1
  Na  Na21  1  0.86612698  0.64482582  0.25953133  1
  Na  Na22  1  0.86234954  0.64609788  0.58625623  1
  Na  Na23  1  0.85552498  0.63793496  0.91317854  1
  Na  Na24  1  0.49723362  0.55572217  0.76548773  1
  Na  Na25  1  1.01099308  0.46331443  0.78508310  1
  Na  Na26  1  0.45270488  -0.00027718  0.73938953  1
  Na  Na27  1  1.02253916  -0.00638987  0.07112490  1
  Na  Na28  1  0.49686987  0.51019654  0.39054619  1
  Na  Na29  1  0.48366441  0.00316891  0.10640119  1
  Na  Na30  1  0.49990670  0.00265713  0.40340335  1
  Na  Na31  1  0.49145891  0.50145437  0.09886681  1
  Na  Na32  1  0.99046098  0.51001634  0.08295843  1
  Na  Na33  1  0.00714361  0.99077800  0.26093952  1
  Na  Na34  1  0.03694704  0.99929050  0.90173573  1
  Na  Na35  1  -0.01815673  0.54854504  0.52391370  1
  Na  Na36  1  -0.00388051  0.93659844  0.56151001  1
  Na  Na37  1  0.50695778  0.97781027  0.92284733  1
  Na  Na38  1  0.51554821  0.49192637  0.58099571  1
  Na  Na39  1  -0.03825819  0.52017343  0.31189069  1
  Na  Na40  1  0.50145995  0.98816309  0.58287220  1
  Na  Na41  1  0.50058112  0.50565372  0.92130278  1
  Na  Na42  1  0.74698661  0.74933226  0.67256708  1
  Na  Na43  1  0.23648696  0.23795719  0.00696765  1
  Na  Na44  1  0.75958118  0.25972083  -0.00221139  1
  Na  Na45  1  0.24715649  0.24777272  0.33517891  1
  Na  Na46  1  0.24698753  0.24650399  0.67027409  1
  Na  Na47  1  0.76724511  0.76668097  0.32121643  1
  Na  Na48  1  0.24415231  0.73831300  0.34053423  1
  Na  Na49  1  0.73624813  0.73954446  0.00259153  1
  Na  Na50  1  0.25148674  0.75260514  -0.00217843  1
  Na  Na51  1  0.24318086  0.75006939  0.66232521  1
  Na  Na52  1  0.24909842  0.24765657  0.50123832  1
  Na  Na53  1  0.22634027  0.72766492  0.49809427  1
  Na  Na54  1  0.24633890  0.75570105  0.82800023  1
  Na  Na55  1  0.77339964  0.76501942  0.48943832  1
  Na  Na56  1  0.24571759  0.74245491  0.17052782  1
  Na  Na57  1  0.75551684  0.25292987  0.50527591  1
  Na  Na58  1  0.23482690  0.23046214  0.16829281  1
  Na  Na59  1  0.74943854  0.25116529  0.18226925  1
  Na  Na60  1  0.24597884  0.24432216  0.84076786  1
  Na  Na61  1  0.76870053  0.26335328  0.81544310  1
  Fe  Fe62  1  0.47034227  0.80337754  0.11972787  1
  Fe  Fe63  1  0.96240667  0.31447953  0.45223925  1
  Fe  Fe64  1  0.46824247  0.80003528  0.78616262  1
  Fe  Fe65  1  0.96212877  0.80842803  0.11691596  1
  Fe  Fe66  1  0.46158839  0.30961890  0.12095779  1
  Fe  Fe67  1  0.46615610  0.80406602  0.45151609  1
  Fe  Fe68  1  0.96136962  0.80681501  0.78634392  1
  Fe  Fe69  1  0.46771526  0.30844997  0.78866645  1
  Fe  Fe70  1  0.96468407  0.31187734  0.12350153  1
  Fe  Fe71  1  0.46710093  0.30510360  0.45263009  1
  Fe  Fe72  1  0.69298173  0.03614156  0.05164118  1
  Fe  Fe73  1  0.18836393  0.53476755  0.04188620  1
  Fe  Fe74  1  0.20013816  0.02973511  0.70367857  1
  Fe  Fe75  1  0.68991222  0.04017800  0.38039986  1
  Fe  Fe76  1  0.19798847  0.03103074  0.38311345  1
  Fe  Fe77  1  0.18451202  0.53835088  0.70735238  1
  Fe  Fe78  1  0.69950706  0.52886091  0.37498348  1
  Fe  Fe79  1  0.69644115  0.53389071  0.05145831  1
  Fe  Fe80  1  0.69344046  0.53520679  0.71828108  1
  Fe  Fe81  1  0.69348204  0.03568454  0.71836622  1
  Fe  Fe82  1  0.53592610  0.19146606  0.88366616  1
  Fe  Fe83  1  0.53464663  0.19561436  0.21920706  1
  Fe  Fe84  1  0.03554728  0.18830695  0.20928812  1
  Fe  Fe85  1  0.03158347  0.68986312  0.87761209  1
  Fe  Fe86  1  0.54175185  0.69402708  0.21691841  1
  Fe  Fe87  1  0.53721228  0.19323755  0.55228306  1
  Fe  Fe88  1  0.54026735  0.69009141  0.54624284  1
  Fe  Fe89  1  0.03327030  0.19235607  0.54206534  1
  Fe  Fe90  1  0.02920188  0.19707507  0.86945250  1
  Fe  Fe91  1  0.03239173  0.69700246  0.21883899  1
  Fe  Fe92  1  0.30835455  0.96234798  0.28536300  1
  Fe  Fe93  1  0.29601530  0.46596133  0.28566827  1
  Fe  Fe94  1  0.31024457  0.46719593  0.61982124  1
  Fe  Fe95  1  0.80562696  0.97045356  0.62101555  1
  Fe  Fe96  1  0.81295016  0.46425950  0.62306488  1
  Fe  Fe97  1  0.81353083  0.96593987  0.29079569  1
  Fe  Fe98  1  0.30728222  0.46386006  0.95111715  1
  Fe  Fe99  1  0.80946747  0.46317471  0.95006725  1
  Fe  Fe100  1  0.29929966  0.96861524  0.95750263  1
  Fe  Fe101  1  0.80638531  0.96629176  0.95335677  1
  S  S102  1  0.36242643  0.14020229  0.08436139  1
  S  S103  1  0.36339005  0.13887880  0.41788211  1
  S  S104  1  0.36225736  0.14408974  0.75410760  1
  S  S105  1  0.36147533  0.63734578  0.08221543  1
  S  S106  1  0.36527988  0.63615924  0.41358731  1
  S  S107  1  0.35745700  0.64323160  0.75071066  1
  S  S108  1  0.85793341  0.14182917  0.08434998  1
  S  S109  1  0.85910139  0.14422820  0.41641473  1
  S  S110  1  0.85542765  0.14214128  0.75014200  1
  S  S111  1  0.85969660  0.64014853  0.07979400  1
  S  S112  1  0.85344611  0.64030849  0.41701382  1
  S  S113  1  0.85494372  0.64122648  0.75191010  1
  S  S114  1  0.14237009  0.35139660  0.24415415  1
  S  S115  1  0.14286821  0.35942888  0.58241281  1
  S  S116  1  0.14131010  0.36137656  0.91274454  1
  S  S117  1  0.14019877  0.85968086  0.24733202  1
  S  S118  1  0.14387355  0.85656005  0.58560822  1
  S  S119  1  0.13567636  0.85977740  0.91716670  1
  S  S120  1  0.63239588  0.36243417  0.25117758  1
  S  S121  1  0.63980774  0.36034029  0.58456698  1
  S  S122  1  0.64203088  0.35684297  0.92000738  1
  S  S123  1  0.64087279  0.86491559  0.25105716  1
  S  S124  1  0.63945527  0.86319486  0.58270305  1
  S  S125  1  0.63910678  0.86292558  0.91944011  1
  S  S126  1  0.05946518  0.16659528  0.03537506  1
  S  S127  1  0.07144661  0.16906066  0.37387785  1
  S  S128  1  0.07689273  0.16685118  0.70478384  1
  S  S129  1  0.06661339  0.67221331  0.04184301  1
  S  S130  1  0.07007853  0.66676325  0.37083176  1
  S  S131  1  0.06056949  0.66779241  0.71159270  1
  S  S132  1  0.57006283  0.17255414  0.04705263  1
  S  S133  1  0.56549881  0.17031251  0.37962977  1
  S  S134  1  0.56607665  0.16777500  0.71204631  1
  S  S135  1  0.56442721  0.66338434  0.04289118  1
  S  S136  1  0.57711979  0.67065353  0.37709589  1
  S  S137  1  0.56631055  0.66761100  0.70348551  1
  S  S138  1  0.32464154  0.43111498  0.12020104  1
  S  S139  1  0.33620162  0.42847407  0.45889760  1
  S  S140  1  0.33413500  0.43452895  0.79164616  1
  S  S141  1  0.33347661  0.92749613  0.12576307  1
  S  S142  1  0.33814624  0.93263597  0.45563148  1
  S  S143  1  0.32925452  0.93297866  0.79426047  1
  S  S144  1  0.83641263  0.43997827  0.12595423  1
  S  S145  1  0.82619808  0.43267744  0.46172212  1
  S  S146  1  0.82509472  0.43440373  0.78905008  1
  S  S147  1  0.82944223  0.93489134  0.12343301  1
  S  S148  1  0.82465439  0.93921627  0.45369398  1
  S  S149  1  0.82841134  0.93365704  0.79352210  1
  S  S150  1  0.42390047  0.32616617  0.28945104  1
  S  S151  1  0.43412355  0.33186676  0.62680114  1
  S  S152  1  0.43694699  0.33491227  0.96059263  1
  S  S153  1  0.43379638  0.82516652  0.28872710  1
  S  S154  1  0.43767030  0.82466328  0.62136851  1
  S  S155  1  0.42879367  0.83519169  0.95955866  1
  S  S156  1  0.93563654  0.32275949  0.28634007  1
  S  S157  1  0.93886357  0.33252545  0.62199796  1
  S  S158  1  0.93341383  0.32747225  0.95767111  1
  S  S159  1  0.93887938  0.83598058  0.28973811  1
  S  S160  1  0.92023942  0.83637174  0.62942462  1
  S  S161  1  0.93116502  0.83277759  0.95901637  1
  S  S162  1  0.17091831  0.06113986  0.20986098  1
  S  S163  1  0.17609123  0.07247629  0.54324462  1
  S  S164  1  0.17726548  0.07376188  0.87198662  1
  S  S165  1  0.16992395  0.56828324  0.20426843  1
  S  S166  1  0.17714812  0.56729085  0.54938243  1
  S  S167  1  0.17312580  0.56881019  0.87550877  1
  S  S168  1  0.66808951  0.06993805  0.20908922  1
  S  S169  1  0.66343466  0.06718544  0.54010804  1
  S  S170  1  0.66356129  0.06692223  0.87684561  1
  S  S171  1  0.67116496  0.56939116  0.21257662  1
  S  S172  1  0.66893064  0.56466899  0.53926474  1
  S  S173  1  0.66595626  0.55688117  0.87843782  1
  O  O174  1  0.37506648  0.21699032  0.07128553  1
  O  O175  1  0.37078802  0.21703397  0.40777312  1
  O  O176  1  0.36891564  0.22549451  0.75027667  1
  O  O177  1  0.37211853  0.71490167  0.07170824  1
  O  O178  1  0.37923791  0.71235694  0.39986204  1
  O  O179  1  0.36539233  0.72266651  0.74213041  1
  O  O180  1  0.86693545  0.22248424  0.08012088  1
  O  O181  1  0.87211538  0.22098061  0.40656306  1
  O  O182  1  0.86050238  0.22026961  0.74529589  1
  O  O183  1  0.86815178  0.71799734  0.06892987  1
  O  O184  1  0.84939109  0.71801400  0.40784873  1
  O  O185  1  0.86516635  0.72079985  0.74550450  1
  O  O186  1  0.28582734  0.13502206  0.09368944  1
  O  O187  1  0.28348899  0.12942985  0.42363797  1
  O  O188  1  0.28044427  0.13094452  0.75628714  1
  O  O189  1  0.28169190  0.63058065  0.08894084  1
  O  O190  1  0.29028576  0.63357403  0.42621537  1
  O  O191  1  0.27640549  0.63319297  0.75459770  1
  O  O192  1  0.78004312  0.13243243  0.09501021  1
  O  O193  1  0.77928864  0.13704597  0.42337058  1
  O  O194  1  0.77940160  0.12710247  0.76520155  1
  O  O195  1  0.77937175  0.62995124  0.08332462  1
  O  O196  1  0.77183103  0.62181687  0.42523922  1
  O  O197  1  0.77618674  0.63233003  0.75997606  1
  O  O198  1  0.13700339  0.26601775  0.24045215  1
  O  O199  1  0.13348602  0.27979170  0.58980502  1
  O  O200  1  0.13206348  0.28067117  0.91805722  1
  O  O201  1  0.13231683  0.77910058  0.25114566  1
  O  O202  1  0.12587993  0.78897829  0.60684564  1
  O  O203  1  0.12807356  0.77926843  0.92360422  1
  O  O204  1  0.61932895  0.28766421  0.26620894  1
  O  O205  1  0.62779811  0.28379876  0.59556658  1
  O  O206  1  0.62959749  0.27854820  0.92878235  1
  O  O207  1  0.63295233  0.78768655  0.26355084  1
  O  O208  1  0.63358413  0.78451173  0.59138539  1
  O  O209  1  0.63188649  0.78868145  0.93232407  1
  O  O210  1  0.22048421  0.36360835  0.23348104  1
  O  O211  1  0.22254132  0.36759614  0.57501594  1
  O  O212  1  0.22394942  0.36986515  0.90940045  1
  O  O213  1  0.21792000  0.86839887  0.23609005  1
  O  O214  1  0.22193332  0.85708328  0.57707891  1
  O  O215  1  0.21654742  0.86918134  0.91221354  1
  O  O216  1  0.70620573  0.36648425  0.23650429  1
  O  O217  1  0.71996124  0.36925942  0.58063410  1
  O  O218  1  0.72171987  0.36176572  0.91293416  1
  O  O219  1  0.72116220  0.87585978  0.24750835  1
  O  O220  1  0.71536849  0.87510162  0.57049414  1
  O  O221  1  0.71626222  0.87753197  0.91010124  1
  O  O222  1  0.42389677  0.13202908  0.15206131  1
  O  O223  1  0.42083762  0.13409819  0.48813410  1
  O  O224  1  0.41709362  0.13775128  0.82570740  1
  O  O225  1  0.41985587  0.62979796  0.15092455  1
  O  O226  1  0.42874473  0.62623127  0.47827152  1
  O  O227  1  0.41444743  0.63694435  0.81899634  1
  O  O228  1  0.91869165  0.12963153  0.14907512  1
  O  O229  1  0.91646934  0.13696772  0.48579265  1
  O  O230  1  0.91844074  0.13000668  0.81401409  1
  O  O231  1  0.91744453  0.63470493  0.14946544  1
  O  O232  1  0.90975629  0.63861429  0.48763305  1
  O  O233  1  0.91418737  0.63237580  0.81939749  1
  O  O234  1  0.37037068  0.07837216  0.01774051  1
  O  O235  1  0.37490746  0.07863926  0.35218982  1
  O  O236  1  0.37696670  0.08807814  0.69006756  1
  O  O237  1  0.36991897  0.57607432  0.01553468  1
  O  O238  1  0.36957730  0.57344140  0.34479950  1
  O  O239  1  0.37029529  0.58474355  0.68393565  1
  O  O240  1  0.86131832  0.08533702  0.01293696  1
  O  O241  1  0.86633120  0.08257524  0.34915425  1
  O  O242  1  0.85714924  0.08402148  0.67861542  1
  O  O243  1  0.87272422  0.57990119  0.01446417  1
  O  O244  1  0.86328343  0.58209226  0.35099256  1
  O  O245  1  0.86131921  0.58380528  0.68246975  1
  O  O246  1  0.08262288  0.36242331  0.17790742  1
  O  O247  1  0.08419209  0.36692874  0.51453646  1
  O  O248  1  0.08680932  0.37206486  0.84599680  1
  O  O249  1  0.07940760  0.87201996  0.18232761  1
  O  O250  1  0.08483509  0.86734273  0.52068644  1
  O  O251  1  0.07918302  0.86647077  0.84640125  1
  O  O252  1  0.56875142  0.37118781  0.18571451  1
  O  O253  1  0.58328961  0.36558394  0.51309847  1
  O  O254  1  0.58440903  0.36443992  0.85072589  1
  O  O255  1  0.58413721  0.86622679  0.17885983  1
  O  O256  1  0.57636129  0.87099239  0.51640964  1
  O  O257  1  0.57786971  0.86808656  0.84982317  1
  O  O258  1  0.13754336  0.40150978  0.31462655  1
  O  O259  1  0.13729257  0.41763977  0.65184810  1
  O  O260  1  0.13461546  0.41765986  0.98291923  1
  O  O261  1  0.13526518  0.91672038  0.31769777  1
  O  O262  1  0.14146888  0.92776723  0.65422828  1
  O  O263  1  0.12374483  0.91784363  0.98197494  1
  O  O264  1  0.62871523  0.42560711  0.32045288  1
  O  O265  1  0.62604901  0.42261800  0.64816690  1
  O  O266  1  0.63400467  0.41699881  0.98735575  1
  O  O267  1  0.62644139  0.92532282  0.31492312  1
  O  O268  1  0.63218143  0.92218501  0.65159106  1
  O  O269  1  0.62731026  0.92684687  0.98462749  1
  O  O270  1  0.02231927  0.19965234  0.09565593  1
  O  O271  1  0.03536893  0.19837727  0.43452529  1
  O  O272  1  0.04027646  0.18442111  0.76388209  1
  O  O273  1  0.03039588  0.70348314  0.10240661  1
  O  O274  1  0.04429262  0.69417586  0.43595568  1
  O  O275  1  0.02615138  0.70165413  0.77538244  1
  O  O276  1  0.53518940  0.20277276  0.10870771  1
  O  O277  1  0.52883587  0.20023895  0.44102261  1
  O  O278  1  0.52854435  0.19708113  0.77266796  1
  O  O279  1  0.53599475  0.70056515  0.11015960  1
  O  O280  1  0.54124739  0.69962608  0.43854771  1
  O  O281  1  0.52981537  0.69681252  0.76285892  1
  O  O282  1  0.29592268  0.47069595  0.06125450  1
  O  O283  1  0.31064468  0.46000108  0.39654690  1
  O  O284  1  0.30620601  0.47023771  0.73086484  1
  O  O285  1  0.30866117  0.96438881  0.06680976  1
  O  O286  1  0.30305902  0.96513767  0.39079004  1
  O  O287  1  0.30326561  0.97491119  0.73784668  1
  O  O288  1  0.80070199  0.46998989  0.05963613  1
  O  O289  1  0.78892422  0.46259136  0.39810468  1
  O  O290  1  0.79262043  0.47288909  0.72806610  1
  O  O291  1  0.79956939  0.97297607  0.06315431  1
  O  O292  1  0.78925487  0.97874826  0.39472354  1
  O  O293  1  0.79805397  0.96908747  0.73186298  1
  O  O294  1  0.45728076  0.29516409  0.22651769  1
  O  O295  1  0.46864710  0.29994516  0.56470350  1
  O  O296  1  0.47258083  0.30398169  0.89941798  1
  O  O297  1  0.46970423  0.79559324  0.22736493  1
  O  O298  1  0.47395300  0.78858543  0.55992207  1
  O  O299  1  0.46068500  0.81686555  0.89690149  1
  O  O300  1  0.97950516  0.29193190  0.22957898  1
  O  O301  1  0.97174320  0.30197413  0.55679268  1
  O  O302  1  0.97027175  0.29963922  0.89900842  1
  O  O303  1  0.96721846  0.80005343  0.22143224  1
  O  O304  1  0.94672704  0.81562812  0.56447799  1
  O  O305  1  0.96627762  0.80166899  0.89739994  1
  O  O306  1  0.20323777  0.02999899  0.27513965  1
  O  O307  1  0.20459378  0.03910358  0.60570481  1
  O  O308  1  0.20039298  0.03080473  0.92691722  1
  O  O309  1  0.19753139  0.53014621  0.26195277  1
  O  O310  1  0.21293521  0.52852809  0.61115365  1
  O  O311  1  0.20415047  0.53287250  0.93707550  1
  O  O312  1  0.70005801  0.03689527  0.27159851  1
  O  O313  1  0.69540071  0.03465208  0.60336441  1
  O  O314  1  0.69609380  0.03482583  0.94023756  1
  O  O315  1  0.69083816  0.53252093  0.27254351  1
  O  O316  1  0.69552190  0.52704707  0.59893209  1
  O  O317  1  0.70473940  0.51962485  0.93786977  1
  O  O318  1  0.07074968  0.08462778  0.02977895  1
  O  O319  1  0.09370854  0.08891118  0.37014741  1
  O  O320  1  0.10173967  0.08619081  0.69045821  1
  O  O321  1  0.08326650  0.59071788  0.03725231  1
  O  O322  1  0.08521064  0.58475601  0.35290318  1
  O  O323  1  0.08577976  0.59041734  0.71638007  1
  O  O324  1  0.58421891  0.08932807  0.03868797  1
  O  O325  1  0.58198269  0.08859452  0.37544304  1
  O  O326  1  0.58189020  0.08502589  0.70515026  1
  O  O327  1  0.58752993  0.58388363  0.04594069  1
  O  O328  1  0.59747949  0.58976060  0.37436747  1
  O  O329  1  0.58637794  0.58608557  0.70308509  1
  O  O330  1  0.40605746  0.41392438  0.12279468  1
  O  O331  1  0.42032427  0.41120045  0.47059324  1
  O  O332  1  0.41667647  0.41634421  0.79925959  1
  O  O333  1  0.41567067  0.90818768  0.13509841  1
  O  O334  1  0.41921571  0.91294246  0.45376863  1
  O  O335  1  0.41033991  0.91259186  0.79534065  1
  O  O336  1  0.91576428  0.41788986  0.12291606  1
  O  O337  1  0.90717623  0.41714845  0.46079028  1
  O  O338  1  0.90108132  0.41173948  0.78734814  1
  O  O339  1  0.91243856  0.92006485  0.12949509  1
  O  O340  1  0.90205084  0.92221987  0.45093468  1
  O  O341  1  0.91068903  0.91685125  0.80287528  1
  O  O342  1  0.40299613  0.40613438  0.29309892  1
  O  O343  1  0.42034735  0.41482015  0.63318669  1
  O  O344  1  0.42018944  0.41748058  0.96490607  1
  O  O345  1  0.41486861  0.90633878  0.29469743  1
  O  O346  1  0.43011894  0.90654002  0.62456515  1
  O  O347  1  0.41336462  0.91962243  0.97847847  1
  O  O348  1  0.91230923  0.39798251  0.28248301  1
  O  O349  1  0.91422419  0.41180677  0.62422148  1
  O  O350  1  0.91281313  0.40907553  0.96360189  1
  O  O351  1  0.91523343  0.91489208  0.28501594  1
  O  O352  1  0.90559917  0.92091998  0.64758043  1
  O  O353  1  0.91408765  0.91499195  0.96376750  1
  O  O354  1  0.09002604  0.08283996  0.20791490  1
  O  O355  1  0.09597210  0.09337828  0.53427037  1
  O  O356  1  0.09714269  0.09520196  0.86764889  1
  O  O357  1  0.08986936  0.59169039  0.19764130  1
  O  O358  1  0.10516002  0.59400521  0.56143476  1
  O  O359  1  0.09176474  0.58556035  0.87144751  1
  O  O360  1  0.58698602  0.08966254  0.20623551  1
  O  O361  1  0.57966794  0.08151026  0.53592975  1
  O  O362  1  0.57952257  0.07943745  0.87008106  1
  O  O363  1  0.58796752  0.58797628  0.19918433  1
  O  O364  1  0.58373488  0.57651356  0.52801613  1
  O  O365  1  0.58501280  0.56489737  0.87850467  1
  O  O366  1  0.13429351  0.21602261  0.05503029  1
  O  O367  1  0.14081676  0.22359456  0.38826715  1
  O  O368  1  0.14653969  0.22440636  0.72554296  1
  O  O369  1  0.13961255  0.72279473  0.05828174  1
  O  O370  1  0.14069637  0.71933957  0.37950251  1
  O  O371  1  0.12974153  0.72239624  0.72637146  1
  O  O372  1  0.64264576  0.22239388  0.06298705  1
  O  O373  1  0.63677274  0.22128700  0.39655509  1
  O  O374  1  0.63684073  0.21924666  0.72868635  1
  O  O375  1  0.63122297  0.71451361  0.04920185  1
  O  O376  1  0.64562425  0.72437018  0.39079697  1
  O  O377  1  0.63511816  0.71869175  0.71370339  1
  O  O378  1  0.27333966  0.35854847  0.10099169  1
  O  O379  1  0.28561649  0.35700978  0.44581743  1
  O  O380  1  0.28197772  0.36370960  0.77650267  1
  O  O381  1  0.28067713  0.85613748  0.10905221  1
  O  O382  1  0.28809298  0.86168020  0.44260120  1
  O  O383  1  0.27508171  0.86280013  0.77624229  1
  O  O384  1  0.78531927  0.36911433  0.11408011  1
  O  O385  1  0.77952006  0.36229992  0.45557654  1
  O  O386  1  0.76781316  0.36850611  0.77552910  1
  O  O387  1  0.77874316  0.86290244  0.10500168  1
  O  O388  1  0.77046723  0.86816299  0.43563185  1
  O  O389  1  0.77639327  0.86292632  0.77742540  1
  O  O390  1  0.35573912  0.27177637  0.27748530  1
  O  O391  1  0.36160964  0.28238367  0.61186434  1
  O  O392  1  0.36531518  0.28440565  0.94540282  1
  O  O393  1  0.36318483  0.77251732  0.27299417  1
  O  O394  1  0.36396075  0.77685635  0.60455246  1
  O  O395  1  0.35643423  0.78290934  0.94120264  1
  O  O396  1  0.86874274  0.26492130  0.26832717  1
  O  O397  1  0.87083009  0.27751324  0.60768691  1
  O  O398  1  0.86154049  0.27481936  0.94141862  1
  O  O399  1  0.86999936  0.78524033  0.28029456  1
  O  O400  1  0.84790631  0.78585364  0.61701874  1
  O  O401  1  0.86215381  0.78214870  0.94832207  1
  O  O402  1  0.22418845  0.13121288  0.22420199  1
  O  O403  1  0.23103653  0.14248095  0.55870614  1
  O  O404  1  0.23341873  0.14503896  0.89531465  1
  O  O405  1  0.22585888  0.63770616  0.22015262  1
  O  O406  1  0.23477839  0.63529733  0.56489651  1
  O  O407  1  0.22486859  0.64054418  0.89221056  1
  O  O408  1  0.71890763  0.13875690  0.21838628  1
  O  O409  1  0.71075873  0.13817940  0.55010051  1
  O  O410  1  0.71107952  0.13998708  0.89058969  1
  O  O411  1  0.72423954  0.63957513  0.23090242  1
  O  O412  1  0.71643093  0.63932937  0.55925412  1
  O  O413  1  0.71222223  0.63131486  0.89473765  1
  O  O414  1  0.49588266  0.33895778  0.03374770  1
  O  O415  1  0.48737750  0.33158103  0.36100027  1
  O  O416  1  0.49344394  0.33103698  0.69835679  1
  O  O417  1  0.48949723  0.82713384  0.02753751  1
  O  O418  1  0.49455316  0.82726358  0.36039848  1
  O  O419  1  0.49424368  0.82370069  0.69492916  1
  O  O420  1  0.99109328  0.33180384  0.03218452  1
  O  O421  1  0.99262751  0.32923780  0.36223457  1
  O  O422  1  1.00207760  0.34022125  0.69157650  1
  O  O423  1  0.99406531  0.83943489  0.03227837  1
  O  O424  1  1.00411314  0.84613447  0.35694764  1
  O  O425  1  0.98235083  0.82935186  0.69771493  1
  O  O426  1  0.16334431  -0.00027213  0.13942941  1
  O  O427  1  0.17762393  0.01062076  0.47327912  1
  O  O428  1  0.17718936  0.02056268  0.79703370  1
  O  O429  1  0.16382434  0.50940232  0.12894242  1
  O  O430  1  0.16775819  0.50861974  0.47742598  1
  O  O431  1  0.17195448  0.50943347  0.80362733  1
  O  O432  1  0.66080710  0.00671479  0.13648795  1
  O  O433  1  0.65783286  0.00525679  0.46747628  1
  O  O434  1  0.66374430  0.00682579  0.80564024  1
  O  O435  1  0.67322122  0.50868926  0.14194992  1
  O  O436  1  0.67128964  0.50847380  0.46637926  1
  O  O437  1  0.66361512  0.50223515  0.80313143  1
  O  O438  1  0.01095053  0.16264538  0.30063804  1
  O  O439  1  0.01708621  0.16987161  0.63448796  1
  O  O440  1  0.00546070  0.16880277  0.96179942  1
  O  O441  1  0.00488310  0.67312700  0.30126550  1
  O  O442  1  -0.00114339  0.65755070  0.64100597  1
  O  O443  1  0.00855629  0.67175025  0.96937580  1
  O  O444  1  0.50599774  0.16861964  0.30767014  1
  O  O445  1  0.50654710  0.16635335  0.63949835  1
  O  O446  1  0.51038665  0.17324750  0.97545850  1
  O  O447  1  0.51551198  0.66553827  0.30476289  1
  O  O448  1  0.50632667  0.65569786  0.62774718  1
  O  O449  1  0.49781044  0.65031121  0.97452924  1
  O  O450  1  0.32651958  0.48722937  0.19349264  1
  O  O451  1  0.33759678  0.48959923  0.53065260  1
  O  O452  1  0.33721811  0.49418285  0.86473883  1
  O  O453  1  0.33306808  0.98650717  0.19822389  1
  O  O454  1  0.34792053  0.99460916  0.52618072  1
  O  O455  1  0.33708995  0.98875861  0.87043378  1
  O  O456  1  0.84505963  0.50278498  0.19554957  1
  O  O457  1  0.83398984  0.49633528  0.53415442  1
  O  O458  1  0.83065086  0.49551195  0.86254991  1
  O  O459  1  0.82956531  0.99348956  0.19555300  1
  O  O460  1  0.82768131  0.99512325  0.52846606  1
  O  O461  1  0.82789970  0.99439296  0.86484177  1
