# generated using pymatgen
data_Na31Fe20(SO4)36
_symmetry_space_group_name_H-M   'P 1'
_cell_length_a   18.07767913
_cell_length_b   18.08833184
_cell_length_c   19.72778633
_cell_angle_alpha   107.57621437
_cell_angle_beta   107.58230429
_cell_angle_gamma   90.74753182
_symmetry_Int_Tables_number   1
_chemical_formula_structural   Na31Fe20(SO4)36
_chemical_formula_sum   'Na62 Fe40 S72 O288'
_cell_volume   5823.73285574
_cell_formula_units_Z   2
loop_
 _symmetry_equiv_pos_site_id
 _symmetry_equiv_pos_as_xyz
  1  'x, y, z'
loop_
 _atom_site_type_symbol
 _atom_site_label
 _atom_site_symmetry_multiplicity
 _atom_site_fract_x
 _atom_site_fract_y
 _atom_site_fract_z
 _atom_site_occupancy
  Na  Na0  1  0.13282513  0.36197935  0.08854627  1
  Na  Na1  1  0.14417557  0.36543703  0.42177952  1
  Na  Na2  1  0.13922686  0.36864306  0.75783619  1
  Na  Na3  1  0.12332840  0.87061551  0.07519593  1
  Na  Na4  1  0.13100992  0.86469017  0.41237475  1
  Na  Na5  1  0.14057560  0.87746223  0.75538587  1
  Na  Na6  1  0.63976831  0.34737119  0.07206473  1
  Na  Na7  1  0.61935697  0.34903653  0.38821161  1
  Na  Na8  1  0.63821360  0.37347553  0.75241599  1
  Na  Na9  1  0.63080013  0.85962032  0.07887195  1
  Na  Na10  1  0.64387909  0.86462780  0.42687394  1
  Na  Na11  1  0.63675717  0.86688969  0.75354258  1
  Na  Na12  1  0.36699621  0.14462122  0.24806153  1
  Na  Na13  1  0.35931966  0.13305923  0.57771959  1
  Na  Na14  1  0.36670942  0.13936987  0.91663730  1
  Na  Na15  1  0.36656416  0.62027817  0.24881405  1
  Na  Na16  1  0.37140479  0.63414227  0.59007798  1
  Na  Na17  1  0.35699439  0.62754771  0.91481718  1
  Na  Na18  1  0.86413820  0.12590016  0.24547447  1
  Na  Na19  1  0.86900120  0.13391708  0.58645187  1
  Na  Na20  1  0.87052599  0.16225271  0.95114256  1
  Na  Na21  1  0.86666025  0.63225924  0.24881545  1
  Na  Na22  1  0.85002417  0.63948626  0.57517662  1
  Na  Na23  1  0.86544942  0.63731004  0.91211202  1
  Na  Na24  1  0.48745139  0.00603107  0.43090118  1
  Na  Na25  1  0.98360442  0.54555279  0.75136312  1
  Na  Na26  1  0.47532882  0.51616372  0.40116864  1
  Na  Na27  1  0.50996911  0.44429278  0.12561563  1
  Na  Na28  1  1.00261123  0.01226537  0.75673804  1
  Na  Na29  1  0.49036935  0.01929150  0.72974434  1
  Na  Na30  1  0.99501213  0.01689788  0.40067883  1
  Na  Na31  1  1.00071132  0.48812997  0.08983276  1
  Na  Na32  1  0.50000726  0.05987038  0.09925220  1
  Na  Na33  1  0.48975696  1.00811952  0.24726184  1
  Na  Na34  1  0.53850387  0.48916094  0.60551963  1
  Na  Na35  1  -0.00294684  0.98324850  0.93450022  1
  Na  Na36  1  0.49730510  0.49660017  0.91143623  1
  Na  Na37  1  0.04116035  0.98956739  0.59258510  1
  Na  Na38  1  0.51257563  0.99090000  0.91205281  1
  Na  Na39  1  0.01670880  0.49575067  0.56538309  1
  Na  Na40  1  0.01132483  0.50186887  0.91612494  1
  Na  Na41  1  0.00748503  0.45555114  0.25335152  1
  Na  Na42  1  0.24666267  0.75026970  0.66994465  1
  Na  Na43  1  0.75318132  0.25267479  0.66813723  1
  Na  Na44  1  0.24766852  0.74685395  0.33585685  1
  Na  Na45  1  0.73987027  0.74032378  0.34345205  1
  Na  Na46  1  0.25940137  0.25657884  0.65544444  1
  Na  Na47  1  0.74839911  0.24992786  0.31920201  1
  Na  Na48  1  0.23436480  0.74288269  0.00303710  1
  Na  Na49  1  0.74237428  0.74093893  0.66838357  1
  Na  Na50  1  0.25818291  0.26310260  0.33256565  1
  Na  Na51  1  0.28902742  0.28784226  0.00299847  1
  Na  Na52  1  0.27729110  0.27682948  0.16469715  1
  Na  Na53  1  0.74775086  0.24430179  0.84825888  1
  Na  Na54  1  0.76763655  0.25967951  0.14677113  1
  Na  Na55  1  0.73661539  0.73227561  0.84225690  1
  Na  Na56  1  0.23623223  0.74477889  0.84060768  1
  Na  Na57  1  0.74684657  0.25168952  0.49326423  1
  Na  Na58  1  0.25335131  0.25046953  0.82933449  1
  Na  Na59  1  0.24844026  0.74506503  0.50263152  1
  Na  Na60  1  0.75245449  0.75192994  0.15728560  1
  Na  Na61  1  0.24552994  0.74980152  0.16909379  1
  Fe  Fe62  1  0.46223114  0.80706585  0.78694557  1
  Fe  Fe63  1  0.96159012  0.30696051  0.45359094  1
  Fe  Fe64  1  0.96443894  0.31041761  0.78598579  1
  Fe  Fe65  1  0.46434540  0.30763214  0.45288207  1
  Fe  Fe66  1  0.46278780  0.80787123  0.12031104  1
  Fe  Fe67  1  0.96304002  0.80285443  0.45062292  1
  Fe  Fe68  1  0.46507026  0.81458727  0.45821700  1
  Fe  Fe69  1  0.96467271  0.80603495  0.11542616  1
  Fe  Fe70  1  0.97149690  0.80018838  0.78560739  1
  Fe  Fe71  1  0.46951882  0.30528134  0.78356589  1
  Fe  Fe72  1  0.19003444  0.04249226  0.04773459  1
  Fe  Fe73  1  0.19703301  0.53171390  0.71643884  1
  Fe  Fe74  1  0.69805698  0.03194709  0.71475537  1
  Fe  Fe75  1  0.69152830  0.53557707  0.04686709  1
  Fe  Fe76  1  0.18585687  0.04000086  0.37670351  1
  Fe  Fe77  1  0.69677354  0.02966004  0.05286015  1
  Fe  Fe78  1  0.20519183  0.52747194  0.37527388  1
  Fe  Fe79  1  0.69090813  0.03055872  0.38019702  1
  Fe  Fe80  1  0.19930132  0.53262879  0.04277356  1
  Fe  Fe81  1  0.68406440  0.53573001  0.37483468  1
  Fe  Fe82  1  0.03413005  0.19603603  0.54992184  1
  Fe  Fe83  1  0.53643921  0.68731295  0.88001877  1
  Fe  Fe84  1  0.53674315  0.19069682  0.54739003  1
  Fe  Fe85  1  0.03581899  0.69109940  0.21134210  1
  Fe  Fe86  1  0.52863897  0.68717786  0.21124795  1
  Fe  Fe87  1  0.54226967  0.19125007  0.88261621  1
  Fe  Fe88  1  0.03087823  0.19694779  0.21174563  1
  Fe  Fe89  1  0.53529991  0.69459093  0.54885526  1
  Fe  Fe90  1  0.03363451  0.19950938  0.88768252  1
  Fe  Fe91  1  0.03375137  0.68464897  0.53824480  1
  Fe  Fe92  1  0.30572273  0.97333679  0.95271617  1
  Fe  Fe93  1  0.80644868  0.46457522  0.28440076  1
  Fe  Fe94  1  0.80673044  0.46933185  0.95106050  1
  Fe  Fe95  1  0.80710149  0.96175453  0.95448262  1
  Fe  Fe96  1  0.79447227  0.47251816  0.62092640  1
  Fe  Fe97  1  0.29606190  0.96874935  0.62003082  1
  Fe  Fe98  1  0.30158918  0.96889903  0.28490111  1
  Fe  Fe99  1  0.31549188  0.46071605  0.62259447  1
  Fe  Fe100  1  0.81349431  0.95952680  0.61984506  1
  Fe  Fe101  1  0.80714203  0.95791406  0.28439406  1
  S  S102  1  0.35725741  0.14248346  0.08461310  1
  S  S103  1  0.35929427  0.13773979  0.41885764  1
  S  S104  1  0.36393688  0.13839309  0.74692235  1
  S  S105  1  0.35597152  0.64779941  0.08479520  1
  S  S106  1  0.36134861  0.64928450  0.42091563  1
  S  S107  1  0.35882364  0.64112936  0.75388068  1
  S  S108  1  0.86018866  0.13403805  0.08844171  1
  S  S109  1  0.85894340  0.13828569  0.41660626  1
  S  S110  1  0.86251897  0.13853395  0.75122289  1
  S  S111  1  0.86064940  0.64092655  0.08352784  1
  S  S112  1  0.85685076  0.63702269  0.41474439  1
  S  S113  1  0.85350424  0.64637593  0.74299650  1
  S  S114  1  0.14121160  0.35729233  0.25218393  1
  S  S115  1  0.14015025  0.36126125  0.58342142  1
  S  S116  1  0.13810337  0.36217389  0.91902691  1
  S  S117  1  0.13760909  0.86119833  0.24885844  1
  S  S118  1  0.13839894  0.85187249  0.57846717  1
  S  S119  1  0.14068367  0.86715003  0.91566585  1
  S  S120  1  0.64423533  0.36012802  0.24476529  1
  S  S121  1  0.64236303  0.35217211  0.58079746  1
  S  S122  1  0.64330875  0.36095610  0.91475469  1
  S  S123  1  0.63878718  0.85313928  0.25215512  1
  S  S124  1  0.64201897  0.86060159  0.58477594  1
  S  S125  1  0.63756351  0.85920829  0.91529401  1
  S  S126  1  0.06733745  0.17146240  0.04678362  1
  S  S127  1  0.06637479  0.17603761  0.37740195  1
  S  S128  1  0.06197160  0.17157659  0.71046358  1
  S  S129  1  0.06758681  0.66783102  0.04075825  1
  S  S130  1  0.07045972  0.66483924  0.37223147  1
  S  S131  1  0.07027488  0.66726138  0.70282923  1
  S  S132  1  0.57261512  0.15947161  0.03683447  1
  S  S133  1  0.56217537  0.15784907  0.37545127  1
  S  S134  1  0.57544433  0.16941028  0.70966788  1
  S  S135  1  0.56206640  0.66926469  0.04338232  1
  S  S136  1  0.56508868  0.67613242  0.37810922  1
  S  S137  1  0.56510005  0.67566945  0.71322942  1
  S  S138  1  0.32465582  0.43606200  0.11957931  1
  S  S139  1  0.34033199  0.43982260  0.46657957  1
  S  S140  1  0.33300557  0.43088741  0.78777224  1
  S  S141  1  0.32528545  0.93236560  0.12380467  1
  S  S142  1  0.32187878  0.93279208  0.45544804  1
  S  S143  1  0.33166876  0.93304296  0.79117224  1
  S  S144  1  0.83200335  0.44004508  0.12436001  1
  S  S145  1  0.82329639  0.42970028  0.45692588  1
  S  S146  1  0.83366035  0.43639579  0.79033690  1
  S  S147  1  0.82618670  0.92389900  0.12513117  1
  S  S148  1  0.83588565  0.93212062  0.45859938  1
  S  S149  1  0.83533238  0.93104177  0.79141923  1
  S  S150  1  0.42878531  0.32987129  0.29550676  1
  S  S151  1  0.43714333  0.32620442  0.62300704  1
  S  S152  1  0.44611417  0.32930900  0.94980129  1
  S  S153  1  0.43111219  0.83820285  0.29508322  1
  S  S154  1  0.43012677  0.83450311  0.62636636  1
  S  S155  1  0.42871197  0.83267258  0.95812224  1
  S  S156  1  0.92812328  0.32514827  0.29158109  1
  S  S157  1  0.92987382  0.33444759  0.62424851  1
  S  S158  1  0.93526977  0.33959761  0.95795805  1
  S  S159  1  0.93270219  0.82571460  0.28948969  1
  S  S160  1  0.93678281  0.82960287  0.62376696  1
  S  S161  1  0.93002416  0.82952155  0.95374971  1
  S  S162  1  0.17077516  0.07494303  0.21237135  1
  S  S163  1  0.16270792  0.06490866  0.53840649  1
  S  S164  1  0.16883339  0.07473322  0.87687248  1
  S  S165  1  0.17177085  0.56994941  0.20741166  1
  S  S166  1  0.17726382  0.56702779  0.54250829  1
  S  S167  1  0.16515033  0.56451174  0.87520231  1
  S  S168  1  0.66779328  0.05412832  0.21295491  1
  S  S169  1  0.67608185  0.06579359  0.54501149  1
  S  S170  1  0.67482060  0.06451198  0.87488576  1
  S  S171  1  0.66881161  0.56973911  0.20788964  1
  S  S172  1  0.65832490  0.56168278  0.53458481  1
  S  S173  1  0.66826432  0.56522880  0.87822448  1
  O  O174  1  0.36215837  0.21828933  0.07368643  1
  O  O175  1  0.36948211  0.21691756  0.41329187  1
  O  O176  1  0.37609229  0.21538513  0.73458924  1
  O  O177  1  0.36160224  0.73078850  0.08314847  1
  O  O178  1  0.36740870  0.73180921  0.41863111  1
  O  O179  1  0.36452713  0.71963022  0.74340764  1
  O  O180  1  0.86172182  0.21013476  0.07758900  1
  O  O181  1  0.86448414  0.21710519  0.40763161  1
  O  O182  1  0.86964264  0.21548819  0.73859191  1
  O  O183  1  0.87157294  0.72044765  0.07879773  1
  O  O184  1  0.86774972  0.71601856  0.40616194  1
  O  O185  1  0.87397228  0.72248482  0.73167853  1
  O  O186  1  0.27839206  0.12932697  0.09408023  1
  O  O187  1  0.28177792  0.12680802  0.42794429  1
  O  O188  1  0.29038362  0.13355010  0.76179611  1
  O  O189  1  0.27341424  0.63593970  0.08812034  1
  O  O190  1  0.27955697  0.63520203  0.42151546  1
  O  O191  1  0.27977096  0.63092304  0.76264919  1
  O  O192  1  0.78538298  0.11943091  0.10447491  1
  O  O193  1  0.78015090  0.12627559  0.42389500  1
  O  O194  1  0.78331193  0.12966032  0.75891204  1
  O  O195  1  0.78250596  0.63231538  0.09334341  1
  O  O196  1  0.77726398  0.62825433  0.42075067  1
  O  O197  1  0.77322907  0.64622504  0.74493279  1
  O  O198  1  0.12355142  0.28010305  0.26366844  1
  O  O199  1  0.12909996  0.28227618  0.59126462  1
  O  O200  1  0.12203478  0.28886572  0.93490577  1
  O  O201  1  0.13121293  0.78352754  0.26106284  1
  O  O202  1  0.13178957  0.76923797  0.57908005  1
  O  O203  1  0.13770191  0.79141795  0.92713737  1
  O  O204  1  0.63381118  0.28667413  0.25923240  1
  O  O205  1  0.63698525  0.27013918  0.58461575  1
  O  O206  1  0.63775855  0.28041300  0.91926093  1
  O  O207  1  0.62532739  0.77398824  0.25831223  1
  O  O208  1  0.63150118  0.78144182  0.59224085  1
  O  O209  1  0.62686645  0.77962152  0.91977381  1
  O  O210  1  0.21964128  0.35904989  0.24664656  1
  O  O211  1  0.21809202  0.36920606  0.57480219  1
  O  O212  1  0.21549669  0.36327585  0.91049945  1
  O  O213  1  0.21780326  0.87097281  0.24283355  1
  O  O214  1  0.21784629  0.86474248  0.57216701  1
  O  O215  1  0.21831607  0.88189503  0.90526772  1
  O  O216  1  0.72781450  0.36863579  0.24182449  1
  O  O217  1  0.72366770  0.36540621  0.57853230  1
  O  O218  1  0.72094344  0.37326054  0.90442270  1
  O  O219  1  0.71874281  0.85922320  0.24563727  1
  O  O220  1  0.71964022  0.87034014  0.57516844  1
  O  O221  1  0.71476439  0.86828374  0.90374334  1
  O  O222  1  0.41639975  0.13228131  0.14988034  1
  O  O223  1  0.42022818  0.12611237  0.48503261  1
  O  O224  1  0.42954405  0.12598654  0.80904995  1
  O  O225  1  0.41026313  0.64344458  0.15702836  1
  O  O226  1  0.41639162  0.64390682  0.49263314  1
  O  O227  1  0.41768529  0.63742192  0.82341835  1
  O  O228  1  0.92374512  0.12898039  0.15561636  1
  O  O229  1  0.91874295  0.13358166  0.48587559  1
  O  O230  1  0.92172096  0.13341596  0.82016507  1
  O  O231  1  0.92026581  0.62984232  0.15018093  1
  O  O232  1  0.91499311  0.63139374  0.48428034  1
  O  O233  1  0.90923298  0.63543650  0.80972027  1
  O  O234  1  0.36555246  0.08116192  0.01518230  1
  O  O235  1  0.36722679  0.07903444  0.34987530  1
  O  O236  1  0.36601921  0.07745465  0.67573942  1
  O  O237  1  0.36853924  0.59389064  0.01974020  1
  O  O238  1  0.37738934  0.59527094  0.35701249  1
  O  O239  1  0.36738701  0.58203381  0.68718785  1
  O  O240  1  0.86560856  0.07295809  0.02003242  1
  O  O241  1  0.87078484  0.07889106  0.35053027  1
  O  O242  1  0.87196123  0.07695051  0.68491936  1
  O  O243  1  0.86732032  0.58330557  0.01421681  1
  O  O244  1  0.86658379  0.57838405  0.34772444  1
  O  O245  1  0.86043110  0.58411610  0.67409691  1
  O  O246  1  0.08179221  0.36964314  0.18808295  1
  O  O247  1  0.07951021  0.37146219  0.51688277  1
  O  O248  1  0.07884446  0.37016143  0.85035955  1
  O  O249  1  0.08049372  0.86299667  0.17773036  1
  O  O250  1  0.07974992  0.86110293  0.50985546  1
  O  O251  1  0.08023188  0.87033747  0.84578675  1
  O  O252  1  0.59206576  0.36624466  0.17452098  1
  O  O253  1  0.58644136  0.35795894  0.51030465  1
  O  O254  1  0.58248906  0.37135467  0.84889392  1
  O  O255  1  0.58116166  0.86350357  0.18441891  1
  O  O256  1  0.58153193  0.86946082  0.51794334  1
  O  O257  1  0.57646761  0.87282733  0.85072075  1
  O  O258  1  0.13687576  0.41868720  0.32296191  1
  O  O259  1  0.13197429  0.42006858  0.65200025  1
  O  O260  1  0.12958356  0.42818779  0.98420115  1
  O  O261  1  0.12701284  0.92165237  0.31417593  1
  O  O262  1  0.12759243  0.90607918  0.64554775  1
  O  O263  1  0.12880903  0.92906604  0.98087660  1
  O  O264  1  0.63605289  0.42465023  0.31081232  1
  O  O265  1  0.62881911  0.40657303  0.64640107  1
  O  O266  1  0.63622791  0.41705831  0.98456991  1
  O  O267  1  0.63327420  0.91203757  0.32140833  1
  O  O268  1  0.63575673  0.91873885  0.65414881  1
  O  O269  1  0.63227775  0.91684829  0.98529703  1
  O  O270  1  0.03105971  0.19148174  0.10691824  1
  O  O271  1  0.02737779  0.20348813  0.43776347  1
  O  O272  1  0.02952931  0.20941581  0.77346194  1
  O  O273  1  0.03618019  0.69703804  0.10624933  1
  O  O274  1  0.02968248  0.69117254  0.43070193  1
  O  O275  1  0.03520687  0.69605786  0.76293908  1
  O  O276  1  0.53965354  0.18186759  0.09709427  1
  O  O277  1  0.53146547  0.19234935  0.44024434  1
  O  O278  1  0.54015674  0.20088014  0.77074907  1
  O  O279  1  0.52320226  0.69794024  0.10335501  1
  O  O280  1  0.52844231  0.70724023  0.43946949  1
  O  O281  1  0.52473448  0.70670136  0.77246411  1
  O  O282  1  0.28959349  0.47925575  0.06298979  1
  O  O283  1  0.31427569  0.48100609  0.41073162  1
  O  O284  1  0.29840168  0.46345258  0.72266445  1
  O  O285  1  0.29713066  0.96667919  0.06197143  1
  O  O286  1  0.29196860  0.96811414  0.39372954  1
  O  O287  1  0.30827003  0.96338519  0.72772163  1
  O  O288  1  0.79686436  0.47453685  0.06194431  1
  O  O289  1  0.80007069  0.46671380  0.39650651  1
  O  O290  1  0.81118476  0.47161386  0.72999986  1
  O  O291  1  0.79406265  0.95818634  0.06261875  1
  O  O292  1  0.80466138  0.96846047  0.39763534  1
  O  O293  1  0.80495669  0.96884584  0.73083755  1
  O  O294  1  0.45934563  0.30498125  0.23352959  1
  O  O295  1  0.47287733  0.29497650  0.56087842  1
  O  O296  1  0.47766493  0.28744508  0.88468044  1
  O  O297  1  0.46684658  0.80813703  0.23431049  1
  O  O298  1  0.46963815  0.80648822  0.56769634  1
  O  O299  1  0.46657171  0.80176749  0.89856698  1
  O  O300  1  0.96710520  0.29564645  0.23405870  1
  O  O301  1  0.96699191  0.30343733  0.56309993  1
  O  O302  1  0.96206479  0.30145200  0.89069016  1
  O  O303  1  0.97013937  0.79915696  0.22949165  1
  O  O304  1  0.97133489  0.79847499  0.56102621  1
  O  O305  1  0.96823928  0.81433163  0.89537062  1
  O  O306  1  0.19778105  0.03234178  0.27014381  1
  O  O307  1  0.18788608  0.02374260  0.59456117  1
  O  O308  1  0.20181367  0.04318533  0.94180502  1
  O  O309  1  0.19629409  0.53335484  0.26632774  1
  O  O310  1  0.20380668  0.53077951  0.60388711  1
  O  O311  1  0.19809527  0.53503213  0.93992384  1
  O  O312  1  0.70622254  0.01799081  0.27415818  1
  O  O313  1  0.70623566  0.03071391  0.60677139  1
  O  O314  1  0.70280886  0.02932585  0.93669482  1
  O  O315  1  0.70229165  0.53554301  0.26964639  1
  O  O316  1  0.68414658  0.52217790  0.59199420  1
  O  O317  1  0.70344672  0.53424228  0.94444744  1
  O  O318  1  0.08237447  0.08728164  0.02967142  1
  O  O319  1  0.08186019  0.09362133  0.37245222  1
  O  O320  1  0.06626809  0.08876836  0.70405199  1
  O  O321  1  0.09784823  0.58967595  0.04101207  1
  O  O322  1  0.09337223  0.58566844  0.36688904  1
  O  O323  1  0.08814334  0.58443367  0.69739153  1
  O  O324  1  0.59142480  0.07457562  0.02595284  1
  O  O325  1  0.58350334  0.07689418  0.37742344  1
  O  O326  1  0.59294904  0.08822149  0.70749295  1
  O  O327  1  0.58174169  0.58836074  0.03785660  1
  O  O328  1  0.58137147  0.59489985  0.37416303  1
  O  O329  1  0.58262382  0.59710418  0.71031404  1
  O  O330  1  0.38854156  0.39869085  0.09668619  1
  O  O331  1  0.42315555  0.42226070  0.47510100  1
  O  O332  1  0.41062683  0.40607299  0.78393148  1
  O  O333  1  0.40692050  0.91252137  0.13084027  1
  O  O334  1  0.40415626  0.91713016  0.46105100  1
  O  O335  1  0.41495613  0.91352895  0.80400457  1
  O  O336  1  0.91483649  0.43271061  0.13169598  1
  O  O337  1  0.90642309  0.41235520  0.46977238  1
  O  O338  1  0.91729740  0.41839326  0.80255952  1
  O  O339  1  0.90499648  0.90324594  0.12660059  1
  O  O340  1  0.91818371  0.91580507  0.46319218  1
  O  O341  1  0.91705775  0.91423789  0.79446105  1
  O  O342  1  0.41108754  0.41074915  0.31296886  1
  O  O343  1  0.42154041  0.40765962  0.62726513  1
  O  O344  1  0.43526172  0.40870817  0.94819489  1
  O  O345  1  0.41410081  0.92094988  0.30021639  1
  O  O346  1  0.40618749  0.91322823  0.62774269  1
  O  O347  1  0.41297333  0.91469196  0.96256388  1
  O  O348  1  0.90807081  0.40491796  0.29104675  1
  O  O349  1  0.91039485  0.41464040  0.62772961  1
  O  O350  1  0.91617081  0.42082595  0.95720939  1
  O  O351  1  0.91450281  0.90795563  0.29838610  1
  O  O352  1  0.92488480  0.91418156  0.63142182  1
  O  O353  1  0.91066022  0.91262458  0.96970543  1
  O  O354  1  0.09324313  0.09925963  0.21299663  1
  O  O355  1  0.08010587  0.08429290  0.53379998  1
  O  O356  1  0.08819148  0.09678050  0.87691783  1
  O  O357  1  0.08804492  0.58638009  0.19530727  1
  O  O358  1  0.09451748  0.58317438  0.53456880  1
  O  O359  1  0.08126694  0.57031805  0.86261667  1
  O  O360  1  0.58684531  0.06175119  0.21204477  1
  O  O361  1  0.59469351  0.08387585  0.53866967  1
  O  O362  1  0.59115185  0.07934132  0.86517917  1
  O  O363  1  0.58718982  0.58560234  0.20497515  1
  O  O364  1  0.57593766  0.58175029  0.53017947  1
  O  O365  1  0.58883077  0.58696189  0.88267947  1
  O  O366  1  0.13924027  0.22302649  0.06676322  1
  O  O367  1  0.13803683  0.22649852  0.39565878  1
  O  O368  1  0.13727099  0.21587496  0.72416418  1
  O  O369  1  0.13369651  0.72539287  0.05367161  1
  O  O370  1  0.13891295  0.72258936  0.39166736  1
  O  O371  1  0.14209698  0.71838345  0.71744118  1
  O  O372  1  0.64341983  0.20935383  0.04784533  1
  O  O373  1  0.63281867  0.20773106  0.38563422  1
  O  O374  1  0.64699779  0.22043063  0.72421165  1
  O  O375  1  0.63194451  0.72333821  0.06169794  1
  O  O376  1  0.63628726  0.72708167  0.39366518  1
  O  O377  1  0.63500574  0.73151879  0.73227043  1
  O  O378  1  0.26291430  0.37335273  0.10780967  1
  O  O379  1  0.28799584  0.36810962  0.44740868  1
  O  O380  1  0.27833856  0.36208066  0.77463167  1
  O  O381  1  0.27097848  0.86369521  0.11026514  1
  O  O382  1  0.27110982  0.86027926  0.43853204  1
  O  O383  1  0.27924859  0.86235366  0.77710560  1
  O  O384  1  0.78503202  0.36620135  0.10827299  1
  O  O385  1  0.77092048  0.35693657  0.43642742  1
  O  O386  1  0.78204313  0.36420184  0.77289134  1
  O  O387  1  0.77191806  0.85701258  0.11478029  1
  O  O388  1  0.78499139  0.86079600  0.44283215  1
  O  O389  1  0.78255216  0.86026468  0.77399350  1
  O  O390  1  0.35764011  0.27632628  0.28281037  1
  O  O391  1  0.36588416  0.27552122  0.60787732  1
  O  O392  1  0.37150503  0.28076488  0.93328316  1
  O  O393  1  0.35954083  0.78767881  0.28064206  1
  O  O394  1  0.36190596  0.77831974  0.61090481  1
  O  O395  1  0.35652081  0.78171211  0.94201523  1
  O  O396  1  0.85756693  0.27145651  0.27521056  1
  O  O397  1  0.86021049  0.27952860  0.60778710  1
  O  O398  1  0.86491427  0.29128539  0.94967717  1
  O  O399  1  0.86143323  0.77318252  0.27181314  1
  O  O400  1  0.86320573  0.78311945  0.60809852  1
  O  O401  1  0.85971716  0.77499473  0.93245395  1
  O  O402  1  0.22871052  0.14195901  0.23160386  1
  O  O403  1  0.21555998  0.13539877  0.55641050  1
  O  O404  1  0.22091686  0.14417058  0.88830198  1
  O  O405  1  0.22322499  0.64299907  0.22599232  1
  O  O406  1  0.22878716  0.64015536  0.56214322  1
  O  O407  1  0.21111999  0.64012753  0.89047177  1
  O  O408  1  0.71489759  0.12800593  0.22928465  1
  O  O409  1  0.72873221  0.13632738  0.56001530  1
  O  O410  1  0.72514222  0.13570991  0.88999592  1
  O  O411  1  0.71913281  0.64168607  0.22223437  1
  O  O412  1  0.71054877  0.63335188  0.55291808  1
  O  O413  1  0.71941044  0.63494649  0.89006642  1
  O  O414  1  0.50473177  0.32807248  0.01945407  1
  O  O415  1  0.49016072  0.32155700  0.36625247  1
  O  O416  1  0.49799149  0.32669050  0.69400324  1
  O  O417  1  0.48697919  0.83399966  0.03134318  1
  O  O418  1  0.49062744  0.84265413  0.36857834  1
  O  O419  1  0.48936487  0.84150898  0.70054127  1
  O  O420  1  0.99953860  0.34907096  0.02711556  1
  O  O421  1  0.98500279  0.33345186  0.36745016  1
  O  O422  1  0.98979488  0.33716064  0.69651878  1
  O  O423  1  0.98878864  0.82473652  0.02427957  1
  O  O424  1  0.99137403  0.82590799  0.36174085  1
  O  O425  1  0.99690254  0.82925725  0.69481622  1
  O  O426  1  0.16466522  0.01635041  0.13838421  1
  O  O427  1  0.15595236  0.00861579  0.46204358  1
  O  O428  1  0.15867260  0.01124405  0.80685222  1
  O  O429  1  0.17351479  0.51326282  0.13436106  1
  O  O430  1  0.17975293  0.51024185  0.47128495  1
  O  O431  1  0.17492598  0.50666707  0.80623588  1
  O  O432  1  0.66770456  -0.00194809  0.13943542  1
  O  O433  1  0.67497932  0.00490452  0.47364743  1
  O  O434  1  0.67449720  0.00389518  0.80331769  1
  O  O435  1  0.66488201  0.50999821  0.13518400  1
  O  O436  1  0.65378785  0.50549053  0.45953434  1
  O  O437  1  0.65980710  0.50278948  0.80922010  1
  O  O438  1  0.00756201  0.17466997  0.30500548  1
  O  O439  1  0.00458961  0.17603604  0.63845200  1
  O  O440  1  0.00713605  0.17749852  0.97737809  1
  O  O441  1  0.01147400  0.66339483  0.29955090  1
  O  O442  1  0.01125947  0.66167029  0.62846629  1
  O  O443  1  0.00387244  0.65449529  0.97095815  1
  O  O444  1  0.49963651  0.14684055  0.30507129  1
  O  O445  1  0.51543848  0.16513694  0.63703184  1
  O  O446  1  0.51195900  0.15443475  0.96220358  1
  O  O447  1  0.50525555  0.67475779  0.30604848  1
  O  O448  1  0.50785296  0.67640230  0.64000697  1
  O  O449  1  0.50329136  0.66735830  0.97070360  1
  O  O450  1  0.34923933  0.49196597  0.19497301  1
  O  O451  1  0.34165428  0.49554958  0.54183410  1
  O  O452  1  0.34371050  0.49386985  0.85754462  1
  O  O453  1  0.33042487  0.99390609  0.19657347  1
  O  O454  1  0.32073991  0.99073786  0.52686116  1
  O  O455  1  0.33162546  0.99522699  0.86113403  1
  O  O456  1  0.82825832  0.49762288  0.19636284  1
  O  O457  1  0.81912492  0.48838691  0.52716120  1
  O  O458  1  0.83145445  0.49558730  0.86136024  1
  O  O459  1  0.83260915  0.98674990  0.19773472  1
  O  O460  1  0.83830130  0.99090780  0.53158864  1
  O  O461  1  0.83934713  0.98908859  0.86506817  1
