# generated using pymatgen
data_Na31Fe20(SO4)36
_symmetry_space_group_name_H-M   'P 1'
_cell_length_a   18.07527002
_cell_length_b   18.07676005
_cell_length_c   19.71752633
_cell_angle_alpha   107.56241534
_cell_angle_beta   107.57121914
_cell_angle_gamma   90.74679935
_symmetry_Int_Tables_number   1
_chemical_formula_structural   Na31Fe20(SO4)36
_chemical_formula_sum   'Na62 Fe40 S72 O288'
_cell_volume   5817.11828962
_cell_formula_units_Z   2
loop_
 _symmetry_equiv_pos_site_id
 _symmetry_equiv_pos_as_xyz
  1  'x, y, z'
loop_
 _atom_site_type_symbol
 _atom_site_label
 _atom_site_symmetry_multiplicity
 _atom_site_fract_x
 _atom_site_fract_y
 _atom_site_fract_z
 _atom_site_occupancy
  Na  Na0  1  0.14010595  0.37036453  0.09023697  1
  Na  Na1  1  0.13144303  0.35620168  0.39963900  1
  Na  Na2  1  0.13536214  0.36808171  0.75098447  1
  Na  Na3  1  0.12343018  0.86463250  0.07461345  1
  Na  Na4  1  0.13360039  0.86028345  0.41271029  1
  Na  Na5  1  0.13997523  0.86805858  0.75543743  1
  Na  Na6  1  0.64792108  0.33915712  0.07709186  1
  Na  Na7  1  0.63465626  0.36376163  0.41549744  1
  Na  Na8  1  0.65693200  0.36856108  0.76880221  1
  Na  Na9  1  0.62923185  0.87750104  0.08627240  1
  Na  Na10  1  0.62785755  0.86116675  0.41048035  1
  Na  Na11  1  0.63537496  0.87800172  0.75664669  1
  Na  Na12  1  0.37338390  0.12479391  0.24781575  1
  Na  Na13  1  0.37090739  0.13307569  0.58862363  1
  Na  Na14  1  0.37094635  0.12241647  0.91412095  1
  Na  Na15  1  0.36305630  0.62516402  0.24759133  1
  Na  Na16  1  0.36381050  0.63350202  0.58426776  1
  Na  Na17  1  0.36337113  0.63332199  0.91718374  1
  Na  Na18  1  0.86197535  0.14587912  0.24510195  1
  Na  Na19  1  0.86451920  0.13824494  0.58992525  1
  Na  Na20  1  0.85887074  0.13953996  0.91192337  1
  Na  Na21  1  0.86822663  0.64175333  0.25424075  1
  Na  Na22  1  0.86160043  0.63401768  0.58024078  1
  Na  Na23  1  0.86679214  0.64174511  0.91967691  1
  Na  Na24  1  1.01431949  -0.03885961  0.47083020  1
  Na  Na25  1  1.03567282  -0.01402021  0.70061024  1
  Na  Na26  1  0.52107162  0.47276068  0.08835643  1
  Na  Na27  1  0.98981148  0.53641425  0.75856915  1
  Na  Na28  1  0.49223998  0.50869916  0.74891110  1
  Na  Na29  1  0.46019388  0.51073628  0.40257649  1
  Na  Na30  1  0.98706610  0.52555149  0.41370812  1
  Na  Na31  1  0.94991484  0.50731081  0.07328066  1
  Na  Na32  1  0.50154720  0.01239260  0.40374264  1
  Na  Na33  1  0.51466538  0.49176930  0.92082700  1
  Na  Na34  1  -0.00747993  0.50986451  0.92019561  1
  Na  Na35  1  0.01293962  0.48640365  0.58010520  1
  Na  Na36  1  -0.00476688  0.99640848  0.93384259  1
  Na  Na37  1  0.01779735  0.48139784  0.24513810  1
  Na  Na38  1  -0.01584311  1.04599485  0.19566789  1
  Na  Na39  1  0.51802101  0.48794306  0.58027275  1
  Na  Na40  1  0.52998055  0.98659462  0.63278372  1
  Na  Na41  1  0.49519011  0.43958490  0.23018781  1
  Na  Na42  1  0.26048850  0.25218411  -0.00210310  1
  Na  Na43  1  0.24846425  0.75421315  0.66510697  1
  Na  Na44  1  0.23554942  0.74037213  0.00146582  1
  Na  Na45  1  0.24164574  0.23509743  0.67243794  1
  Na  Na46  1  0.75722336  0.26018587  0.32234879  1
  Na  Na47  1  0.76847707  0.76882106  0.32118274  1
  Na  Na48  1  0.75650902  0.75729339  0.66274731  1
  Na  Na49  1  0.74138292  0.74756129  0.01587608  1
  Na  Na50  1  0.25284084  0.25230798  0.32330825  1
  Na  Na51  1  0.24868199  0.74611611  0.33263173  1
  Na  Na52  1  0.24190208  0.23173024  0.83563285  1
  Na  Na53  1  0.24197601  0.75007448  0.83690636  1
  Na  Na54  1  0.74236193  0.24043362  0.51219760  1
  Na  Na55  1  0.76181453  0.76286157  0.48898125  1
  Na  Na56  1  0.24395061  0.74609616  0.16491589  1
  Na  Na57  1  0.24698368  0.75275443  0.50277091  1
  Na  Na58  1  0.75140986  0.75650103  0.83280348  1
  Na  Na59  1  0.74702608  0.24331701  0.83872099  1
  Na  Na60  1  0.24541706  0.24302660  0.49877677  1
  Na  Na61  1  0.26959952  0.26931747  0.16291350  1
  Fe  Fe62  1  0.46550538  0.80637323  0.45673344  1
  Fe  Fe63  1  0.96140434  0.81652712  0.12390206  1
  Fe  Fe64  1  0.96920461  0.29959451  0.11960860  1
  Fe  Fe65  1  0.46571380  0.30554705  0.45241919  1
  Fe  Fe66  1  0.96624167  0.30418505  0.44680476  1
  Fe  Fe67  1  0.96464900  0.30994625  0.78479970  1
  Fe  Fe68  1  0.46566752  0.80685086  0.12135091  1
  Fe  Fe69  1  0.96875507  0.80167214  0.79389624  1
  Fe  Fe70  1  0.46613050  0.81048115  0.79240776  1
  Fe  Fe71  1  0.46553495  0.30763414  0.78408146  1
  Fe  Fe72  1  0.18771247  0.03617538  0.37607154  1
  Fe  Fe73  1  0.68489347  0.04721720  0.04400777  1
  Fe  Fe74  1  0.68657915  0.03494317  0.37584426  1
  Fe  Fe75  1  0.19180734  0.53333806  0.04512795  1
  Fe  Fe76  1  0.19189775  0.03742555  0.05076625  1
  Fe  Fe77  1  0.20008910  0.53050689  0.37497246  1
  Fe  Fe78  1  0.69719486  0.53170426  0.71852145  1
  Fe  Fe79  1  0.19220778  0.53546086  0.71340145  1
  Fe  Fe80  1  0.68856660  0.53083465  0.37928420  1
  Fe  Fe81  1  0.70590913  0.53010300  0.04895840  1
  Fe  Fe82  1  0.53849959  0.19250440  0.55310111  1
  Fe  Fe83  1  0.53168711  0.19361815  0.20444429  1
  Fe  Fe84  1  0.53423456  0.18951086  0.88013812  1
  Fe  Fe85  1  0.02671756  0.70305887  0.54271401  1
  Fe  Fe86  1  0.03338884  0.18748296  0.54239376  1
  Fe  Fe87  1  0.53636914  0.69497526  0.88708509  1
  Fe  Fe88  1  0.53645878  0.68799971  0.21374952  1
  Fe  Fe89  1  0.03599123  0.19118712  0.87690709  1
  Fe  Fe90  1  0.03101060  0.69451279  0.21229960  1
  Fe  Fe91  1  0.53517104  0.69012566  0.54879518  1
  Fe  Fe92  1  0.80339858  0.97455313  0.95575243  1
  Fe  Fe93  1  0.30636809  0.46408778  0.61706626  1
  Fe  Fe94  1  0.80526427  0.96688329  0.28605058  1
  Fe  Fe95  1  0.80770935  0.46428926  0.28088987  1
  Fe  Fe96  1  0.81059620  0.46269422  0.62041270  1
  Fe  Fe97  1  0.30433272  0.96767732  0.62750439  1
  Fe  Fe98  1  0.30785825  0.96167753  0.28835445  1
  Fe  Fe99  1  0.80129674  0.97147194  0.62661052  1
  Fe  Fe100  1  0.31202321  0.46257371  0.95196653  1
  Fe  Fe101  1  0.30795428  0.96731139  0.95738696  1
  S  S102  1  0.35755271  0.13959894  0.08634158  1
  S  S103  1  0.36230158  0.13906835  0.41857254  1
  S  S104  1  0.36303764  0.14095840  0.74670051  1
  S  S105  1  0.36064973  0.64029981  0.08165035  1
  S  S106  1  0.35901659  0.64353446  0.42115029  1
  S  S107  1  0.36080623  0.63949046  0.75075486  1
  S  S108  1  0.85887790  0.14427867  0.08210783  1
  S  S109  1  0.85517457  0.14312279  0.41586003  1
  S  S110  1  0.86113545  0.14403707  0.74977463  1
  S  S111  1  0.85864605  0.64594432  0.08324048  1
  S  S112  1  0.85282409  0.63903214  0.41715794  1
  S  S113  1  0.85651647  0.64008329  0.74996324  1
  S  S114  1  0.14083971  0.35942300  0.24679220  1
  S  S115  1  0.14090727  0.35861933  0.58027569  1
  S  S116  1  0.14271459  0.35808225  0.91286072  1
  S  S117  1  0.14065950  0.85800617  0.25101025  1
  S  S118  1  0.13934789  0.85937795  0.58345466  1
  S  S119  1  0.13986598  0.86271038  0.91924654  1
  S  S120  1  0.64367011  0.36031765  0.24811939  1
  S  S121  1  0.64170040  0.35991706  0.58491551  1
  S  S122  1  0.63427846  0.36076253  0.91933066  1
  S  S123  1  0.63750247  0.85743021  0.25081010  1
  S  S124  1  0.64010864  0.85263069  0.58124561  1
  S  S125  1  0.64129136  0.86155432  0.91968584  1
  S  S126  1  0.06977665  0.17451385  0.04195169  1
  S  S127  1  0.06342278  0.16831107  0.37524273  1
  S  S128  1  0.07023929  0.17681401  0.70901224  1
  S  S129  1  0.06456587  0.66810835  0.04187063  1
  S  S130  1  0.06830675  0.66338237  0.37365406  1
  S  S131  1  0.06514829  0.66834795  0.70410882  1
  S  S132  1  0.56293232  0.16333459  0.03760079  1
  S  S133  1  0.56731384  0.17462694  0.37664698  1
  S  S134  1  0.56976797  0.17839554  0.71527527  1
  S  S135  1  0.56774016  0.66510175  0.04310399  1
  S  S136  1  0.56370485  0.66308014  0.37508264  1
  S  S137  1  0.56635917  0.66563539  0.71004000  1
  S  S138  1  0.33313638  0.43871263  0.11763154  1
  S  S139  1  0.33181118  0.43345688  0.45877060  1
  S  S140  1  0.33159979  0.43429290  0.78770897  1
  S  S141  1  0.32477756  0.92443585  0.12339492  1
  S  S142  1  0.32950920  0.92994170  0.46013232  1
  S  S143  1  0.33015646  0.92758783  0.79331650  1
  S  S144  1  0.83752109  0.43409058  0.13086685  1
  S  S145  1  0.83210591  0.43275551  0.45824947  1
  S  S146  1  0.83917484  0.44023633  0.79393053  1
  S  S147  1  0.82444839  0.93989658  0.12422107  1
  S  S148  1  0.81821833  0.93418778  0.45567925  1
  S  S149  1  0.83201609  0.92899657  0.79377927  1
  S  S150  1  0.43655631  0.32834074  0.29373883  1
  S  S151  1  0.43539550  0.33481334  0.62411695  1
  S  S152  1  0.43410988  0.32982739  0.95351438  1
  S  S153  1  0.42969306  0.82371801  0.29146513  1
  S  S154  1  0.43289802  0.82699141  0.62591461  1
  S  S155  1  0.42778133  0.82362017  0.95594343  1
  S  S156  1  0.93364198  0.33616954  0.29169435  1
  S  S157  1  0.93763165  0.33635890  0.62269218  1
  S  S158  1  0.94099233  0.33199546  0.95706849  1
  S  S159  1  0.93619087  0.83602831  0.29222057  1
  S  S160  1  0.92786273  0.82803208  0.62767291  1
  S  S161  1  0.92695015  0.83421538  0.95997831  1
  S  S162  1  0.17960742  0.06724930  0.21556397  1
  S  S163  1  0.17429683  0.06677257  0.54053098  1
  S  S164  1  0.17038415  0.06569729  0.87704414  1
  S  S165  1  0.16388834  0.57062485  0.20476782  1
  S  S166  1  0.16943071  0.56525592  0.54019812  1
  S  S167  1  0.16827188  0.56182088  0.87482992  1
  S  S168  1  0.67229502  0.07253862  0.21203591  1
  S  S169  1  0.66447547  0.06297477  0.53719756  1
  S  S170  1  0.67000186  0.07045091  0.87323926  1
  S  S171  1  0.67462315  0.56880709  0.21213269  1
  S  S172  1  0.66610719  0.56285876  0.54292750  1
  S  S173  1  0.66681459  0.56891396  0.87816933  1
  O  O174  1  0.36193654  0.21790203  0.08014478  1
  O  O175  1  0.36894212  0.21697394  0.40765719  1
  O  O176  1  0.37549725  0.21578999  0.72967120  1
  O  O177  1  0.36952956  0.71883283  0.07211681  1
  O  O178  1  0.36578361  0.72622918  0.42029574  1
  O  O179  1  0.37005000  0.71701797  0.74066226  1
  O  O180  1  0.87410346  0.22475997  0.07615343  1
  O  O181  1  0.86728222  0.22164226  0.40663277  1
  O  O182  1  0.87583902  0.22089655  0.73809023  1
  O  O183  1  0.86781726  0.72724325  0.08010202  1
  O  O184  1  0.85562739  0.71689656  0.41018210  1
  O  O185  1  0.86583571  0.71975950  0.74327082  1
  O  O186  1  0.28055748  0.12609437  0.09906238  1
  O  O187  1  0.28212630  0.12791173  0.42297432  1
  O  O188  1  0.28563800  0.13773654  0.75495536  1
  O  O189  1  0.28021400  0.63252591  0.08727589  1
  O  O190  1  0.28079172  0.63182117  0.43057986  1
  O  O191  1  0.28152896  0.63111698  0.75885451  1
  O  O192  1  0.77875615  0.13718485  0.08606578  1
  O  O193  1  0.77489126  0.13601090  0.42149751  1
  O  O194  1  0.78600335  0.13822892  0.76131583  1
  O  O195  1  0.77832626  0.63397780  0.08717766  1
  O  O196  1  0.77715528  0.62295003  0.43038248  1
  O  O197  1  0.77585226  0.63165201  0.75609410  1
  O  O198  1  0.13255007  0.28662451  0.26286590  1
  O  O199  1  0.13209898  0.27974812  0.58766960  1
  O  O200  1  0.13719378  0.27722723  0.91781720  1
  O  O201  1  0.12942308  0.78057647  0.26241988  1
  O  O202  1  0.12961890  0.77491448  0.58181628  1
  O  O203  1  0.13359042  0.78810289  0.93248146  1
  O  O204  1  0.63119574  0.28077889  0.25308977  1
  O  O205  1  0.63166648  0.27889195  0.58587507  1
  O  O206  1  0.61670206  0.28354389  0.92823880  1
  O  O207  1  0.62754769  0.77989203  0.26278904  1
  O  O208  1  0.63205571  0.77018048  0.58377521  1
  O  O209  1  0.63229173  0.78227544  0.92894004  1
  O  O210  1  0.21296028  0.37031823  0.23019525  1
  O  O211  1  0.22043233  0.36810323  0.57313562  1
  O  O212  1  0.22004482  0.36832390  0.90108530  1
  O  O213  1  0.22138392  0.86277419  0.24524246  1
  O  O214  1  0.22380604  0.86841503  0.58558368  1
  O  O215  1  0.21910803  0.87459446  0.91090849  1
  O  O216  1  0.72701305  0.37065895  0.25176345  1
  O  O217  1  0.71927056  0.37046038  0.57446159  1
  O  O218  1  0.70562243  0.36227052  0.89998508  1
  O  O219  1  0.71892810  0.86751928  0.24989893  1
  O  O220  1  0.72013831  0.86462676  0.57665166  1
  O  O221  1  0.72010199  0.87084723  0.91131599  1
  O  O222  1  0.41902618  0.13021089  0.15223308  1
  O  O223  1  0.41961915  0.13639533  0.48989462  1
  O  O224  1  0.42277114  0.13620320  0.81628872  1
  O  O225  1  0.41778043  0.63475450  0.15159706  1
  O  O226  1  0.41891267  0.63270610  0.48835832  1
  O  O227  1  0.41972833  0.63091670  0.81856181  1
  O  O228  1  0.91535401  0.13482596  0.14907241  1
  O  O229  1  0.91201516  0.13878545  0.48690903  1
  O  O230  1  0.92373779  0.13522655  0.81624993  1
  O  O231  1  0.91538099  0.63683885  0.15313371  1
  O  O232  1  0.91668501  0.63101357  0.48339747  1
  O  O233  1  0.91489936  0.62931502  0.81470011  1
  O  O234  1  0.36256831  0.08050661  0.01664010  1
  O  O235  1  0.37645018  0.07779216  0.35479130  1
  O  O236  1  0.37117295  0.07694743  0.68163986  1
  O  O237  1  0.37065026  0.58096225  0.01508061  1
  O  O238  1  0.36733308  0.58965518  0.35285124  1
  O  O239  1  0.36913776  0.57879593  0.68341014  1
  O  O240  1  0.86729801  0.08717665  0.01232449  1
  O  O241  1  0.86422305  0.08266313  0.34994883  1
  O  O242  1  0.86608088  0.08214889  0.68095116  1
  O  O243  1  0.87116944  0.58996402  0.01752293  1
  O  O244  1  0.86214125  0.57994905  0.34910896  1
  O  O245  1  0.86198623  0.58234690  0.67885354  1
  O  O246  1  0.07348298  0.36658027  0.18043358  1
  O  O247  1  0.08254679  0.36875344  0.51282549  1
  O  O248  1  0.08142377  0.36882842  0.84761061  1
  O  O249  1  0.08450432  0.86375960  0.18096785  1
  O  O250  1  0.08874389  0.86996561  0.51422897  1
  O  O251  1  0.08165124  0.86489713  0.84786748  1
  O  O252  1  0.59107542  0.37333141  0.18078853  1
  O  O253  1  0.58089753  0.37446341  0.52072388  1
  O  O254  1  0.56887824  0.37910397  0.85957489  1
  O  O255  1  0.58235789  0.85807278  0.17777675  1
  O  O256  1  0.58239935  0.85929420  0.51115776  1
  O  O257  1  0.58241012  0.86347297  0.84902269  1
  O  O258  1  0.13315843  0.42504997  0.31312168  1
  O  O259  1  0.13254290  0.41819079  0.64832133  1
  O  O260  1  0.13674712  0.41418747  0.98312805  1
  O  O261  1  0.13361914  0.91890161  0.31760355  1
  O  O262  1  0.12616991  0.91040397  0.65091779  1
  O  O263  1  0.12723611  0.92678000  0.98263511  1
  O  O264  1  0.63063366  0.41750761  0.31674969  1
  O  O265  1  0.63600890  0.41553491  0.65618672  1
  O  O266  1  0.63780872  0.42066319  0.99264734  1
  O  O267  1  0.62176345  0.91846258  0.31315499  1
  O  O268  1  0.62792354  0.90695052  0.64754300  1
  O  O269  1  0.63314032  0.92116939  0.98609653  1
  O  O270  1  0.03341895  0.20743409  0.10174231  1
  O  O271  1  0.02978937  0.20092833  0.44009640  1
  O  O272  1  0.03267788  0.20971046  0.76895269  1
  O  O273  1  0.03324117  0.69888355  0.10688220  1
  O  O274  1  0.03048533  0.68268992  0.43236403  1
  O  O275  1  0.02878081  0.69573728  0.76343337  1
  O  O276  1  0.52663426  0.19087272  0.09702887  1
  O  O277  1  0.52927150  0.20170124  0.43763048  1
  O  O278  1  0.53311437  0.21041949  0.77761056  1
  O  O279  1  0.53116189  0.69509161  0.10413183  1
  O  O280  1  0.52367722  0.69292207  0.43356864  1
  O  O281  1  0.53134671  0.69587824  0.77154447  1
  O  O282  1  0.29349202  0.47284836  0.05432156  1
  O  O283  1  0.30427464  0.46913633  0.39891083  1
  O  O284  1  0.29851183  0.47001159  0.72627171  1
  O  O285  1  0.29531481  0.96352873  0.06470920  1
  O  O286  1  0.30222961  0.96693814  0.39939275  1
  O  O287  1  0.30695739  0.96280466  0.73314428  1
  O  O288  1  0.81085333  0.46959036  0.07017073  1
  O  O289  1  0.80071067  0.46842809  0.39773559  1
  O  O290  1  0.80133985  0.46791887  0.72574891  1
  O  O291  1  0.79600169  0.97753161  0.06422443  1
  O  O292  1  0.78805747  0.97585795  0.39747385  1
  O  O293  1  0.80985715  0.96104305  0.73135214  1
  O  O294  1  0.47422741  0.29709385  0.23537459  1
  O  O295  1  0.47145795  0.30306397  0.56318861  1
  O  O296  1  0.45786791  0.29116538  0.88477263  1
  O  O297  1  0.46565973  0.79675792  0.23031732  1
  O  O298  1  0.47245130  0.79655520  0.56671674  1
  O  O299  1  0.46772206  0.79416961  0.89651907  1
  O  O300  1  0.96511742  0.31283103  0.22833512  1
  O  O301  1  0.97302043  0.30722269  0.56088229  1
  O  O302  1  0.98012279  0.29687253  0.89832599  1
  O  O303  1  0.96949163  0.80315640  0.22752594  1
  O  O304  1  0.96531859  0.80090919  0.56873219  1
  O  O305  1  0.96412564  0.80826882  0.90101932  1
  O  O306  1  0.20962825  0.02409593  0.27337876  1
  O  O307  1  0.20367533  0.03095388  0.59963760  1
  O  O308  1  0.20261216  0.03481338  0.94240467  1
  O  O309  1  0.19407566  0.54393340  0.27020840  1
  O  O310  1  0.19995602  0.52946846  0.60244336  1
  O  O311  1  0.20826459  0.52821744  0.93621827  1
  O  O312  1  0.69844732  0.02688134  0.26735083  1
  O  O313  1  0.69313002  0.02516676  0.59512914  1
  O  O314  1  0.69935703  0.03613812  0.93779283  1
  O  O315  1  0.70092968  0.53044610  0.27229616  1
  O  O316  1  0.69323162  0.52690828  0.60434903  1
  O  O317  1  0.68836666  0.53364225  0.93814946  1
  O  O318  1  0.08819417  0.09396570  0.04153881  1
  O  O319  1  0.08718271  0.09005915  0.37626334  1
  O  O320  1  0.09141132  0.09964898  0.70839467  1
  O  O321  1  0.08869086  0.58747753  0.03932751  1
  O  O322  1  0.08682948  0.58011114  0.36108721  1
  O  O323  1  0.08225312  0.58459395  0.69822842  1
  O  O324  1  0.57485662  0.07938267  0.02489361  1
  O  O325  1  0.58518420  0.09308969  0.37246637  1
  O  O326  1  0.58822197  0.10016887  0.71273140  1
  O  O327  1  0.58972755  0.58511225  0.04128767  1
  O  O328  1  0.57877402  0.58065617  0.37092986  1
  O  O329  1  0.58318635  0.58273654  0.70477840  1
  O  O330  1  0.41174640  0.42366430  0.11247686  1
  O  O331  1  0.41533006  0.41742831  0.46670995  1
  O  O332  1  0.41462226  0.42179211  0.79199233  1
  O  O333  1  0.40273947  0.90099754  0.12358871  1
  O  O334  1  0.41089268  0.91046445  0.46550872  1
  O  O335  1  0.41121590  0.90639968  0.80370196  1
  O  O336  1  0.91742090  0.40764237  0.13025204  1
  O  O337  1  0.91491307  0.41709425  0.46290855  1
  O  O338  1  0.91982298  0.42046814  0.79114179  1
  O  O339  1  0.90568903  0.92034473  0.12859299  1
  O  O340  1  0.89540316  0.91288916  0.45566257  1
  O  O341  1  0.91408140  0.90829919  0.80890448  1
  O  O342  1  0.42011906  0.40859710  0.29591795  1
  O  O343  1  0.41960949  0.41756512  0.62757679  1
  O  O344  1  0.41663778  0.41197890  0.95207068  1
  O  O345  1  0.41166261  0.90588417  0.30054628  1
  O  O346  1  0.41453377  0.90717530  0.62787881  1
  O  O347  1  0.40656073  0.90221212  0.95928378  1
  O  O348  1  0.91920738  0.42103323  0.30603382  1
  O  O349  1  0.92417983  0.42074851  0.63019495  1
  O  O350  1  0.93692471  0.41481545  0.96271098  1
  O  O351  1  0.90320243  0.90949276  0.28521299  1
  O  O352  1  0.90801567  0.90906386  0.63333514  1
  O  O353  1  0.90821352  0.91633070  0.96859708  1
  O  O354  1  0.10583360  0.09393763  0.22102930  1
  O  O355  1  0.09277673  0.08642037  0.53603031  1
  O  O356  1  0.09271965  0.09236132  0.87903142  1
  O  O357  1  0.07905639  0.58326554  0.19339556  1
  O  O358  1  0.08672606  0.57932700  0.53400873  1
  O  O359  1  0.08702969  0.56904069  0.87260687  1
  O  O360  1  0.59515866  0.09684826  0.21351089  1
  O  O361  1  0.58327495  0.08520916  0.53507735  1
  O  O362  1  0.59138741  0.09701338  0.87523553  1
  O  O363  1  0.59046541  0.58212634  0.20151712  1
  O  O364  1  0.58223083  0.57800253  0.53449519  1
  O  O365  1  0.58196363  0.58507556  0.86434762  1
  O  O366  1  0.14131777  0.22546999  0.05551589  1
  O  O367  1  0.13337079  0.22267451  0.39086798  1
  O  O368  1  0.14012398  0.23215621  0.72471213  1
  O  O369  1  0.13462419  0.72166224  0.05601882  1
  O  O370  1  0.13995002  0.71699861  0.39357016  1
  O  O371  1  0.13858870  0.71784621  0.72039365  1
  O  O372  1  0.63607622  0.21038195  0.05333532  1
  O  O373  1  0.63931265  0.22731358  0.39686725  1
  O  O374  1  0.63775535  0.23353977  0.73013283  1
  O  O375  1  0.63364644  0.72026981  0.05416880  1
  O  O376  1  0.63602621  0.71395799  0.39374125  1
  O  O377  1  0.63721948  0.71630487  0.72339709  1
  O  O378  1  0.28333816  0.36543810  0.10183999  1
  O  O379  1  0.28215248  0.36069416  0.44370117  1
  O  O380  1  0.28370890  0.36088028  0.77158891  1
  O  O381  1  0.26855025  0.85589547  0.10795098  1
  O  O382  1  0.27540295  0.85876035  0.44175059  1
  O  O383  1  0.27565965  0.85634505  0.77602195  1
  O  O384  1  0.78376703  0.37039586  0.12520244  1
  O  O385  1  0.78231130  0.36074752  0.44387026  1
  O  O386  1  0.79094461  0.37157835  0.78752738  1
  O  O387  1  0.77089615  0.87043394  0.10867757  1
  O  O388  1  0.76205300  0.86331889  0.43429680  1
  O  O389  1  0.77628501  0.85922349  0.77734070  1
  O  O390  1  0.36486002  0.27704182  0.27936439  1
  O  O391  1  0.36280786  0.28545527  0.60818174  1
  O  O392  1  0.36263122  0.28363906  0.94676324  1
  O  O393  1  0.35871603  0.77060110  0.27459031  1
  O  O394  1  0.36140162  0.77365734  0.60739759  1
  O  O395  1  0.35801165  0.76772677  0.93710754  1
  O  O396  1  0.86306141  0.28607425  0.27856990  1
  O  O397  1  0.86427087  0.28812777  0.60552683  1
  O  O398  1  0.86573016  0.28633822  0.93742859  1
  O  O399  1  0.87489391  0.77699924  0.28456894  1
  O  O400  1  0.85632980  0.77375970  0.60917469  1
  O  O401  1  0.85580507  0.78103441  0.94308530  1
  O  O402  1  0.23965054  0.13246859  0.23294231  1
  O  O403  1  0.22587877  0.13889633  0.55495517  1
  O  O404  1  0.22619306  0.13320373  0.88840563  1
  O  O405  1  0.21170842  0.64386039  0.21618251  1
  O  O406  1  0.22028071  0.63838791  0.55924795  1
  O  O407  1  0.21397556  0.63686280  0.88861247  1
  O  O408  1  0.73076871  0.13994999  0.23358571  1
  O  O409  1  0.71742341  0.13160276  0.54887816  1
  O  O410  1  0.72461845  0.13824836  0.88728827  1
  O  O411  1  0.72495715  0.64138120  0.23219550  1
  O  O412  1  0.71676134  0.63491289  0.56039412  1
  O  O413  1  0.71739473  0.64135031  0.89518126  1
  O  O414  1  0.50012776  0.33828035  0.02090161  1
  O  O415  1  0.49424245  0.33310562  0.36956402  1
  O  O416  1  0.49427724  0.33981448  0.69737105  1
  O  O417  1  0.48723604  0.82422727  0.02760736  1
  O  O418  1  0.48925508  0.82406392  0.36310015  1
  O  O419  1  0.49049813  0.82836535  0.69861687  1
  O  O420  1  0.99383678  0.32797093  0.03203194  1
  O  O421  1  0.99559517  0.33362110  0.36179374  1
  O  O422  1  0.99565823  0.33581760  0.69433411  1
  O  O423  1  0.98537347  0.83329999  0.03262513  1
  O  O424  1  1.00134125  0.85360053  0.36250742  1
  O  O425  1  0.98557825  0.82999617  0.70150245  1
  O  O426  1  0.17061964  0.00847317  0.14060829  1
  O  O427  1  0.16929890  0.00821674  0.46613692  1
  O  O428  1  0.15864689  0.00271339  0.80648344  1
  O  O429  1  0.16781681  0.50903469  0.13585545  1
  O  O430  1  0.17112856  0.50779746  0.46856262  1
  O  O431  1  0.16936985  0.50563088  0.80090703  1
  O  O432  1  0.66662440  0.01739863  0.13663333  1
  O  O433  1  0.65223297  0.00415785  0.46024839  1
  O  O434  1  0.65947541  0.00794523  0.80340898  1
  O  O435  1  0.67746706  0.51049416  0.14103860  1
  O  O436  1  0.66704595  0.50405159  0.47145729  1
  O  O437  1  0.66922386  0.50956353  0.80669912  1
  O  O438  1  0.00136346  0.16159374  0.30553668  1
  O  O439  1  0.01114585  0.17414460  0.63523208  1
  O  O440  1  0.01018001  0.16687491  0.96786162  1
  O  O441  1  0.01044850  0.66734103  0.30256457  1
  O  O442  1  0.00820489  0.66485604  0.62980187  1
  O  O443  1  0.00279551  0.66011535  0.97177705  1
  O  O444  1  0.51033006  0.17380811  0.30463574  1
  O  O445  1  0.50832929  0.17709913  0.64287985  1
  O  O446  1  0.50383505  0.16854964  0.96540154  1
  O  O447  1  0.50739041  0.66159614  0.30117115  1
  O  O448  1  0.50637611  0.66140774  0.63691169  1
  O  O449  1  0.50538425  0.65613699  0.96906998  1
  O  O450  1  0.33807887  0.49582958  0.18956766  1
  O  O451  1  0.33358437  0.49244621  0.53222776  1
  O  O452  1  0.33260287  0.49277333  0.85997902  1
  O  O453  1  0.33229001  0.98296317  0.19802751  1
  O  O454  1  0.33107402  0.98777591  0.53259749  1
  O  O455  1  0.32854332  0.98668559  0.86446835  1
  O  O456  1  0.85279959  0.49853487  0.20524250  1
  O  O457  1  0.83497067  0.49175520  0.53160348  1
  O  O458  1  0.84963559  0.50666643  0.86178932  1
  O  O459  1  0.82958659  0.99956382  0.19759780  1
  O  O460  1  0.81971729  0.98922110  0.52989849  1
  O  O461  1  0.83026912  0.99110103  0.86381071  1
