# generated using pymatgen
data_Na31Fe20(SO4)36
_symmetry_space_group_name_H-M   'P 1'
_cell_length_a   18.09167771
_cell_length_b   18.10247663
_cell_length_c   19.73599345
_cell_angle_alpha   107.57074873
_cell_angle_beta   107.56094565
_cell_angle_gamma   90.78439045
_symmetry_Int_Tables_number   1
_chemical_formula_structural   Na31Fe20(SO4)36
_chemical_formula_sum   'Na62 Fe40 S72 O288'
_cell_volume   5835.72291650
_cell_formula_units_Z   2
loop_
 _symmetry_equiv_pos_site_id
 _symmetry_equiv_pos_as_xyz
  1  'x, y, z'
loop_
 _atom_site_type_symbol
 _atom_site_label
 _atom_site_symmetry_multiplicity
 _atom_site_fract_x
 _atom_site_fract_y
 _atom_site_fract_z
 _atom_site_occupancy
  Na  Na0  1  0.13956420  0.38447441  0.10583142  1
  Na  Na1  1  0.14900574  0.36053565  0.41557600  1
  Na  Na2  1  0.13652941  0.36376527  0.75149116  1
  Na  Na3  1  0.13911463  0.84737050  0.08679372  1
  Na  Na4  1  0.13830594  0.87102765  0.42267092  1
  Na  Na5  1  0.15782877  0.86291469  0.75879215  1
  Na  Na6  1  0.62955332  0.37503056  0.08687835  1
  Na  Na7  1  0.62114328  0.37053017  0.41423124  1
  Na  Na8  1  0.63148020  0.36891208  0.75100088  1
  Na  Na9  1  0.62360051  0.86314690  0.06819384  1
  Na  Na10  1  0.63811756  0.87016890  0.42284615  1
  Na  Na11  1  0.62703965  0.86185191  0.74465541  1
  Na  Na12  1  0.36754212  0.15118772  0.26889858  1
  Na  Na13  1  0.36083965  0.12709576  0.57460506  1
  Na  Na14  1  0.36413647  0.11838586  0.90197521  1
  Na  Na15  1  0.36586181  0.62810333  0.24747251  1
  Na  Na16  1  0.34936816  0.61980887  0.55673489  1
  Na  Na17  1  0.36473433  0.64379971  0.91518661  1
  Na  Na18  1  0.86735515  0.13142135  0.24963675  1
  Na  Na19  1  0.86779344  0.13469788  0.58568354  1
  Na  Na20  1  0.86860093  0.13489394  0.91927654  1
  Na  Na21  1  0.87887243  0.62999354  0.25342279  1
  Na  Na22  1  0.86359434  0.64089728  0.58817818  1
  Na  Na23  1  0.86850443  0.64770418  0.93120029  1
  Na  Na24  1  0.31292612  0.46101481  0.29572551  1
  Na  Na25  1  0.48956004  0.54178238  0.75600923  1
  Na  Na26  1  1.01256291  -0.02846731  0.08985149  1
  Na  Na27  1  0.48353830  0.00525488  0.43338122  1
  Na  Na28  1  0.98905251  0.01189725  0.41741520  1
  Na  Na29  1  0.98954552  0.51406266  0.75137704  1
  Na  Na30  1  1.04497210  0.48577105  0.35034197  1
  Na  Na31  1  1.03207828  0.69434594  0.20601189  1
  Na  Na32  1  1.02638948  -0.01455533  0.74260478  1
  Na  Na33  1  -0.00047028  0.94181872  0.23686541  1
  Na  Na34  1  0.50779388  0.48134836  0.54697947  1
  Na  Na35  1  0.06497031  0.99736667  0.59894782  1
  Na  Na36  1  0.43194011  1.00673834  0.69772567  1
  Na  Na37  1  -0.00006182  0.48915036  0.93222622  1
  Na  Na38  1  0.49217647  0.51397364  0.92610706  1
  Na  Na39  1  0.50126732  1.00244337  0.23429178  1
  Na  Na40  1  0.00948473  0.49284134  0.57383511  1
  Na  Na41  1  0.00992857  0.98936474  0.91425073  1
  Na  Na42  1  0.25190633  0.75114797  -0.00657854  1
  Na  Na43  1  0.74106180  0.74252651  0.00166990  1
  Na  Na44  1  0.25750835  0.75089890  0.66080620  1
  Na  Na45  1  0.24281312  0.24435400  0.00831999  1
  Na  Na46  1  0.74577224  0.24842596  0.33616257  1
  Na  Na47  1  0.24266699  0.73866632  0.32907808  1
  Na  Na48  1  0.74272994  0.24549158  0.00613426  1
  Na  Na49  1  0.25674914  0.25096366  0.66438419  1
  Na  Na50  1  0.74918003  0.75011171  0.33781142  1
  Na  Na51  1  0.74312418  0.25037370  0.67052116  1
  Na  Na52  1  0.73904434  0.74029194  0.51448004  1
  Na  Na53  1  0.74421355  0.24677295  0.16979771  1
  Na  Na54  1  0.26715514  0.25197634  0.48713064  1
  Na  Na55  1  0.75414608  0.75955388  0.82117025  1
  Na  Na56  1  0.74445981  0.24330707  0.83810710  1
  Na  Na57  1  0.75082003  0.74601997  0.16735999  1
  Na  Na58  1  0.24328675  0.23982739  0.83936625  1
  Na  Na59  1  0.74288601  0.24793224  0.50162579  1
  Na  Na60  1  0.24708431  0.24316984  0.17828588  1
  Na  Na61  1  0.25562527  0.75928249  0.49730083  1
  Fe  Fe62  1  0.46294967  0.31353501  0.12132071  1
  Fe  Fe63  1  0.46706139  0.81024309  0.45686389  1
  Fe  Fe64  1  0.96406226  0.30809457  0.12082022  1
  Fe  Fe65  1  0.96318003  0.30803752  0.78599022  1
  Fe  Fe66  1  0.46891157  0.79962213  0.79622999  1
  Fe  Fe67  1  0.46636535  0.31370667  0.79139934  1
  Fe  Fe68  1  0.96807359  0.30336249  0.45113118  1
  Fe  Fe69  1  0.96808903  0.81086905  0.45656317  1
  Fe  Fe70  1  0.96406045  0.80686801  0.78128666  1
  Fe  Fe71  1  0.46419063  0.80478144  0.11822542  1
  Fe  Fe72  1  0.69408668  0.03310756  0.37926588  1
  Fe  Fe73  1  0.68966374  0.53420369  0.37809673  1
  Fe  Fe74  1  0.69294797  0.53520595  0.04739847  1
  Fe  Fe75  1  0.19582072  0.03251355  0.05058201  1
  Fe  Fe76  1  0.19491886  0.03174644  0.38074747  1
  Fe  Fe77  1  0.69134927  0.53778261  0.71760095  1
  Fe  Fe78  1  0.68793428  0.03469531  0.04070443  1
  Fe  Fe79  1  0.68679881  0.03510274  0.70934816  1
  Fe  Fe80  1  0.19478340  0.53704046  0.04877131  1
  Fe  Fe81  1  0.19108311  0.53943063  0.71439317  1
  Fe  Fe82  1  0.53710542  0.68808497  0.54539435  1
  Fe  Fe83  1  0.03297081  0.18425653  0.21199580  1
  Fe  Fe84  1  0.03574702  0.19367804  0.54964958  1
  Fe  Fe85  1  0.03551655  0.68604362  0.54408165  1
  Fe  Fe86  1  0.53359668  0.69017276  0.21172247  1
  Fe  Fe87  1  0.52807201  0.20389275  0.54221098  1
  Fe  Fe88  1  0.53253522  0.19160917  0.20962895  1
  Fe  Fe89  1  0.03613743  0.69454189  0.88150671  1
  Fe  Fe90  1  0.03513433  0.18980526  0.88014622  1
  Fe  Fe91  1  0.53476511  0.19383500  0.87823655  1
  Fe  Fe92  1  0.80759604  0.96561951  0.61951195  1
  Fe  Fe93  1  0.80882363  0.96456930  0.95012527  1
  Fe  Fe94  1  0.30645670  0.46676372  0.61571785  1
  Fe  Fe95  1  0.31142038  0.95919757  0.28612379  1
  Fe  Fe96  1  0.80377027  0.96599516  0.28132678  1
  Fe  Fe97  1  0.31470608  0.96262338  0.95416233  1
  Fe  Fe98  1  0.30961235  0.46479444  0.95467830  1
  Fe  Fe99  1  0.81088915  0.46559130  0.95730856  1
  Fe  Fe100  1  0.81013944  0.46674534  0.28821959  1
  Fe  Fe101  1  0.80634839  0.46621200  0.61833015  1
  S  S102  1  0.35873445  0.14008823  0.08193550  1
  S  S103  1  0.36217782  0.13396844  0.41513581  1
  S  S104  1  0.35880161  0.15321378  0.75452196  1
  S  S105  1  0.35941432  0.63962395  0.08088624  1
  S  S106  1  0.36443171  0.64431227  0.41584216  1
  S  S107  1  0.35510133  0.64113891  0.74987446  1
  S  S108  1  0.85892306  0.13992882  0.08166065  1
  S  S109  1  0.85923117  0.14061783  0.41749849  1
  S  S110  1  0.85724509  0.14105912  0.74907616  1
  S  S111  1  0.85449021  0.64162536  0.07913738  1
  S  S112  1  0.85901236  0.64099173  0.41945094  1
  S  S113  1  0.85929621  0.64000302  0.74934463  1
  S  S114  1  0.13529658  0.34674092  0.24830778  1
  S  S115  1  0.13970184  0.36031451  0.58765670  1
  S  S116  1  0.13842485  0.36003295  0.91597033  1
  S  S117  1  0.14287927  0.86237564  0.24892865  1
  S  S118  1  0.14043733  0.85493568  0.59030959  1
  S  S119  1  0.13928408  0.86296333  0.91310269  1
  S  S120  1  0.64363786  0.36012851  0.24909946  1
  S  S121  1  0.64381454  0.36317958  0.58529080  1
  S  S122  1  0.64387637  0.35940839  0.91812439  1
  S  S123  1  0.64063896  0.85970925  0.24810174  1
  S  S124  1  0.64131510  0.85992973  0.58346679  1
  S  S125  1  0.64242994  0.85903906  0.91402393  1
  S  S126  1  0.06586734  0.16323061  0.04141679  1
  S  S127  1  0.06562687  0.16521359  0.37620083  1
  S  S128  1  0.06133410  0.17016546  0.71227021  1
  S  S129  1  0.07321268  0.66640055  0.03078183  1
  S  S130  1  0.06760257  0.68039659  0.38347113  1
  S  S131  1  0.06332185  0.66878246  0.70836330  1
  S  S132  1  0.56988018  0.17611307  0.04314300  1
  S  S133  1  0.56967430  0.16274295  0.37121863  1
  S  S134  1  0.56938892  0.17661752  0.70778193  1
  S  S135  1  0.56527583  0.66909313  0.04399586  1
  S  S136  1  0.57506770  0.67693291  0.37866644  1
  S  S137  1  0.56464985  0.66825438  0.70853020  1
  S  S138  1  0.32329347  0.43148957  0.11710656  1
  S  S139  1  0.33069529  0.42651153  0.46089559  1
  S  S140  1  0.32843022  0.43694259  0.79097124  1
  S  S141  1  0.32938206  0.93135859  0.12269746  1
  S  S142  1  0.33035888  0.93155500  0.45871383  1
  S  S143  1  0.34448404  0.92839539  0.79403204  1
  S  S144  1  0.82765752  0.42963977  0.12381915  1
  S  S145  1  0.83085529  0.42981400  0.45813242  1
  S  S146  1  0.83473078  0.43622097  0.79325588  1
  S  S147  1  0.82776836  0.93674095  0.11883715  1
  S  S148  1  0.83233309  0.93733229  0.45974879  1
  S  S149  1  0.83157692  0.93520056  0.78953094  1
  S  S150  1  0.43939466  0.32684772  0.28292032  1
  S  S151  1  0.43351610  0.33247600  0.63038921  1
  S  S152  1  0.43459642  0.33124074  0.95703398  1
  S  S153  1  0.43870134  0.83391165  0.29384106  1
  S  S154  1  0.43048963  0.81395619  0.62237756  1
  S  S155  1  0.43110017  0.82757552  0.95905608  1
  S  S156  1  0.92933580  0.32582120  0.29113837  1
  S  S157  1  0.93333340  0.33191677  0.62411341  1
  S  S158  1  0.93271069  0.32624248  0.95573659  1
  S  S159  1  0.92828201  0.83691257  0.29647495  1
  S  S160  1  0.93025934  0.83217233  0.62303118  1
  S  S161  1  0.93604320  0.83238471  0.95207373  1
  S  S162  1  0.16897028  0.06406220  0.20659861  1
  S  S163  1  0.16691129  0.07185847  0.54104841  1
  S  S164  1  0.16748477  0.06499440  0.87854435  1
  S  S165  1  0.17374320  0.56622441  0.20951339  1
  S  S166  1  0.16234815  0.55874334  0.54070106  1
  S  S167  1  0.16945841  0.56468946  0.87406175  1
  S  S168  1  0.67087805  0.06775092  0.20696623  1
  S  S169  1  0.67023858  0.07252909  0.54268795  1
  S  S170  1  0.67459038  0.07244906  0.87555034  1
  S  S171  1  0.67781660  0.57178977  0.21330132  1
  S  S172  1  0.67334176  0.56584633  0.54315520  1
  S  S173  1  0.66784730  0.55843521  0.87702513  1
  O  O174  1  0.36750160  0.21952347  0.07510507  1
  O  O175  1  0.36858941  0.20867585  0.40380612  1
  O  O176  1  0.36807598  0.23822099  0.75858327  1
  O  O177  1  0.36838015  0.71849746  0.07243869  1
  O  O178  1  0.37786900  0.72635602  0.41157255  1
  O  O179  1  0.37089424  0.72327976  0.74895596  1
  O  O180  1  0.87014106  0.21809314  0.07209852  1
  O  O181  1  0.86784285  0.21991138  0.41021230  1
  O  O182  1  0.86555386  0.21987080  0.73967173  1
  O  O183  1  0.86389718  0.71433587  0.06280179  1
  O  O184  1  0.86681683  0.71985441  0.41162791  1
  O  O185  1  0.86804313  0.71763188  0.74024945  1
  O  O186  1  0.27963388  0.13156825  0.09132792  1
  O  O187  1  0.28519052  0.12138588  0.42752540  1
  O  O188  1  0.28616216  0.13889072  0.76855396  1
  O  O189  1  0.27911819  0.62851827  0.08435558  1
  O  O190  1  0.28926851  0.64062704  0.42936955  1
  O  O191  1  0.27359152  0.63510844  0.75192943  1
  O  O192  1  0.77878159  0.13431503  0.08791070  1
  O  O193  1  0.77988514  0.13168762  0.42490790  1
  O  O194  1  0.77736622  0.13192755  0.75510344  1
  O  O195  1  0.77057144  0.63205805  0.07982578  1
  O  O196  1  0.77986510  0.62974942  0.42715176  1
  O  O197  1  0.78094340  0.63060687  0.75848828  1
  O  O198  1  0.12415649  0.26554000  0.25259361  1
  O  O199  1  0.12843578  0.28370023  0.60031253  1
  O  O200  1  0.12980536  0.28064078  0.92360888  1
  O  O201  1  0.13582540  0.78737730  0.26130297  1
  O  O202  1  0.12365379  0.77416791  0.59447039  1
  O  O203  1  0.13018471  0.78224373  0.91622910  1
  O  O204  1  0.63667356  0.27926018  0.25382798  1
  O  O205  1  0.63177013  0.28225577  0.58876984  1
  O  O206  1  0.63441489  0.27869456  0.92255781  1
  O  O207  1  0.63350609  0.77979348  0.25365417  1
  O  O208  1  0.63595430  0.77991875  0.58809173  1
  O  O209  1  0.64107035  0.78595369  0.93011867  1
  O  O210  1  0.21139542  0.35632288  0.23833877  1
  O  O211  1  0.22022929  0.36736774  0.58457333  1
  O  O212  1  0.21630515  0.36818030  0.90551059  1
  O  O213  1  0.22184302  0.87470090  0.24128527  1
  O  O214  1  0.21830905  0.85963629  0.58361677  1
  O  O215  1  0.21695993  0.87569458  0.90554729  1
  O  O216  1  0.72290679  0.37091765  0.24094038  1
  O  O217  1  0.72601650  0.36878565  0.58154126  1
  O  O218  1  0.72328011  0.36749709  0.91027436  1
  O  O219  1  0.71794490  0.86970708  0.23635397  1
  O  O220  1  0.71797963  0.87333899  0.57106531  1
  O  O221  1  0.71829578  0.87458568  0.90044151  1
  O  O222  1  0.41780014  0.12941176  0.14828004  1
  O  O223  1  0.42366977  0.12722746  0.48377070  1
  O  O224  1  0.42512071  0.13853436  0.81572575  1
  O  O225  1  0.41652239  0.63500432  0.15100027  1
  O  O226  1  0.42670704  0.63285325  0.48129950  1
  O  O227  1  0.41013333  0.62558486  0.81427569  1
  O  O228  1  0.91542420  0.13251760  0.15106076  1
  O  O229  1  0.91779307  0.13220892  0.48543586  1
  O  O230  1  0.91501020  0.13511291  0.81823969  1
  O  O231  1  0.90593989  0.63983893  0.15133315  1
  O  O232  1  0.91718981  0.63371938  0.48813129  1
  O  O233  1  0.91933352  0.63038752  0.81595065  1
  O  O234  1  0.36291799  0.08269829  0.01176946  1
  O  O235  1  0.37129273  0.07023197  0.34949098  1
  O  O236  1  0.36286569  0.10584634  0.68139486  1
  O  O237  1  0.37022257  0.58077966  0.01406979  1
  O  O238  1  0.36845352  0.58855898  0.34648226  1
  O  O239  1  0.36274829  0.58658716  0.67900054  1
  O  O240  1  0.86779161  0.07991457  0.01508070  1
  O  O241  1  0.86771991  0.08187388  0.34965991  1
  O  O242  1  0.86643981  0.08193701  0.68203423  1
  O  O243  1  0.86669650  0.57612113  0.01626106  1
  O  O244  1  0.86742318  0.58191298  0.35180186  1
  O  O245  1  0.86719053  0.57947709  0.68125125  1
  O  O246  1  0.07475564  0.35362840  0.17880631  1
  O  O247  1  0.08281439  0.36359587  0.51627220  1
  O  O248  1  0.07820878  0.36787953  0.84809086  1
  O  O249  1  0.08370758  0.87049189  0.18204120  1
  O  O250  1  0.08224859  0.86866822  0.52241075  1
  O  O251  1  0.07839803  0.87401280  0.84677754  1
  O  O252  1  0.58448271  0.37003646  0.18318594  1
  O  O253  1  0.58867936  0.37659563  0.52049591  1
  O  O254  1  0.58530923  0.36948379  0.85137090  1
  O  O255  1  0.57889409  0.87227902  0.18451796  1
  O  O256  1  0.57954685  0.87082915  0.51864170  1
  O  O257  1  0.57978916  0.85609622  0.84253165  1
  O  O258  1  0.12483097  0.40246718  0.31458422  1
  O  O259  1  0.12648411  0.42243177  0.65127065  1
  O  O260  1  0.12981170  0.41952853  0.98303538  1
  O  O261  1  0.13215431  0.92408169  0.31663088  1
  O  O262  1  0.13005069  0.91207005  0.65724791  1
  O  O263  1  0.12975913  0.91857760  0.98274292  1
  O  O264  1  0.63945434  0.41661714  0.31981858  1
  O  O265  1  0.63918693  0.41935541  0.65643415  1
  O  O266  1  0.63649139  0.41614280  0.98724347  1
  O  O267  1  0.63849707  0.91656180  0.31992519  1
  O  O268  1  0.63753207  0.91698400  0.65424251  1
  O  O269  1  0.63136341  0.92343945  0.97676286  1
  O  O270  1  0.02747901  0.19040563  0.10029296  1
  O  O271  1  0.02761023  0.19687747  0.43683809  1
  O  O272  1  0.02428883  0.20611830  0.77265216  1
  O  O273  1  0.04882795  0.69503306  0.09602267  1
  O  O274  1  0.02734752  0.71098780  0.44441266  1
  O  O275  1  0.02743155  0.70045322  0.76999007  1
  O  O276  1  0.53151580  0.20466610  0.10237948  1
  O  O277  1  0.53846468  0.18847173  0.43384135  1
  O  O278  1  0.53325350  0.20712196  0.76873168  1
  O  O279  1  0.53224505  0.70173102  0.10839846  1
  O  O280  1  0.53911376  0.70713021  0.43943224  1
  O  O281  1  0.52390986  0.69634476  0.76557404  1
  O  O282  1  0.29003173  0.46841659  0.05388469  1
  O  O283  1  0.29181533  0.45936098  0.40257364  1
  O  O284  1  0.29994121  0.47479034  0.73131754  1
  O  O285  1  0.30132955  0.97021984  0.06300978  1
  O  O286  1  0.29801083  0.96310199  0.39311478  1
  O  O287  1  0.34106440  0.97205927  0.74287901  1
  O  O288  1  0.79709207  0.46890356  0.06521177  1
  O  O289  1  0.80280125  0.46511319  0.39679453  1
  O  O290  1  0.80433797  0.47208838  0.73255739  1
  O  O291  1  0.79164370  0.97338728  0.05828366  1
  O  O292  1  0.80109858  0.97240422  0.39760661  1
  O  O293  1  0.80025267  0.97140574  0.72862323  1
  O  O294  1  0.47609697  0.29032237  0.21895917  1
  O  O295  1  0.46968273  0.30562839  0.57059096  1
  O  O296  1  0.47707844  0.30279861  0.90027741  1
  O  O297  1  0.47298462  0.80057476  0.23128272  1
  O  O298  1  0.47847006  0.78861746  0.56966771  1
  O  O299  1  0.46849580  0.79973907  0.89927054  1
  O  O300  1  0.96072759  0.29315780  0.22767460  1
  O  O301  1  0.96816396  0.30048716  0.56239350  1
  O  O302  1  0.96915152  0.29571326  0.89446328  1
  O  O303  1  0.96043280  0.81233341  0.23509299  1
  O  O304  1  0.96382813  0.80191867  0.56118165  1
  O  O305  1  0.96783643  0.79941692  0.88701444  1
  O  O306  1  0.20230008  0.03445592  0.27091916  1
  O  O307  1  0.18822979  0.04168040  0.60335318  1
  O  O308  1  0.19774220  0.03557216  0.94429729  1
  O  O309  1  0.19941149  0.51575602  0.25497454  1
  O  O310  1  0.19827674  0.52622295  0.60520510  1
  O  O311  1  0.19820577  0.52657863  0.93388707  1
  O  O312  1  0.70172984  0.03129315  0.26837703  1
  O  O313  1  0.69817866  0.03555980  0.60345808  1
  O  O314  1  0.70524737  0.03544472  0.93567886  1
  O  O315  1  0.70618191  0.53307090  0.27330309  1
  O  O316  1  0.70281366  0.52916133  0.60463667  1
  O  O317  1  0.70465445  0.52190209  0.93735019  1
  O  O318  1  0.08294799  0.08070889  0.03482524  1
  O  O319  1  0.07900909  0.08263102  0.37025328  1
  O  O320  1  0.07128264  0.08937210  0.70999649  1
  O  O321  1  0.09342651  0.58322932  0.01908293  1
  O  O322  1  0.09365393  0.60634128  0.38921604  1
  O  O323  1  0.07680350  0.58522999  0.70405297  1
  O  O324  1  0.59531618  0.09890245  0.04360583  1
  O  O325  1  0.58814022  0.07923082  0.36024663  1
  O  O326  1  0.58831545  0.09624531  0.70486691  1
  O  O327  1  0.59070925  0.59078450  0.04584702  1
  O  O328  1  0.59725529  0.59827593  0.37745741  1
  O  O329  1  0.58648051  0.58813127  0.71049981  1
  O  O330  1  0.39804391  0.40486161  0.10906478  1
  O  O331  1  0.40770455  0.40426887  0.45939358  1
  O  O332  1  0.41099382  0.42065968  0.79861034  1
  O  O333  1  0.41054966  0.91184665  0.12816612  1
  O  O334  1  0.41104067  0.91177331  0.45807073  1
  O  O335  1  0.42428870  0.89943154  0.81410297  1
  O  O336  1  0.90484179  0.40598803  0.12206556  1
  O  O337  1  0.91135455  0.40776003  0.46345856  1
  O  O338  1  0.91747140  0.41946697  0.79683853  1
  O  O339  1  0.90845333  0.92555466  0.12039431  1
  O  O340  1  0.91508394  0.92380466  0.46699377  1
  O  O341  1  0.91358429  0.91787197  0.79280639  1
  O  O342  1  0.42292662  0.40424255  0.27910383  1
  O  O343  1  0.41402475  0.41411450  0.63956566  1
  O  O344  1  0.41500999  0.41110067  0.95659859  1
  O  O345  1  0.42435333  0.91684962  0.29653273  1
  O  O346  1  0.40768145  0.88950561  0.61930070  1
  O  O347  1  0.41513393  0.90949181  0.96967753  1
  O  O348  1  0.91349056  0.40775726  0.29701754  1
  O  O349  1  0.91767104  0.41445219  0.62929368  1
  O  O350  1  0.91369763  0.40661592  0.95713658  1
  O  O351  1  0.90973506  0.92127119  0.30501109  1
  O  O352  1  0.91454057  0.91511569  0.63029642  1
  O  O353  1  0.91913246  0.91525157  0.95536500  1
  O  O354  1  0.08573617  0.07827914  0.20087093  1
  O  O355  1  0.08120329  0.08932615  0.52749177  1
  O  O356  1  0.08350356  0.08222737  0.87226333  1
  O  O357  1  0.09716051  0.59050685  0.20910794  1
  O  O358  1  0.08369676  0.58106716  0.54663545  1
  O  O359  1  0.08700525  0.58200308  0.86656243  1
  O  O360  1  0.59125424  0.08808629  0.20588988  1
  O  O361  1  0.59044851  0.09399157  0.53648773  1
  O  O362  1  0.59636106  0.09496715  0.87402484  1
  O  O363  1  0.60006709  0.59524996  0.21204005  1
  O  O364  1  0.59209626  0.58267974  0.53918888  1
  O  O365  1  0.58570752  0.56430378  0.87247907  1
  O  O366  1  0.13723092  0.21509502  0.05855025  1
  O  O367  1  0.13795192  0.21493753  0.39421559  1
  O  O368  1  0.13483731  0.21902908  0.72906374  1
  O  O369  1  0.13955058  0.71525938  0.03113045  1
  O  O370  1  0.13472652  0.73876306  0.40020072  1
  O  O371  1  0.13492529  0.71684169  0.72255439  1
  O  O372  1  0.63879163  0.23280246  0.05976074  1
  O  O373  1  0.64079708  0.21466736  0.38506799  1
  O  O374  1  0.64182464  0.22918059  0.72546469  1
  O  O375  1  0.63343308  0.72451746  0.05763128  1
  O  O376  1  0.64535628  0.73145492  0.39443740  1
  O  O377  1  0.63470116  0.72159056  0.72514365  1
  O  O378  1  0.26662072  0.36380031  0.10221868  1
  O  O379  1  0.27977510  0.36084584  0.46089899  1
  O  O380  1  0.27559176  0.36581511  0.77286126  1
  O  O381  1  0.27577785  0.86125043  0.10370554  1
  O  O382  1  0.27885885  0.86010962  0.44358058  1
  O  O383  1  0.28406904  0.86099193  0.76506958  1
  O  O384  1  0.77192150  0.36103536  0.10854266  1
  O  O385  1  0.77639724  0.36111310  0.44459546  1
  O  O386  1  0.78488480  0.36391455  0.77790995  1
  O  O387  1  0.77864495  0.86424159  0.10419164  1
  O  O388  1  0.78270941  0.86474253  0.44356635  1
  O  O389  1  0.78080287  0.86519113  0.77622437  1
  O  O390  1  0.36781148  0.27384123  0.26393288  1
  O  O391  1  0.36289465  0.27847665  0.61406856  1
  O  O392  1  0.36400657  0.27769563  0.93847867  1
  O  O393  1  0.36763168  0.78601547  0.28185728  1
  O  O394  1  0.36244638  0.75525085  0.60057649  1
  O  O395  1  0.35977913  0.77629062  0.94288511  1
  O  O396  1  0.85777708  0.27580999  0.27913393  1
  O  O397  1  0.86143494  0.28150467  0.60889223  1
  O  O398  1  0.86120019  0.27440844  0.93937857  1
  O  O399  1  0.85702488  0.78700437  0.28473908  1
  O  O400  1  0.85966302  0.78195840  0.61031930  1
  O  O401  1  0.86273783  0.78382364  0.93647359  1
  O  O402  1  0.21759328  0.13333277  0.21434498  1
  O  O403  1  0.21605113  0.14368297  0.55250703  1
  O  O404  1  0.21618708  0.13828072  0.89320803  1
  O  O405  1  0.23261873  0.63312314  0.22701706  1
  O  O406  1  0.21316679  0.62858460  0.55205920  1
  O  O407  1  0.22136873  0.63517786  0.89082010  1
  O  O408  1  0.72465117  0.13846757  0.22394734  1
  O  O409  1  0.72603973  0.14196081  0.55977884  1
  O  O410  1  0.73008969  0.14205868  0.89183495  1
  O  O411  1  0.73486307  0.63999129  0.22988962  1
  O  O412  1  0.72508177  0.63656211  0.55962896  1
  O  O413  1  0.71409838  0.63325877  0.89346785  1
  O  O414  1  0.49134982  0.33510902  0.03088367  1
  O  O415  1  0.49771348  0.32594451  0.35208944  1
  O  O416  1  0.49313091  0.33479686  0.70361179  1
  O  O417  1  0.49103143  0.82561045  0.03056615  1
  O  O418  1  0.49977540  0.83970662  0.36677177  1
  O  O419  1  0.48340157  0.81851747  0.69989939  1
  O  O420  1  0.99126002  0.32865792  0.02760828  1
  O  O421  1  0.99112260  0.32769614  0.36220137  1
  O  O422  1  0.99238764  0.33435496  0.69652009  1
  O  O423  1  0.99697106  0.83596150  0.02149011  1
  O  O424  1  0.98907483  0.84265203  0.36999484  1
  O  O425  1  0.99170689  0.83524497  0.69535616  1
  O  O426  1  0.16358919  0.00032034  0.13443612  1
  O  O427  1  0.16569578  0.01069142  0.46911886  1
  O  O428  1  0.16462820  0.00380667  0.80961067  1
  O  O429  1  0.16475916  0.51410529  0.12710613  1
  O  O430  1  0.15015132  0.49608354  0.47021765  1
  O  O431  1  0.16656652  0.50574195  0.80066068  1
  O  O432  1  0.66719257  0.00906555  0.13467320  1
  O  O433  1  0.66852851  0.01213050  0.47086346  1
  O  O434  1  0.67029822  0.01315040  0.80261455  1
  O  O435  1  0.67377520  0.51203856  0.14083165  1
  O  O436  1  0.67187377  0.50659072  0.47103197  1
  O  O437  1  0.67205146  0.50301485  0.80438601  1
  O  O438  1  0.00672372  0.16535365  0.30423412  1
  O  O439  1  0.00523824  0.17076056  0.63867843  1
  O  O440  1  0.00756654  0.16177816  0.96821391  1
  O  O441  1  0.00785467  0.67432019  0.31185778  1
  O  O442  1  0.00272425  0.66584287  0.63627922  1
  O  O443  1  0.00485926  0.66016108  0.96047600  1
  O  O444  1  0.50875976  0.15981472  0.29917239  1
  O  O445  1  0.51200593  0.17489627  0.63529907  1
  O  O446  1  0.51155068  0.16983220  0.96949651  1
  O  O447  1  0.51590786  0.67277239  0.30586892  1
  O  O448  1  0.50934080  0.65709208  0.63210987  1
  O  O449  1  0.50302542  0.65711816  0.97313119  1
  O  O450  1  0.33323527  0.49181946  0.18792189  1
  O  O451  1  0.34264348  0.49085382  0.53728932  1
  O  O452  1  0.33039890  0.49438789  0.86464432  1
  O  O453  1  0.33295185  0.99032599  0.19571957  1
  O  O454  1  0.33569441  0.99240864  0.52831117  1
  O  O455  1  0.33696336  0.98354119  0.86579556  1
  O  O456  1  0.83527307  0.48824937  0.19821961  1
  O  O457  1  0.83656311  0.49136099  0.53068171  1
  O  O458  1  0.83959646  0.49423591  0.86676338  1
  O  O459  1  0.82967978  0.99403887  0.19310218  1
  O  O460  1  0.83035761  0.99608808  0.53098363  1
  O  O461  1  0.83717479  0.99595747  0.86270983  1
