# generated using pymatgen
data_Na31Fe20(SO4)36
_symmetry_space_group_name_H-M   'P 1'
_cell_length_a   18.06656533
_cell_length_b   18.07622530
_cell_length_c   19.70276407
_cell_angle_alpha   107.57288244
_cell_angle_beta   107.57530719
_cell_angle_gamma   90.70742008
_symmetry_Int_Tables_number   1
_chemical_formula_structural   Na31Fe20(SO4)36
_chemical_formula_sum   'Na62 Fe40 S72 O288'
_cell_volume   5809.77278312
_cell_formula_units_Z   2
loop_
 _symmetry_equiv_pos_site_id
 _symmetry_equiv_pos_as_xyz
  1  'x, y, z'
loop_
 _atom_site_type_symbol
 _atom_site_label
 _atom_site_symmetry_multiplicity
 _atom_site_fract_x
 _atom_site_fract_y
 _atom_site_fract_z
 _atom_site_occupancy
  Na  Na0  1  0.12711455  0.36972069  0.08318764  1
  Na  Na1  1  0.12956292  0.36476069  0.41770672  1
  Na  Na2  1  0.12680353  0.37016350  0.74916037  1
  Na  Na3  1  0.14097063  0.86411998  0.08223507  1
  Na  Na4  1  0.14091269  0.84843719  0.41555726  1
  Na  Na5  1  0.15693184  0.86406911  0.77226305  1
  Na  Na6  1  0.63750961  0.36656666  0.08768391  1
  Na  Na7  1  0.63518207  0.36226181  0.41076051  1
  Na  Na8  1  0.64028131  0.36375705  0.74755149  1
  Na  Na9  1  0.61868284  0.86889861  0.07405019  1
  Na  Na10  1  0.62431142  0.86749165  0.41096528  1
  Na  Na11  1  0.64464148  0.86666029  0.75359410  1
  Na  Na12  1  0.37231108  0.13726138  0.24706480  1
  Na  Na13  1  0.36835847  0.13192675  0.58123211  1
  Na  Na14  1  0.36083634  0.13634814  0.91281358  1
  Na  Na15  1  0.36689753  0.62581788  0.24516774  1
  Na  Na16  1  0.36073679  0.63971549  0.58066832  1
  Na  Na17  1  0.35237302  0.64479006  0.91224871  1
  Na  Na18  1  0.87436683  0.14465097  0.26703192  1
  Na  Na19  1  0.86468912  0.13104032  0.58213148  1
  Na  Na20  1  0.85616693  0.12617391  0.89984452  1
  Na  Na21  1  0.86874325  0.63952935  0.25990740  1
  Na  Na22  1  0.86819301  0.63198404  0.58531423  1
  Na  Na23  1  0.85688055  0.62957759  0.90543688  1
  Na  Na24  1  0.99105775  0.50529969  0.41965935  1
  Na  Na25  1  0.49129094  0.49911886  0.10244726  1
  Na  Na26  1  0.49934889  0.54752588  0.76335274  1
  Na  Na27  1  0.51294670  -0.01158403  0.75766962  1
  Na  Na28  1  0.49600044  0.51182870  0.40949091  1
  Na  Na29  1  1.01493695  -0.04120741  0.47341068  1
  Na  Na30  1  0.46136826  0.01375103  0.30892781  1
  Na  Na31  1  0.98921179  0.00699017  0.08038984  1
  Na  Na32  1  0.99581328  0.00909973  0.72215452  1
  Na  Na33  1  0.00466215  0.49597590  0.23544843  1
  Na  Na34  1  0.00302428  0.46188239  0.58426012  1
  Na  Na35  1  0.02559776  0.99216584  0.90967579  1
  Na  Na36  1  0.49053817  0.51742983  0.91697687  1
  Na  Na37  1  0.01043785  0.98154150  0.26543705  1
  Na  Na38  1  0.46012693  1.02108049  0.98379418  1
  Na  Na39  1  0.54077877  0.99300246  0.58733667  1
  Na  Na40  1  0.55608790  0.49648782  0.60249222  1
  Na  Na41  1  0.00503928  0.49777115  0.91508872  1
  Na  Na42  1  0.75039244  0.74299755  0.66899055  1
  Na  Na43  1  0.74214474  0.24111190  0.34231439  1
  Na  Na44  1  0.25001133  0.24960322  0.33570754  1
  Na  Na45  1  0.74823406  0.24652766  -0.00316104  1
  Na  Na46  1  0.24071028  0.24311855  0.00423467  1
  Na  Na47  1  0.25170365  0.75589902  0.66909094  1
  Na  Na48  1  0.76293656  0.76145508  0.33345335  1
  Na  Na49  1  0.25836088  0.75894728  0.32786578  1
  Na  Na50  1  0.73242734  0.73779816  0.00153819  1
  Na  Na51  1  0.24876969  0.25354426  0.66527748  1
  Na  Na52  1  0.73816719  0.24007299  0.17691793  1
  Na  Na53  1  0.74846044  0.75157586  0.16566265  1
  Na  Na54  1  0.72833813  0.72957124  0.83669618  1
  Na  Na55  1  0.25131530  0.24564553  0.16819317  1
  Na  Na56  1  0.25016879  0.25194551  0.83507188  1
  Na  Na57  1  0.74396998  0.23842206  0.51282000  1
  Na  Na58  1  0.26428371  0.76634192  0.15481417  1
  Na  Na59  1  0.25288246  0.25168484  0.50152359  1
  Na  Na60  1  0.75532380  0.24819130  0.81553173  1
  Na  Na61  1  0.75966450  0.75752924  0.49561332  1
  Fe  Fe62  1  0.46274190  0.80725693  0.11592143  1
  Fe  Fe63  1  0.46649575  0.30392579  0.12534501  1
  Fe  Fe64  1  0.46339786  0.80703628  0.45324017  1
  Fe  Fe65  1  0.96707692  0.80522002  0.78549149  1
  Fe  Fe66  1  0.46737221  0.80642575  0.79627369  1
  Fe  Fe67  1  0.46591815  0.31119381  0.78754041  1
  Fe  Fe68  1  0.96423516  0.80497337  0.11761539  1
  Fe  Fe69  1  0.96315099  0.30439599  0.78139672  1
  Fe  Fe70  1  0.46893786  0.31121424  0.45567539  1
  Fe  Fe71  1  0.96157942  0.30524316  0.11674449  1
  Fe  Fe72  1  0.68589529  0.03722951  0.37588594  1
  Fe  Fe73  1  0.20621953  0.02905073  0.37428991  1
  Fe  Fe74  1  0.21183187  0.02528019  0.04398204  1
  Fe  Fe75  1  0.19138113  0.53688316  0.38339443  1
  Fe  Fe76  1  0.68755685  0.03590385  0.04693257  1
  Fe  Fe77  1  0.68963710  0.53504358  0.04589247  1
  Fe  Fe78  1  0.19786144  0.03098239  0.71086143  1
  Fe  Fe79  1  0.19149673  0.53867324  0.04949462  1
  Fe  Fe80  1  0.69265971  0.53458459  0.38017497  1
  Fe  Fe81  1  0.18926198  0.53978038  0.71697260  1
  Fe  Fe82  1  0.03896058  0.68922914  0.87916728  1
  Fe  Fe83  1  0.03454318  0.19294394  0.21235658  1
  Fe  Fe84  1  0.03152755  0.19740977  0.53923302  1
  Fe  Fe85  1  0.03445691  0.19239705  0.87662345  1
  Fe  Fe86  1  0.03071903  0.69092842  0.21480433  1
  Fe  Fe87  1  0.53600194  0.19053823  0.87736027  1
  Fe  Fe88  1  0.03169048  0.70236377  0.54658013  1
  Fe  Fe89  1  0.53578415  0.69288514  0.21596173  1
  Fe  Fe90  1  0.53426925  0.69169556  0.54734417  1
  Fe  Fe91  1  0.53857179  0.18969729  0.54717212  1
  Fe  Fe92  1  0.30364944  0.46696277  0.95238582  1
  Fe  Fe93  1  0.79935381  0.96634765  0.61941609  1
  Fe  Fe94  1  0.80906097  0.46319942  0.28627293  1
  Fe  Fe95  1  0.30703172  0.47142857  0.62158189  1
  Fe  Fe96  1  0.30277690  0.46652120  0.28541520  1
  Fe  Fe97  1  0.80646708  0.96465309  0.28754741  1
  Fe  Fe98  1  0.80427190  0.46536811  0.62347604  1
  Fe  Fe99  1  0.80362337  0.96610767  0.94936138  1
  Fe  Fe100  1  0.31408756  0.96286860  0.62043795  1
  Fe  Fe101  1  0.80890026  0.46449400  0.95175710  1
  S  S102  1  0.35784616  0.14611667  0.08172701  1
  S  S103  1  0.36343590  0.14916057  0.41937701  1
  S  S104  1  0.35823413  0.14445600  0.75039661  1
  S  S105  1  0.36082956  0.63828890  0.08364689  1
  S  S106  1  0.35880758  0.63908292  0.41605468  1
  S  S107  1  0.35628075  0.64194415  0.75164197  1
  S  S108  1  0.85873582  0.13826603  0.08338860  1
  S  S109  1  0.86033706  0.13787284  0.41548814  1
  S  S110  1  0.86374357  0.13552217  0.74770064  1
  S  S111  1  0.85786821  0.64063587  0.08258391  1
  S  S112  1  0.86005224  0.63758929  0.41695517  1
  S  S113  1  0.86309717  0.64045813  0.75134896  1
  S  S114  1  0.13808309  0.36103790  0.24865543  1
  S  S115  1  0.14325824  0.36327690  0.58434988  1
  S  S116  1  0.13755537  0.36152143  0.91777930  1
  S  S117  1  0.13888030  0.85533047  0.25059984  1
  S  S118  1  0.14566358  0.86228606  0.58464793  1
  S  S119  1  0.13810623  0.85960503  0.91840028  1
  S  S120  1  0.64135451  0.36264733  0.24805531  1
  S  S121  1  0.64312245  0.35592284  0.58332302  1
  S  S122  1  0.64147262  0.35829296  0.91823199  1
  S  S123  1  0.63702445  0.85877019  0.24751936  1
  S  S124  1  0.63966354  0.85389148  0.58246389  1
  S  S125  1  0.64156827  0.86096927  0.91411777  1
  S  S126  1  0.06528142  0.16797948  0.04008913  1
  S  S127  1  0.07658438  0.16660783  0.37353488  1
  S  S128  1  0.07404332  0.17334655  0.70674331  1
  S  S129  1  0.06595262  0.66960348  0.04414891  1
  S  S130  1  0.06639688  0.66068198  0.37296460  1
  S  S131  1  0.07002816  0.67250145  0.70627475  1
  S  S132  1  0.56744883  0.17609578  0.04201790  1
  S  S133  1  0.56514980  0.17522370  0.37691577  1
  S  S134  1  0.55958216  0.16819624  0.71035937  1
  S  S135  1  0.56089246  0.66641765  0.04413179  1
  S  S136  1  0.56703943  0.66787586  0.37622849  1
  S  S137  1  0.56232306  0.67391647  0.70899656  1
  S  S138  1  0.32427405  0.42998155  0.12093586  1
  S  S139  1  0.32840620  0.43467902  0.45871717  1
  S  S140  1  0.32908360  0.43514485  0.79198568  1
  S  S141  1  0.33544864  0.93749913  0.13245090  1
  S  S142  1  0.33595059  0.93545510  0.46030314  1
  S  S143  1  0.34158014  0.93828943  0.79258372  1
  S  S144  1  0.82983636  0.43316322  0.12185102  1
  S  S145  1  0.83071062  0.43542416  0.45752844  1
  S  S146  1  0.83394519  0.42872143  0.79345291  1
  S  S147  1  0.83200871  0.93226357  0.12486650  1
  S  S148  1  0.81769150  0.93071260  0.45290252  1
  S  S149  1  0.83525277  0.92963294  0.79103163  1
  S  S150  1  0.42964689  0.33774755  0.29507042  1
  S  S151  1  0.43487124  0.33885519  0.62893465  1
  S  S152  1  0.43294392  0.33627079  0.96008098  1
  S  S153  1  0.42935233  0.81910609  0.28588647  1
  S  S154  1  0.43642480  0.82851198  0.62798148  1
  S  S155  1  0.42764051  0.82665346  0.95462964  1
  S  S156  1  0.93581648  0.33287502  0.28872384  1
  S  S157  1  0.93268822  0.32707786  0.62205273  1
  S  S158  1  0.93017624  0.32519238  0.95444949  1
  S  S159  1  0.93396986  0.83098947  0.29099839  1
  S  S160  1  0.93006745  0.82963710  0.62424998  1
  S  S161  1  0.92648829  0.82894009  0.95677397  1
  S  S162  1  0.17269168  0.07126928  0.20463572  1
  S  S163  1  0.17515067  0.07049529  0.54033873  1
  S  S164  1  0.16724220  0.06796510  0.87320117  1
  S  S165  1  0.16803893  0.56785156  0.21040532  1
  S  S166  1  0.16668075  0.56882203  0.54383165  1
  S  S167  1  0.16616028  0.56593991  0.87734362  1
  S  S168  1  0.67368867  0.06913698  0.21230699  1
  S  S169  1  0.66798772  0.06341925  0.53792189  1
  S  S170  1  0.66855595  0.06571863  0.87612016  1
  S  S171  1  0.67419920  0.57185368  0.21053658  1
  S  S172  1  0.66893864  0.56346221  0.53993789  1
  S  S173  1  0.66677636  0.55620443  0.87813415  1
  O  O174  1  0.36227361  0.22981172  0.08027379  1
  O  O175  1  0.36872322  0.23303321  0.42017452  1
  O  O176  1  0.36418809  0.22511104  0.74453750  1
  O  O177  1  0.37169073  0.71927358  0.08181345  1
  O  O178  1  0.36781742  0.71840686  0.40925456  1
  O  O179  1  0.36848042  0.72287064  0.74782604  1
  O  O180  1  0.86665440  0.21645875  0.07339597  1
  O  O181  1  0.86928211  0.21079582  0.39974194  1
  O  O182  1  0.87514000  0.21435021  0.74017189  1
  O  O183  1  0.86660454  0.72021977  0.07503970  1
  O  O184  1  0.86594019  0.71201191  0.40336867  1
  O  O185  1  0.87668275  0.71658754  0.73734433  1
  O  O186  1  0.27317614  0.13235461  0.08136492  1
  O  O187  1  0.28278080  0.13488202  0.42304934  1
  O  O188  1  0.27914236  0.13263650  0.75861689  1
  O  O189  1  0.28367664  0.62995555  0.09595875  1
  O  O190  1  0.28175620  0.62788812  0.42569388  1
  O  O191  1  0.27555588  0.63165351  0.75481381  1
  O  O192  1  0.78051748  0.12966575  0.09239629  1
  O  O193  1  0.78057188  0.12910787  0.42403777  1
  O  O194  1  0.78970948  0.12608215  0.76070280  1
  O  O195  1  0.77727457  0.63275369  0.08855769  1
  O  O196  1  0.78184425  0.62683804  0.42762359  1
  O  O197  1  0.78877287  0.63871915  0.76642251  1
  O  O198  1  0.12960941  0.28102317  0.25463183  1
  O  O199  1  0.13342944  0.28254657  0.58887354  1
  O  O200  1  0.12885619  0.28250717  0.92647651  1
  O  O201  1  0.12189387  0.77986539  0.26412520  1
  O  O202  1  0.13168254  0.78274455  0.59021889  1
  O  O203  1  0.11998098  0.78514289  0.93147555  1
  O  O204  1  0.64115694  0.28626758  0.25893120  1
  O  O205  1  0.63289595  0.27432343  0.58473461  1
  O  O206  1  0.62941005  0.27890344  0.92497180  1
  O  O207  1  0.63225504  0.78201897  0.26190575  1
  O  O208  1  0.63208599  0.77245957  0.58686656  1
  O  O209  1  0.63891965  0.78299191  0.92140036  1
  O  O210  1  0.21568109  0.36902938  0.23727214  1
  O  O211  1  0.22521325  0.37193603  0.58078106  1
  O  O212  1  0.21654480  0.36929831  0.90908019  1
  O  O213  1  0.21653409  0.85661675  0.24323430  1
  O  O214  1  0.22773574  0.86981233  0.58357031  1
  O  O215  1  0.21066819  0.86439633  0.90327538  1
  O  O216  1  0.71735931  0.37781926  0.23351199  1
  O  O217  1  0.72171324  0.36592621  0.57426925  1
  O  O218  1  0.72167350  0.36465798  0.91233737  1
  O  O219  1  0.71709135  0.86784041  0.24086390  1
  O  O220  1  0.71920321  0.86385533  0.57591833  1
  O  O221  1  0.71743331  0.87541526  0.89999011  1
  O  O222  1  0.41197807  0.13811003  0.14925214  1
  O  O223  1  0.42005330  0.14152523  0.48911592  1
  O  O224  1  0.41725722  0.13851894  0.81912483  1
  O  O225  1  0.42217806  0.62199220  0.14649743  1
  O  O226  1  0.42030973  0.62874046  0.48183503  1
  O  O227  1  0.41330737  0.62694952  0.81539217  1
  O  O228  1  0.91902635  0.13093600  0.15132747  1
  O  O229  1  0.91862873  0.13468914  0.48671478  1
  O  O230  1  0.92856567  0.12539542  0.81288235  1
  O  O231  1  0.91421842  0.63345927  0.15240323  1
  O  O232  1  0.92047394  0.63204007  0.48572560  1
  O  O233  1  0.92695339  0.63291977  0.81724586  1
  O  O234  1  0.36604333  0.09489900  0.01159904  1
  O  O235  1  0.37509511  0.09766676  0.35180579  1
  O  O236  1  0.36687870  0.08759593  0.68229127  1
  O  O237  1  0.36301223  0.58212981  0.01167304  1
  O  O238  1  0.36648263  0.58083956  0.34669745  1
  O  O239  1  0.36347195  0.58620457  0.67969189  1
  O  O240  1  0.86829550  0.07840186  0.01611988  1
  O  O241  1  0.87047905  0.07220282  0.35213065  1
  O  O242  1  0.87118724  0.07647096  0.67845622  1
  O  O243  1  0.86740097  0.58265056  0.01535213  1
  O  O244  1  0.86984789  0.57350511  0.35139479  1
  O  O245  1  0.86416551  0.57840747  0.68192749  1
  O  O246  1  0.07701548  0.37168267  0.18284189  1
  O  O247  1  0.08655071  0.37558267  0.51934207  1
  O  O248  1  0.07814628  0.36938092  0.85023056  1
  O  O249  1  0.07906967  0.86350961  0.18187169  1
  O  O250  1  0.09162193  0.87279953  0.51697540  1
  O  O251  1  0.07270083  0.87179872  0.85443388  1
  O  O252  1  0.57874530  0.36761394  0.18029432  1
  O  O253  1  0.58435591  0.36835501  0.51553051  1
  O  O254  1  0.58398559  0.36771709  0.85031905  1
  O  O255  1  0.57927735  0.85903455  0.17560584  1
  O  O256  1  0.58131879  0.86092922  0.51250874  1
  O  O257  1  0.57881761  0.86892302  0.84772859  1
  O  O258  1  0.13345920  0.41863348  0.31868133  1
  O  O259  1  0.13626409  0.41996062  0.65508729  1
  O  O260  1  0.12980333  0.42091837  0.98563932  1
  O  O261  1  0.13209064  0.91980715  0.31684914  1
  O  O262  1  0.13733745  0.92034788  0.65440337  1
  O  O263  1  0.13481754  0.92412608  0.98812934  1
  O  O264  1  0.63328596  0.42320758  0.31526739  1
  O  O265  1  0.63489029  0.41159249  0.65104424  1
  O  O266  1  0.63328884  0.41643723  0.98690453  1
  O  O267  1  0.62435085  0.92022321  0.31082903  1
  O  O268  1  0.62830073  0.91064550  0.64820389  1
  O  O269  1  0.63639754  0.91998980  0.98385330  1
  O  O270  1  0.02751241  0.19908652  0.10029657  1
  O  O271  1  0.04137361  0.18736352  0.43377911  1
  O  O272  1  0.03745579  0.20381737  0.76794305  1
  O  O273  1  0.02729635  0.69671046  0.10410545  1
  O  O274  1  0.03553325  0.68664490  0.43598842  1
  O  O275  1  0.03902891  0.70328539  0.77137705  1
  O  O276  1  0.53050218  0.20577831  0.10043377  1
  O  O277  1  0.53112189  0.20549052  0.44128965  1
  O  O278  1  0.52295242  0.20686951  0.77134216  1
  O  O279  1  0.53042496  0.70319591  0.10964257  1
  O  O280  1  0.52824530  0.69838890  0.43544015  1
  O  O281  1  0.52401627  0.70832830  0.76669553  1
  O  O282  1  0.29518895  0.46862927  0.06100500  1
  O  O283  1  0.29640387  0.46875540  0.39591399  1
  O  O284  1  0.29965839  0.47128203  0.73134483  1
  O  O285  1  0.30641089  0.97024045  0.06800791  1
  O  O286  1  0.31051578  0.97597423  0.40377717  1
  O  O287  1  0.31070683  0.97382935  0.72924962  1
  O  O288  1  0.80033723  0.47081744  0.06201117  1
  O  O289  1  0.79288642  0.46816924  0.39384957  1
  O  O290  1  0.80980240  0.46080379  0.73134008  1
  O  O291  1  0.80210373  0.96644740  0.06256781  1
  O  O292  1  0.78377134  0.96773085  0.39201498  1
  O  O293  1  0.81256952  0.96224663  0.72898467  1
  O  O294  1  0.46344279  0.31471614  0.23426646  1
  O  O295  1  0.47204789  0.31121798  0.56880031  1
  O  O296  1  0.46824574  0.30808757  0.89845219  1
  O  O297  1  0.47041233  0.79183827  0.22637574  1
  O  O298  1  0.47001091  0.79694013  0.56430046  1
  O  O299  1  0.47259712  0.80673518  0.89898110  1
  O  O300  1  0.96694892  0.29769067  0.22286899  1
  O  O301  1  0.97421182  0.30195916  0.56584921  1
  O  O302  1  0.96798530  0.29503775  0.89443533  1
  O  O303  1  0.96380770  0.79694420  0.22483791  1
  O  O304  1  0.96703158  0.80084565  0.56540502  1
  O  O305  1  0.95946021  0.79801554  0.89444181  1
  O  O306  1  0.19543615  0.03446530  0.26363207  1
  O  O307  1  0.20383263  0.03344846  0.60131712  1
  O  O308  1  0.18529650  0.03588445  0.93615437  1
  O  O309  1  0.19868265  0.53011724  0.27096572  1
  O  O310  1  0.19501557  0.52965043  0.60326482  1
  O  O311  1  0.19881696  0.52818625  0.93822880  1
  O  O312  1  0.70710114  0.02830085  0.27117643  1
  O  O313  1  0.69610038  0.02352295  0.59513290  1
  O  O314  1  0.70217111  0.03749165  0.94353099  1
  O  O315  1  0.70544109  0.53936477  0.27345872  1
  O  O316  1  0.69621091  0.52729532  0.59961332  1
  O  O317  1  0.70704214  0.52491121  0.94370116  1
  O  O318  1  0.08296008  0.08690984  0.03626260  1
  O  O319  1  0.10043527  0.08603538  0.36068689  1
  O  O320  1  0.09343384  0.09284813  0.70471672  1
  O  O321  1  0.08478711  0.58758492  0.03783474  1
  O  O322  1  0.07968522  0.57474946  0.36010084  1
  O  O323  1  0.08383159  0.58893968  0.69809318  1
  O  O324  1  0.58560450  0.09436657  0.03723168  1
  O  O325  1  0.58449052  0.09376791  0.37409254  1
  O  O326  1  0.56425558  0.08618985  0.70696062  1
  O  O327  1  0.58348430  0.58685096  0.04785494  1
  O  O328  1  0.58553087  0.58744310  0.37523380  1
  O  O329  1  0.57963630  0.59514767  0.71160232  1
  O  O330  1  0.40403262  0.40952833  0.12297577  1
  O  O331  1  0.41025569  0.41850721  0.46441235  1
  O  O332  1  0.41146960  0.41795681  0.79882600  1
  O  O333  1  0.41030320  0.90318228  0.12764525  1
  O  O334  1  0.41787091  0.91516150  0.46779580  1
  O  O335  1  0.41925871  0.90971344  0.78885496  1
  O  O336  1  0.91077371  0.41310508  0.12533039  1
  O  O337  1  0.91348736  0.43122099  0.46253050  1
  O  O338  1  0.91697593  0.40930971  0.80610698  1
  O  O339  1  0.91559894  0.91673542  0.13122674  1
  O  O340  1  0.89392924  0.90821536  0.45025581  1
  O  O341  1  0.91951687  0.91440935  0.80732617  1
  O  O342  1  0.40711354  0.41964970  0.30545416  1
  O  O343  1  0.41675907  0.42105572  0.63638741  1
  O  O344  1  0.41546600  0.41941187  0.96718614  1
  O  O345  1  0.40451445  0.89522319  0.28797192  1
  O  O346  1  0.42232866  0.91156539  0.63320149  1
  O  O347  1  0.41031838  0.90675152  0.96848941  1
  O  O348  1  0.91803241  0.41469251  0.28889864  1
  O  O349  1  0.90900931  0.40643060  0.62351867  1
  O  O350  1  0.91278387  0.40620743  0.95877756  1
  O  O351  1  0.91212018  0.91081120  0.28987370  1
  O  O352  1  0.90533161  0.90870533  0.62529111  1
  O  O353  1  0.91086948  0.91209570  0.96401868  1
  O  O354  1  0.08806924  0.08690867  0.19016319  1
  O  O355  1  0.09370111  0.08891363  0.53454977  1
  O  O356  1  0.08204052  0.08251215  0.85479532  1
  O  O357  1  0.08657891  0.58432703  0.20675572  1
  O  O358  1  0.08545994  0.58815154  0.53829775  1
  O  O359  1  0.08409848  0.57935828  0.87550597  1
  O  O360  1  0.59798379  0.09058150  0.21424990  1
  O  O361  1  0.58841823  0.08567877  0.54026064  1
  O  O362  1  0.58825291  0.08806670  0.87463283  1
  O  O363  1  0.59231685  0.58887816  0.20464230  1
  O  O364  1  0.58608068  0.58221955  0.53468667  1
  O  O365  1  0.58777417  0.57080453  0.88253781  1
  O  O366  1  0.13609164  0.22181058  0.05777163  1
  O  O367  1  0.14438994  0.22455175  0.39038005  1
  O  O368  1  0.14519044  0.22675378  0.72396414  1
  O  O369  1  0.13658458  0.72247604  0.06282064  1
  O  O370  1  0.13821208  0.70762097  0.38363420  1
  O  O371  1  0.14090099  0.72158222  0.71804737  1
  O  O372  1  0.64060333  0.22633496  0.05764957  1
  O  O373  1  0.63873006  0.22639189  0.39618084  1
  O  O374  1  0.63456361  0.21395223  0.72793435  1
  O  O375  1  0.63120746  0.71763640  0.05476813  1
  O  O376  1  0.63802110  0.71978254  0.39176062  1
  O  O377  1  0.63446201  0.72419877  0.72242773  1
  O  O378  1  0.26892673  0.36102998  0.10435200  1
  O  O379  1  0.27649240  0.36359506  0.44392149  1
  O  O380  1  0.27726563  0.36408627  0.77682747  1
  O  O381  1  0.27644433  0.87541061  0.12318546  1
  O  O382  1  0.28211836  0.86465891  0.44131702  1
  O  O383  1  0.28570036  0.87158784  0.77855771  1
  O  O384  1  0.77735906  0.36216376  0.10527130  1
  O  O385  1  0.78600403  0.35984755  0.44167816  1
  O  O386  1  0.78141562  0.35995591  0.78209710  1
  O  O387  1  0.78196719  0.85980627  0.10970311  1
  O  O388  1  0.76234948  0.86123974  0.43821206  1
  O  O389  1  0.78446734  0.85720094  0.77451385  1
  O  O390  1  0.36021944  0.28350877  0.28121669  1
  O  O391  1  0.36352558  0.28597057  0.61200434  1
  O  O392  1  0.36062669  0.28492435  0.94294792  1
  O  O393  1  0.36215427  0.75968158  0.26679827  1
  O  O394  1  0.36529285  0.77920927  0.61464156  1
  O  O395  1  0.35975256  0.77038641  0.93160106  1
  O  O396  1  0.86324447  0.28399988  0.27486672  1
  O  O397  1  0.86513396  0.27099805  0.60641694  1
  O  O398  1  0.85894777  0.27240618  0.93741553  1
  O  O399  1  0.86283319  0.77945159  0.27801516  1
  O  O400  1  0.86093649  0.77467124  0.61061299  1
  O  O401  1  0.85501511  0.77909560  0.94431714  1
  O  O402  1  0.22333035  0.14524784  0.22474740  1
  O  O403  1  0.22829821  0.14247036  0.55887824  1
  O  O404  1  0.21750688  0.14168712  0.89193535  1
  O  O405  1  0.21971100  0.63882554  0.22659921  1
  O  O406  1  0.22087737  0.63784423  0.56054201  1
  O  O407  1  0.21435478  0.63748114  0.89227961  1
  O  O408  1  0.73235693  0.13714136  0.22941970  1
  O  O409  1  0.72170992  0.13216690  0.55210307  1
  O  O410  1  0.72064219  0.13531066  0.88711198  1
  O  O411  1  0.72502654  0.64314711  0.22351309  1
  O  O412  1  0.72003867  0.63477998  0.55429524  1
  O  O413  1  0.71553691  0.63026820  0.89328288  1
  O  O414  1  0.49132817  0.33814507  0.03261703  1
  O  O415  1  0.49128772  0.34176238  0.36765911  1
  O  O416  1  0.49343634  0.33930070  0.70147352  1
  O  O417  1  0.48717959  0.81944024  0.02708583  1
  O  O418  1  0.48831576  0.82110298  0.35910437  1
  O  O419  1  0.49780418  0.83112779  0.69970264  1
  O  O420  1  0.98870434  0.32670127  0.02744137  1
  O  O421  1  0.99705286  0.33828418  0.35826569  1
  O  O422  1  0.99087497  0.33498805  0.69808557  1
  O  O423  1  0.98813922  0.83205382  0.02909549  1
  O  O424  1  0.99658412  0.83847832  0.36075707  1
  O  O425  1  0.98964168  0.83964466  0.69961693  1
  O  O426  1  0.17787791  0.01484524  0.13279945  1
  O  O427  1  0.17483721  0.01216344  0.46821347  1
  O  O428  1  0.17578214  0.00891663  0.80525174  1
  O  O429  1  0.16643308  0.50895248  0.13783992  1
  O  O430  1  0.16283839  0.50875462  0.47018458  1
  O  O431  1  0.16369286  0.50665506  0.80427805  1
  O  O432  1  0.67104572  0.01071364  0.13777937  1
  O  O433  1  0.65723617  0.00605554  0.46156462  1
  O  O434  1  0.66037529  0.00162999  0.80731841  1
  O  O435  1  0.67203452  0.51024204  0.13913815  1
  O  O436  1  0.66271226  0.50461847  0.46535278  1
  O  O437  1  0.66386209  0.49777854  0.80774300  1
  O  O438  1  0.01493141  0.16626716  0.30173620  1
  O  O439  1  0.01579693  0.17079129  0.63426974  1
  O  O440  1  0.00750051  0.16480508  0.96629480  1
  O  O441  1  0.00386314  0.66108601  0.30192441  1
  O  O442  1  0.00718064  0.67286786  0.63653922  1
  O  O443  1  0.00714046  0.66680363  0.97109592  1
  O  O444  1  0.50603041  0.17366998  0.30782491  1
  O  O445  1  0.50468490  0.17211222  0.63743124  1
  O  O446  1  0.50924691  0.17276678  0.96769081  1
  O  O447  1  0.50896016  0.66248902  0.30207717  1
  O  O448  1  0.50545330  0.66586574  0.63248643  1
  O  O449  1  0.49759932  0.65460563  0.97411471  1
  O  O450  1  0.32786234  0.48898034  0.19390166  1
  O  O451  1  0.32876948  0.49525011  0.52976088  1
  O  O452  1  0.33195970  0.49458772  0.86494401  1
  O  O453  1  0.35411269  1.00172173  0.20334502  1
  O  O454  1  0.33938568  0.99198145  0.53578953  1
  O  O455  1  0.35445135  1.00086922  0.86360670  1
  O  O456  1  0.83450644  0.49221747  0.19533204  1
  O  O457  1  0.82594805  0.49184366  0.52938999  1
  O  O458  1  0.83672866  0.49207515  0.86545517  1
  O  O459  1  0.83415590  0.99171263  0.19691744  1
  O  O460  1  0.82242892  0.98948400  0.52655599  1
  O  O461  1  0.83042644  0.99011965  0.86097835  1
