# generated using pymatgen
data_Na31Fe20(SO4)36
_symmetry_space_group_name_H-M   'P 1'
_cell_length_a   18.06746566
_cell_length_b   18.07122034
_cell_length_c   19.70589885
_cell_angle_alpha   107.60045413
_cell_angle_beta   107.60346690
_cell_angle_gamma   90.71849928
_symmetry_Int_Tables_number   1
_chemical_formula_structural   Na31Fe20(SO4)36
_chemical_formula_sum   'Na62 Fe40 S72 O288'
_cell_volume   5807.21305871
_cell_formula_units_Z   2
loop_
 _symmetry_equiv_pos_site_id
 _symmetry_equiv_pos_as_xyz
  1  'x, y, z'
loop_
 _atom_site_type_symbol
 _atom_site_label
 _atom_site_symmetry_multiplicity
 _atom_site_fract_x
 _atom_site_fract_y
 _atom_site_fract_z
 _atom_site_occupancy
  Na  Na0  1  0.13975045  0.36753184  0.09440246  1
  Na  Na1  1  0.16654375  0.36816005  0.42809737  1
  Na  Na2  1  0.13601690  0.36377131  0.75396483  1
  Na  Na3  1  0.12809195  0.86054354  0.08728141  1
  Na  Na4  1  0.12319310  0.85385424  0.39803396  1
  Na  Na5  1  0.13351756  0.87842949  0.75134126  1
  Na  Na6  1  0.63422753  0.37021383  0.08736848  1
  Na  Na7  1  0.63864633  0.36138722  0.41866244  1
  Na  Na8  1  0.63789679  0.36657469  0.74836765  1
  Na  Na9  1  0.62840981  0.86715745  0.08087183  1
  Na  Na10  1  0.62832380  0.85977710  0.40567663  1
  Na  Na11  1  0.64075880  0.86750495  0.75661878  1
  Na  Na12  1  0.34630500  0.14079320  0.24188521  1
  Na  Na13  1  0.36087971  0.13473275  0.58068834  1
  Na  Na14  1  0.36809376  0.12749366  0.91324628  1
  Na  Na15  1  0.37723585  0.63643304  0.25795690  1
  Na  Na16  1  0.35572422  0.62945838  0.57593530  1
  Na  Na17  1  0.36823562  0.63416454  0.92114081  1
  Na  Na18  1  0.87364402  0.13048257  0.25315057  1
  Na  Na19  1  0.87299878  0.14451441  0.59499290  1
  Na  Na20  1  0.86033207  0.13254525  0.91520895  1
  Na  Na21  1  0.86331249  0.64773214  0.25070311  1
  Na  Na22  1  0.86087100  0.64030491  0.58774512  1
  Na  Na23  1  0.87153555  0.64332746  0.92838421  1
  Na  Na24  1  1.04652090  0.47559338  0.37870530  1
  Na  Na25  1  0.49486881  0.50674320  0.40362215  1
  Na  Na26  1  1.00562391  0.00799113  0.39973384  1
  Na  Na27  1  0.47555621  0.00159639  0.76766146  1
  Na  Na28  1  0.48603433  0.53678182  0.11878595  1
  Na  Na29  1  0.48982751  0.00834717  0.41528825  1
  Na  Na30  1  0.45764207  0.50807377  0.74106379  1
  Na  Na31  1  0.99205060  0.49996606  0.75166632  1
  Na  Na32  1  0.96205107  -0.00606111  0.07636326  1
  Na  Na33  1  0.51143603  0.99630183  0.22999395  1
  Na  Na34  1  0.49824555  0.50083245  0.58567493  1
  Na  Na35  1  0.51130382  0.49148746  0.92367940  1
  Na  Na36  1  0.01814241  0.49314687  0.57439743  1
  Na  Na37  1  -0.00900600  0.55183260  0.19631433  1
  Na  Na38  1  0.03268604  0.98720072  0.60493900  1
  Na  Na39  1  -0.00742731  1.00636439  0.90524277  1
  Na  Na40  1  0.00747423  0.45745606  0.91641298  1
  Na  Na41  1  0.50576575  0.98520819  0.59011723  1
  Na  Na42  1  0.24464976  0.74506945  0.66797654  1
  Na  Na43  1  0.78011375  0.78110837  -0.00259167  1
  Na  Na44  1  0.76652292  0.26255199  0.65510303  1
  Na  Na45  1  0.75144956  0.24786054  0.00254047  1
  Na  Na46  1  0.23909672  0.23671678  0.01460136  1
  Na  Na47  1  0.24323247  0.74459288  0.00571913  1
  Na  Na48  1  0.24165140  0.24177906  0.67185035  1
  Na  Na49  1  0.74077086  0.74894251  0.33096854  1
  Na  Na50  1  0.74319691  0.24271882  0.34482282  1
  Na  Na51  1  0.22714900  0.72461767  0.33604970  1
  Na  Na52  1  0.76385500  0.76508794  0.82246815  1
  Na  Na53  1  0.26657378  0.26212430  0.49329612  1
  Na  Na54  1  0.22655210  0.73812754  0.17516476  1
  Na  Na55  1  0.23383985  0.73301411  0.49929999  1
  Na  Na56  1  0.23715707  0.23080674  0.84056299  1
  Na  Na57  1  0.74073678  0.74441823  0.51052400  1
  Na  Na58  1  0.75000769  0.24635251  0.17038484  1
  Na  Na59  1  0.76523134  0.25847699  0.82474552  1
  Na  Na60  1  0.76666816  0.76548369  0.15860288  1
  Na  Na61  1  0.24576497  0.74622908  0.83506093  1
  Fe  Fe62  1  0.46857534  0.30595374  0.78322103  1
  Fe  Fe63  1  0.46469696  0.30979368  0.12050892  1
  Fe  Fe64  1  0.46356595  0.80479835  0.44841652  1
  Fe  Fe65  1  0.46519281  0.30583837  0.44803731  1
  Fe  Fe66  1  0.96928143  0.31121061  0.12506679  1
  Fe  Fe67  1  0.96515727  0.30879610  0.45398879  1
  Fe  Fe68  1  0.96487386  0.80728216  0.78278921  1
  Fe  Fe69  1  0.46675171  0.80836045  0.79225521  1
  Fe  Fe70  1  0.46593016  0.80076675  0.12296520  1
  Fe  Fe71  1  0.96166156  0.80636465  0.44949504  1
  Fe  Fe72  1  0.69386992  0.03912796  0.38528886  1
  Fe  Fe73  1  0.69525402  0.03206484  0.04272169  1
  Fe  Fe74  1  0.69257762  0.53727029  0.71608528  1
  Fe  Fe75  1  0.69554960  0.03202237  0.71643037  1
  Fe  Fe76  1  0.68698165  0.53497626  0.37833220  1
  Fe  Fe77  1  0.19265720  0.53193021  0.04647138  1
  Fe  Fe78  1  0.19008263  0.03517320  0.04842556  1
  Fe  Fe79  1  0.20329824  0.52762101  0.71092724  1
  Fe  Fe80  1  0.18932917  0.03453977  0.37512348  1
  Fe  Fe81  1  0.69268225  0.53702265  0.05226969  1
  Fe  Fe82  1  0.03239334  0.68658512  0.54013528  1
  Fe  Fe83  1  0.03674305  0.69094670  0.88049507  1
  Fe  Fe84  1  0.03435342  0.19492976  0.55018705  1
  Fe  Fe85  1  0.53458965  0.69215646  0.88482592  1
  Fe  Fe86  1  0.53618279  0.69457803  0.55018451  1
  Fe  Fe87  1  0.03151601  0.19517034  0.87435538  1
  Fe  Fe88  1  0.53733270  0.19410580  0.88146922  1
  Fe  Fe89  1  0.53698236  0.19198132  0.54806563  1
  Fe  Fe90  1  0.03892197  0.19019450  0.21269338  1
  Fe  Fe91  1  0.53183876  0.19285237  0.21174001  1
  Fe  Fe92  1  0.29677529  0.96764981  0.62055785  1
  Fe  Fe93  1  0.81054709  0.46657746  0.95600560  1
  Fe  Fe94  1  0.30350437  0.46132225  0.28888921  1
  Fe  Fe95  1  0.81371641  0.96189805  0.62275610  1
  Fe  Fe96  1  0.81017251  0.46769707  0.28894549  1
  Fe  Fe97  1  0.80407569  0.96959875  0.28737060  1
  Fe  Fe98  1  0.30817125  0.96724527  0.95450272  1
  Fe  Fe99  1  0.31047963  0.46305410  0.95588806  1
  Fe  Fe100  1  0.30023555  0.96571542  0.28187853  1
  Fe  Fe101  1  0.80664247  0.46343589  0.61636545  1
  S  S102  1  0.36071824  0.14011937  0.08274839  1
  S  S103  1  0.36088693  0.13657279  0.41662390  1
  S  S104  1  0.36186293  0.14127876  0.74826779  1
  S  S105  1  0.35534358  0.64019148  0.08323861  1
  S  S106  1  0.36331501  0.63783182  0.41637664  1
  S  S107  1  0.36088195  0.64313490  0.75102873  1
  S  S108  1  0.86259720  0.14497430  0.08491122  1
  S  S109  1  0.86037126  0.14275061  0.42037433  1
  S  S110  1  0.85707105  0.13882963  0.75013339  1
  S  S111  1  0.85325040  0.64017880  0.08200100  1
  S  S112  1  0.85402250  0.64241717  0.41947738  1
  S  S113  1  0.85988419  0.63833623  0.74780002  1
  S  S114  1  0.14204704  0.35590606  0.25260717  1
  S  S115  1  0.14254850  0.35754293  0.58094529  1
  S  S116  1  0.14706905  0.35779335  0.91957557  1
  S  S117  1  0.13847833  0.86007513  0.24875510  1
  S  S118  1  0.13933273  0.85399405  0.57879316  1
  S  S119  1  0.14224716  0.85863575  0.91340413  1
  S  S120  1  0.64075406  0.35831685  0.25209063  1
  S  S121  1  0.64083221  0.35958934  0.58363124  1
  S  S122  1  0.64222902  0.36158027  0.91722072  1
  S  S123  1  0.63686708  0.86651429  0.25096081  1
  S  S124  1  0.63684528  0.86192028  0.58307550  1
  S  S125  1  0.64002865  0.85548754  0.91886266  1
  S  S126  1  0.06456490  0.17037703  0.03981401  1
  S  S127  1  0.07012581  0.17600857  0.38016504  1
  S  S128  1  0.07003825  0.17369719  0.71197521  1
  S  S129  1  0.06883872  0.65703834  0.03259905  1
  S  S130  1  0.05611115  0.66808800  0.37327957  1
  S  S131  1  0.06773993  0.66449945  0.70646826  1
  S  S132  1  0.57274504  0.17449042  0.04492612  1
  S  S133  1  0.56481282  0.16752589  0.37324051  1
  S  S134  1  0.57027882  0.16896522  0.70899773  1
  S  S135  1  0.56517561  0.66785141  0.04601417  1
  S  S136  1  0.56761924  0.67264187  0.37941686  1
  S  S137  1  0.56661311  0.67065458  0.71133878  1
  S  S138  1  0.33156492  0.43163163  0.12583915  1
  S  S139  1  0.34666782  0.43471376  0.45903819  1
  S  S140  1  0.33672977  0.43274592  0.79477020  1
  S  S141  1  0.32757757  0.93122374  0.12240535  1
  S  S142  1  0.32816472  0.92944577  0.45765958  1
  S  S143  1  0.32963403  0.92995033  0.79064446  1
  S  S144  1  0.82980951  0.43297929  0.12679514  1
  S  S145  1  0.82898692  0.43481068  0.45639907  1
  S  S146  1  0.83041632  0.43912247  0.79063519  1
  S  S147  1  0.82667898  0.93840645  0.12561495  1
  S  S148  1  0.82672255  0.93374410  0.46000684  1
  S  S149  1  0.83173405  0.93425142  0.78890708  1
  S  S150  1  0.43210338  0.32775189  0.29020415  1
  S  S151  1  0.44148854  0.33076311  0.62309299  1
  S  S152  1  0.43558409  0.32893145  0.95737677  1
  S  S153  1  0.42673269  0.83656603  0.29065104  1
  S  S154  1  0.42897097  0.83043575  0.62528589  1
  S  S155  1  0.42710808  0.82496022  0.95837743  1
  S  S156  1  0.93218363  0.32877163  0.29206794  1
  S  S157  1  0.93990932  0.34009531  0.62741362  1
  S  S158  1  0.93263740  0.32755952  0.95923372  1
  S  S159  1  0.92013254  0.83493264  0.29464718  1
  S  S160  1  0.93555973  0.82852244  0.62045716  1
  S  S161  1  0.94343483  0.83220590  0.95070033  1
  S  S162  1  0.16342551  0.06523173  0.20237911  1
  S  S163  1  0.16615060  0.06481475  0.53873012  1
  S  S164  1  0.17020006  0.06747822  0.88033631  1
  S  S165  1  0.18343610  0.56753739  0.21336876  1
  S  S166  1  0.16560006  0.56379027  0.54118144  1
  S  S167  1  0.17459354  0.56441568  0.87280110  1
  S  S168  1  0.67191078  0.07229420  0.20956637  1
  S  S169  1  0.66606386  0.06608658  0.54311231  1
  S  S170  1  0.66609785  0.06859331  0.87463485  1
  S  S171  1  0.67236004  0.56441740  0.21442850  1
  S  S172  1  0.66594809  0.56575126  0.54191169  1
  S  S173  1  0.66448452  0.56651745  0.87443239  1
  O  O174  1  0.37159110  0.21907910  0.07456741  1
  O  O175  1  0.37155326  0.21660992  0.41335914  1
  O  O176  1  0.37695973  0.21843651  0.73674864  1
  O  O177  1  0.36657626  0.71714553  0.07149291  1
  O  O178  1  0.37556963  0.71244063  0.39999429  1
  O  O179  1  0.36849597  0.72497314  0.74821791  1
  O  O180  1  0.87202392  0.22694580  0.08143388  1
  O  O181  1  0.86928628  0.22096087  0.41043274  1
  O  O182  1  0.85951388  0.21631034  0.74140711  1
  O  O183  1  0.85903046  0.71569923  0.07005796  1
  O  O184  1  0.86009339  0.72316299  0.41479328  1
  O  O185  1  0.87056702  0.71609059  0.73895487  1
  O  O186  1  0.28158103  0.13124061  0.08961349  1
  O  O187  1  0.28350890  0.12719529  0.42816338  1
  O  O188  1  0.28586182  0.13813587  0.75889053  1
  O  O189  1  0.27240800  0.63252372  0.08221623  1
  O  O190  1  0.28619744  0.63344572  0.42512053  1
  O  O191  1  0.28171025  0.63244297  0.75880459  1
  O  O192  1  0.78155076  0.13633359  0.08906289  1
  O  O193  1  0.77960628  0.13258010  0.42352887  1
  O  O194  1  0.78026044  0.12464854  0.76315439  1
  O  O195  1  0.77314064  0.62959886  0.09172737  1
  O  O196  1  0.77459717  0.62972862  0.42649594  1
  O  O197  1  0.78196218  0.63204602  0.75904256  1
  O  O198  1  0.13233441  0.27379822  0.25178798  1
  O  O199  1  0.13025589  0.27793192  0.58811972  1
  O  O200  1  0.13656490  0.27612605  0.92123961  1
  O  O201  1  0.14111789  0.78726268  0.26787544  1
  O  O202  1  0.13218027  0.77142839  0.58082038  1
  O  O203  1  0.13596792  0.77700059  0.91693599  1
  O  O204  1  0.62950389  0.27939589  0.26072675  1
  O  O205  1  0.63315793  0.28221842  0.59549192  1
  O  O206  1  0.63399703  0.28308166  0.92600224  1
  O  O207  1  0.62910886  0.79311439  0.26565345  1
  O  O208  1  0.62831901  0.78393075  0.59222043  1
  O  O209  1  0.62539276  0.77866461  0.93118044  1
  O  O210  1  0.22102596  0.36844323  0.24299003  1
  O  O211  1  0.21594158  0.36452916  0.56584111  1
  O  O212  1  0.22842785  0.36670752  0.91441361  1
  O  O213  1  0.21818273  0.87438800  0.23863112  1
  O  O214  1  0.21984838  0.86503356  0.57357652  1
  O  O215  1  0.22100148  0.87000593  0.90500687  1
  O  O216  1  0.72009631  0.36535078  0.24449156  1
  O  O217  1  0.72096919  0.36962340  0.57878531  1
  O  O218  1  0.72090290  0.37108615  0.90862788  1
  O  O219  1  0.71417408  0.87711005  0.23961376  1
  O  O220  1  0.71449147  0.87154450  0.57340448  1
  O  O221  1  0.71792787  0.85903675  0.91124432  1
  O  O222  1  0.41910300  0.13291614  0.15186483  1
  O  O223  1  0.42256933  0.12302326  0.48131232  1
  O  O224  1  0.42393760  0.13179221  0.81497414  1
  O  O225  1  0.40887967  0.63444929  0.15301811  1
  O  O226  1  0.42442272  0.63399046  0.48584404  1
  O  O227  1  0.41925094  0.63309726  0.81959674  1
  O  O228  1  0.91921499  0.13820774  0.15584097  1
  O  O229  1  0.91688396  0.13724506  0.49067588  1
  O  O230  1  0.91893677  0.13183529  0.81699022  1
  O  O231  1  0.91090207  0.63145869  0.14826598  1
  O  O232  1  0.91215111  0.63434170  0.48785649  1
  O  O233  1  0.92056679  0.62627159  0.81285287  1
  O  O234  1  0.36977197  0.08132746  0.01515994  1
  O  O235  1  0.36500929  0.07902251  0.34585133  1
  O  O236  1  0.36718253  0.07941793  0.67979123  1
  O  O237  1  0.36784753  0.57846754  0.01755238  1
  O  O238  1  0.37300118  0.57249387  0.35156788  1
  O  O239  1  0.37052599  0.58765900  0.68374210  1
  O  O240  1  0.87480976  0.08810228  0.01986812  1
  O  O241  1  0.87324534  0.08290400  0.35508931  1
  O  O242  1  0.86287592  0.07946077  0.68087909  1
  O  O243  1  0.85701417  0.57831125  0.01207792  1
  O  O244  1  0.86349239  0.58666456  0.35079586  1
  O  O245  1  0.86391336  0.57812558  0.67797937  1
  O  O246  1  0.08281334  0.36775826  0.18542499  1
  O  O247  1  0.07721254  0.37116058  0.51879433  1
  O  O248  1  0.09020500  0.37382010  0.85658979  1
  O  O249  1  0.07839445  0.85861502  0.18050203  1
  O  O250  1  0.08177203  0.86390285  0.51043718  1
  O  O251  1  0.08256320  0.86764661  0.84623377  1
  O  O252  1  0.58232056  0.36567041  0.18363861  1
  O  O253  1  0.58356697  0.36293839  0.51273332  1
  O  O254  1  0.58262235  0.36914453  0.84908974  1
  O  O255  1  0.57578507  0.87239353  0.18197237  1
  O  O256  1  0.57594610  0.87092244  0.51577351  1
  O  O257  1  0.58115626  0.86028691  0.84812941  1
  O  O258  1  0.13571434  0.40984413  0.32204872  1
  O  O259  1  0.14083523  0.41480918  0.65331877  1
  O  O260  1  0.14198879  0.41211535  0.99187018  1
  O  O261  1  0.13139000  0.92471213  0.31584850  1
  O  O262  1  0.12905634  0.90850603  0.64614276  1
  O  O263  1  0.13486500  0.91422259  0.98300265  1
  O  O264  1  0.63356286  0.41734277  0.32043448  1
  O  O265  1  0.62854663  0.42098254  0.64840615  1
  O  O266  1  0.63273791  0.42087213  0.98471703  1
  O  O267  1  0.62823311  0.93221979  0.31607415  1
  O  O268  1  0.62728075  0.92161588  0.65079730  1
  O  O269  1  0.63098295  0.91773098  0.98419325  1
  O  O270  1  0.02908318  0.19974521  0.10174499  1
  O  O271  1  0.02854652  0.20229114  0.43809790  1
  O  O272  1  0.03479076  0.20273187  0.77242367  1
  O  O273  1  0.04085445  0.67429271  0.09575174  1
  O  O274  1  0.01962069  0.70251764  0.43626230  1
  O  O275  1  0.03231463  0.69714407  0.76761193  1
  O  O276  1  0.53338532  0.20321644  0.10419172  1
  O  O277  1  0.53090016  0.19942971  0.43604541  1
  O  O278  1  0.53712324  0.20168261  0.77203651  1
  O  O279  1  0.52620859  0.69628501  0.10325081  1
  O  O280  1  0.53642119  0.70665887  0.44532062  1
  O  O281  1  0.52885684  0.69746174  0.77150176  1
  O  O282  1  0.30282709  0.47464566  0.06956252  1
  O  O283  1  0.31226019  0.45820645  0.39049112  1
  O  O284  1  0.31026195  0.47015494  0.73588083  1
  O  O285  1  0.29880126  0.96852657  0.06173151  1
  O  O286  1  0.29997657  0.96643867  0.39725585  1
  O  O287  1  0.31036150  0.96686359  0.73106500  1
  O  O288  1  0.79688592  0.46619111  0.06385979  1
  O  O289  1  0.79915496  0.47005858  0.39453396  1
  O  O290  1  0.79392209  0.47289893  0.72778173  1
  O  O291  1  0.79441456  0.97821125  0.06830967  1
  O  O292  1  0.79729794  0.97211065  0.40017420  1
  O  O293  1  0.79537422  0.96174579  0.72088802  1
  O  O294  1  0.46654270  0.30051329  0.22700272  1
  O  O295  1  0.47436221  0.29235440  0.56005070  1
  O  O296  1  0.47361393  0.30023355  0.89695032  1
  O  O297  1  0.46072131  0.81282690  0.22955113  1
  O  O298  1  0.46535934  0.80210238  0.56398644  1
  O  O299  1  0.46617030  0.79575455  0.89889448  1
  O  O300  1  0.97028983  0.30031998  0.23276336  1
  O  O301  1  0.96840087  0.30180983  0.56129557  1
  O  O302  1  0.97165292  0.29909380  0.90179700  1
  O  O303  1  0.94253677  0.80692756  0.22847855  1
  O  O304  1  0.97299604  0.79708122  0.56028280  1
  O  O305  1  0.97528074  0.79131249  0.88567028  1
  O  O306  1  0.19763613  0.03475965  0.26753763  1
  O  O307  1  0.19332209  0.02650410  0.59679439  1
  O  O308  1  0.20085165  0.03174040  0.94391041  1
  O  O309  1  0.21579909  0.52448034  0.26850889  1
  O  O310  1  0.18761418  0.53763619  0.60820557  1
  O  O311  1  0.20192860  0.52621731  0.93242367  1
  O  O312  1  0.70358917  0.03881656  0.27277729  1
  O  O313  1  0.69454154  0.03065675  0.60410596  1
  O  O314  1  0.68824291  0.03483451  0.93555451  1
  O  O315  1  0.70682375  0.52485225  0.27385449  1
  O  O316  1  0.69790468  0.53063001  0.60355028  1
  O  O317  1  0.69216609  0.53012956  0.93533166  1
  O  O318  1  0.08248537  0.08812047  0.03416081  1
  O  O319  1  0.08761387  0.09443388  0.37510779  1
  O  O320  1  0.08802141  0.09360784  0.70210801  1
  O  O321  1  0.08847312  0.57314496  0.01054254  1
  O  O322  1  0.07672982  0.59053851  0.37392085  1
  O  O323  1  0.08418568  0.58265936  0.70331439  1
  O  O324  1  0.59784255  0.09743392  0.04443349  1
  O  O325  1  0.57995186  0.08461364  0.36873025  1
  O  O326  1  0.58651926  0.08687143  0.70381360  1
  O  O327  1  0.58339369  0.58528847  0.04231643  1
  O  O328  1  0.58651440  0.59182049  0.38059193  1
  O  O329  1  0.58424664  0.58795537  0.70432065  1
  O  O330  1  0.41371188  0.41731890  0.12866178  1
  O  O331  1  0.43002373  0.41654456  0.46198356  1
  O  O332  1  0.42045524  0.41573170  0.80065243  1
  O  O333  1  0.40811657  0.91044610  0.12779912  1
  O  O334  1  0.41269980  0.91594515  0.46640019  1
  O  O335  1  0.41203515  0.90964390  0.80234788  1
  O  O336  1  0.91127145  0.41645973  0.13136751  1
  O  O337  1  0.91103380  0.41734491  0.46308443  1
  O  O338  1  0.91241169  0.43067734  0.79560599  1
  O  O339  1  0.90363669  0.91768732  0.12359474  1
  O  O340  1  0.90827737  0.91567419  0.46662143  1
  O  O341  1  0.90936661  0.90821906  0.78498423  1
  O  O342  1  0.40832732  0.40832226  0.29430337  1
  O  O343  1  0.43366792  0.41244462  0.62670738  1
  O  O344  1  0.41962444  0.41138503  0.96309260  1
  O  O345  1  0.40920810  0.92033085  0.30229950  1
  O  O346  1  0.41135585  0.91286745  0.63125040  1
  O  O347  1  0.40674097  0.90429054  0.96203958  1
  O  O348  1  0.91062369  0.40893351  0.29441963  1
  O  O349  1  0.91532610  0.41873623  0.62105385  1
  O  O350  1  0.91105356  0.40765010  0.95911570  1
  O  O351  1  0.90503474  0.92001023  0.31123721  1
  O  O352  1  0.92086511  0.91063296  0.62432465  1
  O  O353  1  0.93205053  0.91233131  0.94870915  1
  O  O354  1  0.08086942  0.07962566  0.19682930  1
  O  O355  1  0.08372955  0.08403081  0.53274242  1
  O  O356  1  0.09245815  0.09353175  0.88300935  1
  O  O357  1  0.11265366  0.59781839  0.22440136  1
  O  O358  1  0.08117788  0.58171797  0.52772481  1
  O  O359  1  0.09206173  0.58168271  0.86269997  1
  O  O360  1  0.59087417  0.09039548  0.20804088  1
  O  O361  1  0.58231372  0.08235257  0.53675790  1
  O  O362  1  0.58271738  0.08741728  0.85984167  1
  O  O363  1  0.59444418  0.58125253  0.21578897  1
  O  O364  1  0.58343408  0.58194305  0.53835400  1
  O  O365  1  0.58032869  0.58033868  0.86617480  1
  O  O366  1  0.13447829  0.22287747  0.05511024  1
  O  O367  1  0.14159720  0.22854592  0.40081721  1
  O  O368  1  0.14148300  0.22799740  0.72837862  1
  O  O369  1  0.13912590  0.71150339  0.04626828  1
  O  O370  1  0.12761419  0.72258472  0.39216630  1
  O  O371  1  0.13940053  0.71561637  0.72109358  1
  O  O372  1  0.64052711  0.23222499  0.06115777  1
  O  O373  1  0.63626374  0.21671785  0.38679962  1
  O  O374  1  0.64135822  0.21954288  0.72208489  1
  O  O375  1  0.63572414  0.71956167  0.06086581  1
  O  O376  1  0.64054050  0.72284883  0.39499067  1
  O  O377  1  0.63699815  0.72289219  0.72792686  1
  O  O378  1  0.28043162  0.35930940  0.10478208  1
  O  O379  1  0.30055841  0.36422013  0.45291976  1
  O  O380  1  0.28658209  0.36074662  0.77936645  1
  O  O381  1  0.27336338  0.86176679  0.10644165  1
  O  O382  1  0.27978666  0.85594197  0.44073181  1
  O  O383  1  0.27445469  0.85968938  0.77134778  1
  O  O384  1  0.77855538  0.36186885  0.11336713  1
  O  O385  1  0.77734963  0.36381622  0.44078542  1
  O  O386  1  0.78259685  0.36396152  0.77308598  1
  O  O387  1  0.77094209  0.86844223  0.10946412  1
  O  O388  1  0.77318185  0.86306379  0.44243267  1
  O  O389  1  0.77791767  0.86911974  0.78246027  1
  O  O390  1  0.36665150  0.27380470  0.28027020  1
  O  O391  1  0.36729405  0.28427952  0.60932536  1
  O  O392  1  0.36461249  0.27666181  0.93972571  1
  O  O393  1  0.35685868  0.78434790  0.27649718  1
  O  O394  1  0.35810935  0.77770884  0.60895406  1
  O  O395  1  0.35676484  0.76997263  0.94009852  1
  O  O396  1  0.86330140  0.27444872  0.27771930  1
  O  O397  1  0.87279616  0.28936703  0.62178366  1
  O  O398  1  0.86075275  0.27528435  0.94317642  1
  O  O399  1  0.84861044  0.78753146  0.28953530  1
  O  O400  1  0.86265049  0.77912425  0.60354647  1
  O  O401  1  0.86816321  0.78405181  0.93332685  1
  O  O402  1  0.21198570  0.13467700  0.21145887  1
  O  O403  1  0.21899050  0.13640933  0.55609588  1
  O  O404  1  0.22721797  0.13682992  0.89861660  1
  O  O405  1  0.24275961  0.63288126  0.22634747  1
  O  O406  1  0.21757783  0.63585684  0.55703177  1
  O  O407  1  0.22679058  0.63680797  0.89238532  1
  O  O408  1  0.72326032  0.14418515  0.22498310  1
  O  O409  1  0.71614570  0.13732815  0.55746263  1
  O  O410  1  0.71847563  0.14018452  0.89126890  1
  O  O411  1  0.72553741  0.63479342  0.23037292  1
  O  O412  1  0.71557447  0.63690495  0.55536473  1
  O  O413  1  0.71402085  0.63885751  0.89025798  1
  O  O414  1  0.49397539  0.33069549  0.03034810  1
  O  O415  1  0.49793012  0.33518712  0.36092726  1
  O  O416  1  0.49968304  0.32928521  0.69565923  1
  O  O417  1  0.48575388  0.82542730  0.03064403  1
  O  O418  1  0.48862689  0.83845006  0.36298495  1
  O  O419  1  0.48865556  0.83332951  0.69810598  1
  O  O420  1  0.98955392  0.33462043  0.03450829  1
  O  O421  1  0.99225593  0.33673178  0.36624665  1
  O  O422  1  1.00477586  0.35719537  0.69764552  1
  O  O423  1  0.99979463  0.83220365  0.02121193  1
  O  O424  1  0.98534650  0.83551088  0.36511909  1
  O  O425  1  0.99345431  0.82819377  0.69278636  1
  O  O426  1  0.16135397  0.00136110  0.13164073  1
  O  O427  1  0.16144753  0.00759689  0.46359200  1
  O  O428  1  0.16367327  0.00847677  0.80967611  1
  O  O429  1  0.16805565  0.51016914  0.13592752  1
  O  O430  1  0.16844817  0.50126265  0.47507727  1
  O  O431  1  0.17648800  0.50643436  0.80091257  1
  O  O432  1  0.66844076  0.01267345  0.13784825  1
  O  O433  1  0.66158951  0.00646444  0.46968868  1
  O  O434  1  0.66864483  0.00786211  0.80409682  1
  O  O435  1  0.66941724  0.50602223  0.14029279  1
  O  O436  1  0.66141779  0.50501336  0.46901105  1
  O  O437  1  0.66427339  0.50725833  0.80204249  1
  O  O438  1  0.01338944  0.17506501  0.30686468  1
  O  O439  1  0.01058198  0.17819342  0.64032001  1
  O  O440  1  0.00393467  0.16691110  0.96733112  1
  O  O441  1  -0.00287305  0.66533099  0.30236759  1
  O  O442  1  0.00863316  0.66095102  0.63312204  1
  O  O443  1  0.00712056  0.66120348  0.96196131  1
  O  O444  1  0.50391851  0.16417967  0.30111441  1
  O  O445  1  0.50849869  0.16574085  0.63723992  1
  O  O446  1  0.51332479  0.16895078  0.97108274  1
  O  O447  1  0.50774147  0.66969455  0.31041314  1
  O  O448  1  0.50711831  0.66758429  0.63811980  1
  O  O449  1  0.50747023  0.65954049  0.96948187  1
  O  O450  1  0.33269441  0.48547502  0.20096111  1
  O  O451  1  0.35447053  0.50046814  0.52661006  1
  O  O452  1  0.34155106  0.49092492  0.86944595  1
  O  O453  1  0.33092069  0.99246856  0.19453045  1
  O  O454  1  0.32798653  0.98813148  0.53005491  1
  O  O455  1  0.32854793  0.98886106  0.86226987  1
  O  O456  1  0.83280883  0.49410397  0.19866310  1
  O  O457  1  0.82907657  0.49540430  0.52746507  1
  O  O458  1  0.82646581  0.49530540  0.86240311  1
  O  O459  1  0.83151935  0.99534394  0.20153887  1
  O  O460  1  0.82777149  0.99279659  0.53257954  1
  O  O461  1  0.84533767  1.00136391  0.85668632  1
