# generated using pymatgen
data_Na31Fe20(SO4)36
_symmetry_space_group_name_H-M   'P 1'
_cell_length_a   18.08223459
_cell_length_b   18.07485123
_cell_length_c   19.71823706
_cell_angle_alpha   107.61654500
_cell_angle_beta   107.59885005
_cell_angle_gamma   90.72129462
_symmetry_Int_Tables_number   1
_chemical_formula_structural   Na31Fe20(SO4)36
_chemical_formula_sum   'Na62 Fe40 S72 O288'
_cell_volume   5816.31372425
_cell_formula_units_Z   2
loop_
 _symmetry_equiv_pos_site_id
 _symmetry_equiv_pos_as_xyz
  1  'x, y, z'
loop_
 _atom_site_type_symbol
 _atom_site_label
 _atom_site_symmetry_multiplicity
 _atom_site_fract_x
 _atom_site_fract_y
 _atom_site_fract_z
 _atom_site_occupancy
  Na  Na0  1  0.13756278  0.36914538  0.08674690  1
  Na  Na1  1  0.13629838  0.36660227  0.41391049  1
  Na  Na2  1  0.13226589  0.36564143  0.74654068  1
  Na  Na3  1  0.13438496  0.87816315  0.09636352  1
  Na  Na4  1  0.13767762  0.86776245  0.41927939  1
  Na  Na5  1  0.13964024  0.87026263  0.75224281  1
  Na  Na6  1  0.63051285  0.35813519  0.07684276  1
  Na  Na7  1  0.63111324  0.36591374  0.41472084  1
  Na  Na8  1  0.61238459  0.37916269  0.74360585  1
  Na  Na9  1  0.63055503  0.85744876  0.07875860  1
  Na  Na10  1  0.62250064  0.85954352  0.41053332  1
  Na  Na11  1  0.64201391  0.86388949  0.76020730  1
  Na  Na12  1  0.36066006  0.13727819  0.25477649  1
  Na  Na13  1  0.36884344  0.12948191  0.59124991  1
  Na  Na14  1  0.36498644  0.14721536  0.91645778  1
  Na  Na15  1  0.37828231  0.64972417  0.26250628  1
  Na  Na16  1  0.37686961  0.63035641  0.58637056  1
  Na  Na17  1  0.36106621  0.62491288  0.90126429  1
  Na  Na18  1  0.85164295  0.14782730  0.24777641  1
  Na  Na19  1  0.86510186  0.13128488  0.58166086  1
  Na  Na20  1  0.86479131  0.13597628  0.92033415  1
  Na  Na21  1  0.86218686  0.63374703  0.25048665  1
  Na  Na22  1  0.87422154  0.62974495  0.58917585  1
  Na  Na23  1  0.83217518  0.63075398  0.88293196  1
  Na  Na24  1  0.99369141  0.00676734  0.75136565  1
  Na  Na25  1  1.03059396  0.49001540  0.69319458  1
  Na  Na26  1  0.49128183  0.54597118  0.09102171  1
  Na  Na27  1  0.49161799  0.00928822  0.08156160  1
  Na  Na28  1  1.00146919  0.01430410  0.38222653  1
  Na  Na29  1  0.99040309  0.51094435  0.08200366  1
  Na  Na30  1  0.47685552  0.03858124  0.73699954  1
  Na  Na31  1  0.99483582  0.49812285  0.43886237  1
  Na  Na32  1  0.43966453  -0.00052455  0.39645830  1
  Na  Na33  1  0.50302568  0.98358622  0.24942618  1
  Na  Na34  1  0.00946967  0.49144177  0.25577070  1
  Na  Na35  1  -0.00993818  0.51993436  0.90341453  1
  Na  Na36  1  0.49401881  1.02276802  0.90253395  1
  Na  Na37  1  0.00241966  0.98699485  0.94036695  1
  Na  Na38  1  0.50837953  0.49876968  0.26122877  1
  Na  Na39  1  0.51072724  0.44248294  0.87499142  1
  Na  Na40  1  0.02428537  0.99404678  0.57317723  1
  Na  Na41  1  0.50662794  0.95157655  0.56124719  1
  Na  Na42  1  0.25247039  0.75316175  -0.00391639  1
  Na  Na43  1  0.26483864  0.25640031  0.66183376  1
  Na  Na44  1  0.74436510  0.72746144  0.68657583  1
  Na  Na45  1  0.25952561  0.26098518  -0.00064961  1
  Na  Na46  1  0.73362730  0.73797795  0.33840991  1
  Na  Na47  1  0.27718084  0.78091543  0.33122137  1
  Na  Na48  1  0.73521532  0.23525696  0.01638525  1
  Na  Na49  1  0.26221789  0.75897065  0.65925576  1
  Na  Na50  1  0.75346914  0.75496488  -0.01126506  1
  Na  Na51  1  0.74220568  0.24886987  0.66872580  1
  Na  Na52  1  0.72833584  0.23665573  0.83933927  1
  Na  Na53  1  0.73697437  0.74130747  0.17056769  1
  Na  Na54  1  0.26919917  0.26545685  0.82533817  1
  Na  Na55  1  0.27485628  0.77237090  0.49653194  1
  Na  Na56  1  0.75282674  0.25541932  0.48690334  1
  Na  Na57  1  0.26214423  0.77055043  0.16379058  1
  Na  Na58  1  0.24646863  0.74587306  0.82954520  1
  Na  Na59  1  0.25826359  0.26182834  0.49083665  1
  Na  Na60  1  0.23968524  0.24521011  0.18154894  1
  Na  Na61  1  0.74436247  0.73627538  0.50894490  1
  Fe  Fe62  1  0.46051265  0.31502002  0.45857466  1
  Fe  Fe63  1  0.96623696  0.30422958  0.78482821  1
  Fe  Fe64  1  0.46887416  0.79910331  0.12094820  1
  Fe  Fe65  1  0.96556095  0.80682009  0.78404681  1
  Fe  Fe66  1  0.96447162  0.30578414  0.44949664  1
  Fe  Fe67  1  0.46857924  0.80542965  0.78719547  1
  Fe  Fe68  1  0.96512356  0.80524704  0.45201494  1
  Fe  Fe69  1  0.46836095  0.31004086  0.12310079  1
  Fe  Fe70  1  0.96143868  0.81058099  0.11996681  1
  Fe  Fe71  1  0.96320225  0.30670459  0.11625525  1
  Fe  Fe72  1  0.69106122  0.03465359  0.37974103  1
  Fe  Fe73  1  0.19811187  0.03441954  0.37441356  1
  Fe  Fe74  1  0.18976379  0.53736222  0.04931509  1
  Fe  Fe75  1  0.69345336  0.02871028  0.71083818  1
  Fe  Fe76  1  0.69158257  0.53232139  0.04558156  1
  Fe  Fe77  1  0.69031594  0.03577031  0.04969308  1
  Fe  Fe78  1  0.19546627  0.54029982  0.38648424  1
  Fe  Fe79  1  0.69729024  0.53070155  0.38108794  1
  Fe  Fe80  1  0.19801179  0.03765889  0.05411147  1
  Fe  Fe81  1  0.20226008  0.02933662  0.70921070  1
  Fe  Fe82  1  0.53661345  0.69356796  0.54610398  1
  Fe  Fe83  1  0.03314978  0.69640520  0.21843125  1
  Fe  Fe84  1  0.03447789  0.19269523  0.54534793  1
  Fe  Fe85  1  0.03866250  0.69264189  0.55246682  1
  Fe  Fe86  1  0.03767966  0.19294989  0.88147843  1
  Fe  Fe87  1  0.54337647  0.67469062  0.86724362  1
  Fe  Fe88  1  0.53789171  0.19367045  0.21909649  1
  Fe  Fe89  1  0.03489628  0.19337747  0.21330533  1
  Fe  Fe90  1  0.52989388  0.19197289  0.54633361  1
  Fe  Fe91  1  0.03525560  0.69560658  0.88242834  1
  Fe  Fe92  1  0.80742898  0.96233341  0.61618519  1
  Fe  Fe93  1  0.30370491  0.47039589  0.95271295  1
  Fe  Fe94  1  0.80734743  0.46702396  0.94755532  1
  Fe  Fe95  1  0.80985957  0.45888262  0.28432437  1
  Fe  Fe96  1  0.80724296  0.96205129  0.95438943  1
  Fe  Fe97  1  0.79929878  0.46549126  0.62114603  1
  Fe  Fe98  1  0.31305299  0.46744417  0.29596271  1
  Fe  Fe99  1  0.30125900  0.46835773  0.62696064  1
  Fe  Fe100  1  0.30653344  0.96639669  0.95312088  1
  Fe  Fe101  1  0.80444744  0.96743323  0.28346646  1
  S  S102  1  0.36112574  0.14369331  0.08539599  1
  S  S103  1  0.35556683  0.14601059  0.41762096  1
  S  S104  1  0.35360102  0.14003012  0.75613928  1
  S  S105  1  0.35124338  0.64294040  0.08243312  1
  S  S106  1  0.36077724  0.64431672  0.42023147  1
  S  S107  1  0.36076338  0.64120430  0.74747468  1
  S  S108  1  0.86019803  0.13954962  0.08222111  1
  S  S109  1  0.86055469  0.13919480  0.41509154  1
  S  S110  1  0.86171115  0.13644618  0.75007073  1
  S  S111  1  0.86024995  0.63991739  0.08357816  1
  S  S112  1  0.86432815  0.63657303  0.41692507  1
  S  S113  1  0.86800785  0.63479785  0.74816920  1
  S  S114  1  0.13740749  0.36601107  0.24874714  1
  S  S115  1  0.13495505  0.35927317  0.58293119  1
  S  S116  1  0.14014562  0.36043397  0.91844267  1
  S  S117  1  0.13417239  0.86164772  0.25296337  1
  S  S118  1  0.14072711  0.85875909  0.58223045  1
  S  S119  1  0.13730626  0.86453423  0.92044175  1
  S  S120  1  0.64358172  0.35674709  0.25178121  1
  S  S121  1  0.63874011  0.35211577  0.57828064  1
  S  S122  1  0.65248211  0.35555190  0.92019797  1
  S  S123  1  0.64270763  0.85973912  0.24690335  1
  S  S124  1  0.65072689  0.85344050  0.58623236  1
  S  S125  1  0.63861322  0.85924087  0.92086011  1
  S  S126  1  0.06946835  0.17285751  0.04374916  1
  S  S127  1  0.07043476  0.17444540  0.37521949  1
  S  S128  1  0.06857908  0.16553426  0.70869718  1
  S  S129  1  0.06454200  0.67291915  0.04548600  1
  S  S130  1  0.06763004  0.67073599  0.37916068  1
  S  S131  1  0.07292603  0.68014862  0.71457810  1
  S  S132  1  0.56144467  0.16630515  0.04468419  1
  S  S133  1  0.56246359  0.16506534  0.37545893  1
  S  S134  1  0.57107265  0.15347246  0.70004895  1
  S  S135  1  0.56514742  0.66538019  0.03570267  1
  S  S136  1  0.57170609  0.66648695  0.37953403  1
  S  S137  1  0.57495283  0.67261297  0.71106259  1
  S  S138  1  0.32841664  0.43738405  0.13017741  1
  S  S139  1  0.32329064  0.43228188  0.45997122  1
  S  S140  1  0.31941295  0.43241763  0.78395820  1
  S  S141  1  0.33329421  0.93881076  0.12352885  1
  S  S142  1  0.32411090  0.94196246  0.46025743  1
  S  S143  1  0.33153296  0.92933599  0.79455625  1
  S  S144  1  0.83660160  0.43540582  0.12529803  1
  S  S145  1  0.82910628  0.42915132  0.45802226  1
  S  S146  1  0.83638970  0.42728130  0.79055033  1
  S  S147  1  0.82519906  0.93119245  0.12125795  1
  S  S148  1  0.83172317  0.93098581  0.45608376  1
  S  S149  1  0.83818409  0.93388461  0.79411520  1
  S  S150  1  0.43227233  0.33126123  0.29066442  1
  S  S151  1  0.42445490  0.32731915  0.62332508  1
  S  S152  1  0.43226491  0.34769713  0.96799796  1
  S  S153  1  0.43764398  0.83494201  0.28503302  1
  S  S154  1  0.44765720  0.83335117  0.62978046  1
  S  S155  1  0.42810056  0.82790325  0.95700715  1
  S  S156  1  0.93663247  0.33448587  0.29204374  1
  S  S157  1  0.92870852  0.32397373  0.62050732  1
  S  S158  1  0.93427500  0.32904335  0.95538839  1
  S  S159  1  0.92634064  0.82795901  0.28998032  1
  S  S160  1  0.93621436  0.83276500  0.62509079  1
  S  S161  1  0.93024273  0.82606409  0.95730102  1
  S  S162  1  0.16861733  0.07384345  0.21100520  1
  S  S163  1  0.16029132  0.06860087  0.53485391  1
  S  S164  1  0.17097377  0.06843320  0.87819168  1
  S  S165  1  0.16663810  0.57367092  0.21262712  1
  S  S166  1  0.17219182  0.56703257  0.54482959  1
  S  S167  1  0.16309753  0.56495333  0.87652570  1
  S  S168  1  0.66541522  0.06484112  0.20751631  1
  S  S169  1  0.67171911  0.06410863  0.54041656  1
  S  S170  1  0.67177816  0.06050546  0.87647703  1
  S  S171  1  0.67100141  0.55845134  0.20919832  1
  S  S172  1  0.67714929  0.57007082  0.54437248  1
  S  S173  1  0.66876954  0.55931429  0.87602655  1
  O  O174  1  0.37094496  0.22258656  0.07740049  1
  O  O175  1  0.36432237  0.22778285  0.41708874  1
  O  O176  1  0.35706734  0.22157499  0.75653837  1
  O  O177  1  0.36205087  0.72435655  0.07961823  1
  O  O178  1  0.36474236  0.72034591  0.40909530  1
  O  O179  1  0.37420333  0.71577270  0.73131757  1
  O  O180  1  0.86996984  0.21680604  0.06928686  1
  O  O181  1  0.87009062  0.21748124  0.40698934  1
  O  O182  1  0.86970000  0.21438507  0.74007437  1
  O  O183  1  0.86805157  0.71890288  0.07580316  1
  O  O184  1  0.87307810  0.71458121  0.40632422  1
  O  O185  1  0.88085964  0.71171311  0.73508487  1
  O  O186  1  0.28193337  0.13601785  0.09364772  1
  O  O187  1  0.27390023  0.13390220  0.42243767  1
  O  O188  1  0.27474287  0.12586150  0.76866631  1
  O  O189  1  0.26978596  0.63568046  0.08696481  1
  O  O190  1  0.28504996  0.63144745  0.43459411  1
  O  O191  1  0.28696224  0.63928722  0.76252906  1
  O  O192  1  0.77898978  0.13059127  0.08473742  1
  O  O193  1  0.78125242  0.12879798  0.42186716  1
  O  O194  1  0.78400045  0.12620767  0.75956037  1
  O  O195  1  0.78295127  0.63016060  0.09438954  1
  O  O196  1  0.78486386  0.62938195  0.42392372  1
  O  O197  1  0.79141103  0.62988757  0.75723827  1
  O  O198  1  0.12882975  0.28674962  0.25455667  1
  O  O199  1  0.12928624  0.27878269  0.58993215  1
  O  O200  1  0.13146665  0.28193624  0.92845812  1
  O  O201  1  0.12001766  0.78794758  0.27015157  1
  O  O202  1  0.12885724  0.78151256  0.59370160  1
  O  O203  1  0.12875184  0.78609571  0.93008027  1
  O  O204  1  0.63194842  0.28040474  0.26279864  1
  O  O205  1  0.63108209  0.26889080  0.57953107  1
  O  O206  1  0.64648053  0.27967072  0.93155745  1
  O  O207  1  0.63959094  0.78189792  0.25395819  1
  O  O208  1  0.64048989  0.77125503  0.58887203  1
  O  O209  1  0.62392119  0.78093453  0.92837975  1
  O  O210  1  0.21609638  0.37815824  0.24122190  1
  O  O211  1  0.21683463  0.37121704  0.57949102  1
  O  O212  1  0.22030454  0.36956782  0.91334114  1
  O  O213  1  0.21096709  0.86354557  0.24302850  1
  O  O214  1  0.21650441  0.86528952  0.57215591  1
  O  O215  1  0.21524332  0.87109269  0.91001399  1
  O  O216  1  0.72256674  0.36661204  0.24585761  1
  O  O217  1  0.71763493  0.36288172  0.56847754  1
  O  O218  1  0.73536638  0.37012864  0.91976529  1
  O  O219  1  0.72011953  0.87485630  0.23601207  1
  O  O220  1  0.73207148  0.86230732  0.58191993  1
  O  O221  1  0.71847774  0.86489072  0.91437219  1
  O  O222  1  0.42003725  0.13418215  0.15261125  1
  O  O223  1  0.41173537  0.13444933  0.48619061  1
  O  O224  1  0.41446993  0.12545211  0.81883741  1
  O  O225  1  0.40743179  0.62804673  0.14627281  1
  O  O226  1  0.42398099  0.63952269  0.48870530  1
  O  O227  1  0.42446866  0.63361933  0.81275334  1
  O  O228  1  0.91581729  0.13946770  0.15479598  1
  O  O229  1  0.91860920  0.13118530  0.48381506  1
  O  O230  1  0.92282228  0.12931572  0.81783584  1
  O  O231  1  0.92130782  0.63108466  0.15099078  1
  O  O232  1  0.92280225  0.63019508  0.48640341  1
  O  O233  1  0.92864924  0.62897741  0.81763361  1
  O  O234  1  0.36799385  0.08412938  0.01693444  1
  O  O235  1  0.36514768  0.09031583  0.35061712  1
  O  O236  1  0.35467597  0.08516688  0.68403744  1
  O  O237  1  0.35731004  0.58830945  0.01055208  1
  O  O238  1  0.36679661  0.58179459  0.35303127  1
  O  O239  1  0.36179613  0.57655094  0.67814778  1
  O  O240  1  0.87313209  0.07792442  0.01819568  1
  O  O241  1  0.87056629  0.07935184  0.34774040  1
  O  O242  1  0.87036786  0.07635089  0.68235583  1
  O  O243  1  0.86913946  0.58102489  0.01555349  1
  O  O244  1  0.87380192  0.57564547  0.35084875  1
  O  O245  1  0.87700054  0.57243292  0.68218165  1
  O  O246  1  0.07747829  0.37443207  0.18041067  1
  O  O247  1  0.08009871  0.36212515  0.51011640  1
  O  O248  1  0.08284449  0.36473626  0.84826604  1
  O  O249  1  0.07376122  0.86659741  0.18425031  1
  O  O250  1  0.07775191  0.86750982  0.51548337  1
  O  O251  1  0.07711673  0.87407201  0.85388657  1
  O  O252  1  0.58559324  0.36370585  0.18204501  1
  O  O253  1  0.57931566  0.35834305  0.50896230  1
  O  O254  1  0.59900966  0.35904904  0.84910024  1
  O  O255  1  0.58156310  0.86817377  0.17961979  1
  O  O256  1  0.59455901  0.86673856  0.52161534  1
  O  O257  1  0.58123520  0.87088797  0.85407328  1
  O  O258  1  0.12701806  0.42538259  0.31585661  1
  O  O259  1  0.12042992  0.41591346  0.64634448  1
  O  O260  1  0.13001636  0.42017135  0.98520294  1
  O  O261  1  0.12821545  0.92734579  0.31919578  1
  O  O262  1  0.13266464  0.91995343  0.65039030  1
  O  O263  1  0.12999120  0.92434206  0.98870998  1
  O  O264  1  0.63193898  0.41880016  0.31710721  1
  O  O265  1  0.63301484  0.40665148  0.64640962  1
  O  O266  1  0.63845786  0.41722739  0.98510039  1
  O  O267  1  0.63440072  0.91956787  0.31507702  1
  O  O268  1  0.64575971  0.90819784  0.65797954  1
  O  O269  1  0.63215096  0.91927815  0.98951482  1
  O  O270  1  0.03149228  0.20245218  0.10348903  1
  O  O271  1  0.02970545  0.19730133  0.43392085  1
  O  O272  1  0.03111069  0.19707243  0.76927033  1
  O  O273  1  0.03015877  0.70371595  0.10783745  1
  O  O274  1  0.03214410  0.70012255  0.44100358  1
  O  O275  1  0.03861379  0.71402772  0.77770665  1
  O  O276  1  0.53192032  0.19947923  0.11105509  1
  O  O277  1  0.52275318  0.19016440  0.43368608  1
  O  O278  1  0.54289071  0.16989393  0.76367426  1
  O  O279  1  0.52335071  0.69254706  0.09127122  1
  O  O280  1  0.54270677  0.68816166  0.44562227  1
  O  O281  1  0.53374894  0.70553627  0.76991927  1
  O  O282  1  0.29813729  0.47459946  0.06977154  1
  O  O283  1  0.29391247  0.47102930  0.39956840  1
  O  O284  1  0.28986283  0.47203855  0.72546137  1
  O  O285  1  0.29920450  0.97048815  0.05744306  1
  O  O286  1  0.28990234  0.97722278  0.39693812  1
  O  O287  1  0.29873298  0.96079932  0.73276788  1
  O  O288  1  0.80727652  0.47382970  0.06670905  1
  O  O289  1  0.80121587  0.46769740  0.39773066  1
  O  O290  1  0.80874543  0.45701281  0.72720509  1
  O  O291  1  0.79498248  0.97042097  0.06209882  1
  O  O292  1  0.80200350  0.96730933  0.39525401  1
  O  O293  1  0.80849130  0.96962485  0.73290116  1
  O  O294  1  0.47244247  0.30189214  0.23193860  1
  O  O295  1  0.46421764  0.30180311  0.56293343  1
  O  O296  1  0.46695070  0.33658218  0.90915724  1
  O  O297  1  0.47252918  0.79962528  0.22432591  1
  O  O298  1  0.48614659  0.79518907  0.57193417  1
  O  O299  1  0.46046031  0.80097276  0.89421513  1
  O  O300  1  0.97055308  0.30441534  0.22905117  1
  O  O301  1  0.96604855  0.29515846  0.55977112  1
  O  O302  1  0.97177741  0.29848257  0.89500053  1
  O  O303  1  0.95904023  0.79665185  0.22675993  1
  O  O304  1  0.97019801  0.80016475  0.56280101  1
  O  O305  1  0.96625551  0.79702061  0.89555499  1
  O  O306  1  0.19066231  0.03739007  0.27162188  1
  O  O307  1  0.17578066  0.03084612  0.59339861  1
  O  O308  1  0.19887084  0.03171471  0.93936163  1
  O  O309  1  0.19733999  0.53973654  0.27469540  1
  O  O310  1  0.20215112  0.52673792  0.60105937  1
  O  O311  1  0.19705052  0.53068190  0.93989014  1
  O  O312  1  0.69976093  0.03362256  0.27207498  1
  O  O313  1  0.70139112  0.02485037  0.60029473  1
  O  O314  1  0.70525206  0.02369895  0.93772755  1
  O  O315  1  0.71090793  0.52563941  0.27158073  1
  O  O316  1  0.70282789  0.53126938  0.60190065  1
  O  O317  1  0.70589965  0.53199832  0.94422197  1
  O  O318  1  0.09006001  0.09236172  0.03924620  1
  O  O319  1  0.09563236  0.09475676  0.37102638  1
  O  O320  1  0.08441396  0.08358386  0.70537842  1
  O  O321  1  0.08006573  0.58978391  0.04056918  1
  O  O322  1  0.08382814  0.58804688  0.37258360  1
  O  O323  1  0.09518476  0.60367870  0.71480634  1
  O  O324  1  0.58179615  0.08417781  0.04296748  1
  O  O325  1  0.58115616  0.08242301  0.36697606  1
  O  O326  1  0.58588047  0.06727799  0.67810021  1
  O  O327  1  0.58442983  0.58417706  0.03486223  1
  O  O328  1  0.59803836  0.58616193  0.36926393  1
  O  O329  1  0.59192555  0.59513235  0.71001127  1
  O  O330  1  0.41055424  0.41966495  0.13779022  1
  O  O331  1  0.40321715  0.41463627  0.46290079  1
  O  O332  1  0.39697442  0.41147523  0.78673771  1
  O  O333  1  0.41249018  0.91549198  0.12192396  1
  O  O334  1  0.40166286  0.92183988  0.45477306  1
  O  O335  1  0.41380608  0.91277795  0.80030180  1
  O  O336  1  0.92013386  0.41977919  0.12954272  1
  O  O337  1  0.91068073  0.41107928  0.46071600  1
  O  O338  1  0.91990730  0.40912774  0.80061805  1
  O  O339  1  0.90425843  0.91043624  0.12272268  1
  O  O340  1  0.91421859  0.91414126  0.46240450  1
  O  O341  1  0.92243531  0.92027364  0.80092139  1
  O  O342  1  0.41634945  0.41320041  0.29416675  1
  O  O343  1  0.39043031  0.40244166  0.61883413  1
  O  O344  1  0.40983036  0.43037880  0.98989976  1
  O  O345  1  0.41652374  0.91315070  0.28087503  1
  O  O346  1  0.44032155  0.91474623  0.63159601  1
  O  O347  1  0.41296373  0.91187272  0.96854137  1
  O  O348  1  0.92342863  0.41897855  0.29955087  1
  O  O349  1  0.90897200  0.40429688  0.62557003  1
  O  O350  1  0.91815513  0.41136471  0.96104792  1
  O  O351  1  0.90871627  0.90949789  0.29548255  1
  O  O352  1  0.91865554  0.91460360  0.62759107  1
  O  O353  1  0.91018244  0.90666576  0.95890646  1
  O  O354  1  0.08742180  0.09378963  0.19891747  1
  O  O355  1  0.07407324  0.08218759  0.51629928  1
  O  O356  1  0.08731831  0.08375589  0.87022547  1
  O  O357  1  0.08221294  0.58642937  0.20572950  1
  O  O358  1  0.09153965  0.58757065  0.54368705  1
  O  O359  1  0.08672100  0.59238644  0.88417563  1
  O  O360  1  0.58260406  0.07958948  0.20473704  1
  O  O361  1  0.59098117  0.08275218  0.53377289  1
  O  O362  1  0.59007029  0.07043442  0.86953090  1
  O  O363  1  0.58924747  0.56463732  0.20568094  1
  O  O364  1  0.60046026  0.60006859  0.54413204  1
  O  O365  1  0.58454309  0.56624091  0.86992621  1
  O  O366  1  0.13949258  0.22683393  0.06050490  1
  O  O367  1  0.13738644  0.23134992  0.39339823  1
  O  O368  1  0.13899723  0.21752303  0.72424461  1
  O  O369  1  0.13595207  0.72347743  0.05993037  1
  O  O370  1  0.13859389  0.72158249  0.39451823  1
  O  O371  1  0.14000363  0.73573468  0.72589425  1
  O  O372  1  0.63082040  0.21652993  0.05512595  1
  O  O373  1  0.63301840  0.21792481  0.39367565  1
  O  O374  1  0.64398978  0.20351967  0.71474142  1
  O  O375  1  0.63822287  0.71755992  0.05633717  1
  O  O376  1  0.64072518  0.72355114  0.39654411  1
  O  O377  1  0.64260711  0.72988430  0.72897042  1
  O  O378  1  0.27645474  0.36489670  0.11160177  1
  O  O379  1  0.26928486  0.36274076  0.44191014  1
  O  O380  1  0.26278563  0.36283369  0.76578526  1
  O  O381  1  0.27873044  0.86938210  0.10916014  1
  O  O382  1  0.27138978  0.86900443  0.44111577  1
  O  O383  1  0.28248095  0.85751290  0.78414868  1
  O  O384  1  0.78759322  0.36342041  0.11010999  1
  O  O385  1  0.77687559  0.35864521  0.44059647  1
  O  O386  1  0.78606521  0.35817933  0.78218126  1
  O  O387  1  0.77142705  0.86059356  0.10412346  1
  O  O388  1  0.78093093  0.85958800  0.44114214  1
  O  O389  1  0.79045576  0.86110781  0.77892547  1
  O  O390  1  0.35992911  0.28006045  0.27059227  1
  O  O391  1  0.35806448  0.26652728  0.60363740  1
  O  O392  1  0.36148386  0.29102026  0.94689091  1
  O  O393  1  0.36506601  0.78237491  0.26930259  1
  O  O394  1  0.37140867  0.78713003  0.61110734  1
  O  O395  1  0.35501209  0.77763566  0.94088081  1
  O  O396  1  0.86565773  0.28670604  0.27941128  1
  O  O397  1  0.85907463  0.26962633  0.60427122  1
  O  O398  1  0.86411382  0.27634137  0.93895026  1
  O  O399  1  0.85583584  0.77637094  0.27709428  1
  O  O400  1  0.86690685  0.78125396  0.61304519  1
  O  O401  1  0.86121365  0.77342170  0.94361778  1
  O  O402  1  0.22376443  0.14253457  0.22776414  1
  O  O403  1  0.21107791  0.14128333  0.55626994  1
  O  O404  1  0.22087807  0.14174361  0.89793771  1
  O  O405  1  0.21389986  0.64641922  0.22579987  1
  O  O406  1  0.22448714  0.63733271  0.55935288  1
  O  O407  1  0.21710792  0.63315675  0.88776362  1
  O  O408  1  0.71318063  0.13460976  0.21641563  1
  O  O409  1  0.72653126  0.13429275  0.55916392  1
  O  O410  1  0.72210926  0.13457442  0.89635712  1
  O  O411  1  0.71657707  0.63439123  0.22495269  1
  O  O412  1  0.73630354  0.63688409  0.56018990  1
  O  O413  1  0.70916554  0.63771831  0.89289964  1
  O  O414  1  0.49079211  0.33946549  0.03789851  1
  O  O415  1  0.48777559  0.33156352  0.36383263  1
  O  O416  1  0.48272971  0.33774402  0.69532659  1
  O  O417  1  0.48756382  0.82501738  0.02768402  1
  O  O418  1  0.49338291  0.84243076  0.35875580  1
  O  O419  1  0.50043174  0.83339469  0.70491153  1
  O  O420  1  0.99384429  0.33192791  0.02843293  1
  O  O421  1  0.99797669  0.33760985  0.36421930  1
  O  O422  1  0.98945020  0.32621736  0.69279638  1
  O  O423  1  0.99149383  0.83229802  0.02988235  1
  O  O424  1  0.98843061  0.83064235  0.36123359  1
  O  O425  1  0.99736856  0.84044057  0.69848356  1
  O  O426  1  0.17062256  0.01235760  0.14039545  1
  O  O427  1  0.16567439  0.01204928  0.46276023  1
  O  O428  1  0.17121616  0.01032417  0.80630754  1
  O  O429  1  0.16387890  0.51316358  0.13981484  1
  O  O430  1  0.16172666  0.50947167  0.46787796  1
  O  O431  1  0.14731927  0.50286307  0.80484730  1
  O  O432  1  0.66016251  0.00122525  0.13623612  1
  O  O433  1  0.67171394  0.00515788  0.46809058  1
  O  O434  1  0.67718103  0.00492610  0.80452625  1
  O  O435  1  0.67459028  0.50273398  0.13664881  1
  O  O436  1  0.66807022  0.51098321  0.46937475  1
  O  O437  1  0.67746670  0.50145620  0.81068474  1
  O  O438  1  0.00967863  0.16952963  0.30288193  1
  O  O439  1  0.00949440  0.16099748  0.63480713  1
  O  O440  1  0.00992132  0.16821073  0.97028907  1
  O  O441  1  0.00625337  0.66806231  0.30717926  1
  O  O442  1  0.00998167  0.67589669  0.64245569  1
  O  O443  1  0.00428137  0.66910002  0.97315697  1
  O  O444  1  0.50453235  0.16396825  0.30202002  1
  O  O445  1  0.50962364  0.16217304  0.63231656  1
  O  O446  1  0.49737878  0.15776545  0.97550760  1
  O  O447  1  0.50914399  0.66315780  0.31158599  1
  O  O448  1  0.51653237  0.67255174  0.63586165  1
  O  O449  1  0.51203867  0.66189124  0.96007620  1
  O  O450  1  0.32881845  0.49545835  0.20271750  1
  O  O451  1  0.32399932  0.49095990  0.53290588  1
  O  O452  1  0.31975352  0.48965036  0.85788235  1
  O  O453  1  0.34076414  1.00205998  0.19218167  1
  O  O454  1  0.32949759  0.99809066  0.53247225  1
  O  O455  1  0.33658545  0.99078250  0.86841854  1
  O  O456  1  0.84184994  0.49323706  0.20004083  1
  O  O457  1  0.83249811  0.48796017  0.53084958  1
  O  O458  1  0.84253952  0.49246772  0.86264711  1
  O  O459  1  0.82904274  0.99066563  0.19419095  1
  O  O460  1  0.83432132  0.99099144  0.52872024  1
  O  O461  1  0.84041898  0.99290938  0.86712647  1
