# generated using pymatgen
data_Na31Fe20(SO4)36
_symmetry_space_group_name_H-M   'P 1'
_cell_length_a   18.07179928
_cell_length_b   18.07102909
_cell_length_c   19.69830637
_cell_angle_alpha   107.57713626
_cell_angle_beta   107.59202205
_cell_angle_gamma   90.70186036
_symmetry_Int_Tables_number   1
_chemical_formula_structural   Na31Fe20(SO4)36
_chemical_formula_sum   'Na62 Fe40 S72 O288'
_cell_volume   5807.78233626
_cell_formula_units_Z   2
loop_
 _symmetry_equiv_pos_site_id
 _symmetry_equiv_pos_as_xyz
  1  'x, y, z'
loop_
 _atom_site_type_symbol
 _atom_site_label
 _atom_site_symmetry_multiplicity
 _atom_site_fract_x
 _atom_site_fract_y
 _atom_site_fract_z
 _atom_site_occupancy
  Na  Na0  1  0.16062829  0.36356442  0.11013321  1
  Na  Na1  1  0.12801608  0.36750420  0.41242125  1
  Na  Na2  1  0.14389504  0.37366861  0.76394534  1
  Na  Na3  1  0.14727639  0.87188827  0.08964169  1
  Na  Na4  1  0.14128414  0.86801344  0.41737614  1
  Na  Na5  1  0.12174722  0.86953167  0.74559733  1
  Na  Na6  1  0.62911292  0.36112841  0.07456627  1
  Na  Na7  1  0.62889633  0.36630923  0.41684041  1
  Na  Na8  1  0.63468170  0.36289370  0.75169923  1
  Na  Na9  1  0.63619128  0.86487983  0.08577683  1
  Na  Na10  1  0.65067675  0.84947378  0.42213288  1
  Na  Na11  1  0.62795866  0.85383221  0.73137870  1
  Na  Na12  1  0.35594477  0.14610713  0.24185541  1
  Na  Na13  1  0.35654451  0.12644925  0.56126262  1
  Na  Na14  1  0.36786182  0.15152226  0.92381185  1
  Na  Na15  1  0.35678415  0.63127253  0.25348190  1
  Na  Na16  1  0.37340702  0.63714196  0.58709183  1
  Na  Na17  1  0.35916760  0.63042895  0.91479076  1
  Na  Na18  1  0.86751399  0.13075914  0.24947768  1
  Na  Na19  1  0.87344491  0.13111661  0.58562962  1
  Na  Na20  1  0.86413847  0.13019328  0.91466249  1
  Na  Na21  1  0.87050598  0.63758797  0.25930187  1
  Na  Na22  1  0.86636652  0.63407227  0.57992313  1
  Na  Na23  1  0.86662813  0.63408406  0.91380678  1
  Na  Na24  1  0.48768841  0.51219160  0.74806986  1
  Na  Na25  1  0.46681145  0.51831898  0.41673802  1
  Na  Na26  1  0.48044512  0.01039246  0.09278002  1
  Na  Na27  1  0.49263496  0.04179922  0.75005083  1
  Na  Na28  1  1.00370232  0.00057609  0.43103311  1
  Na  Na29  1  0.99473300  0.52468879  0.72445375  1
  Na  Na30  1  1.02300475  -0.00627741  0.07062324  1
  Na  Na31  1  1.00442019  0.47813528  0.10203157  1
  Na  Na32  1  0.45865915  0.51133028  0.07618285  1
  Na  Na33  1  0.02808300  0.97942263  0.89171626  1
  Na  Na34  1  0.52181506  0.99187913  0.56131218  1
  Na  Na35  1  0.48624353  1.01787157  0.91132721  1
  Na  Na36  1  0.05838401  0.99932925  0.27211694  1
  Na  Na37  1  0.50457322  0.48570929  0.91746645  1
  Na  Na38  1  0.02627761  0.49769461  0.91212752  1
  Na  Na39  1  0.50266001  0.45217525  0.55969390  1
  Na  Na40  1  0.48512312  0.50302781  0.25426228  1
  Na  Na41  1  0.47970262  1.00388156  0.28753013  1
  Na  Na42  1  0.25065599  0.75463917  0.66403380  1
  Na  Na43  1  0.75152306  0.25092934  0.33473082  1
  Na  Na44  1  0.24598563  0.74917596  0.00333999  1
  Na  Na45  1  0.73683120  0.23843441  0.00201396  1
  Na  Na46  1  0.25557820  0.25119822  0.66265938  1
  Na  Na47  1  0.75974087  0.75760999  0.64518425  1
  Na  Na48  1  0.24161361  0.23516991  0.02148715  1
  Na  Na49  1  0.75057558  0.24968630  0.66912789  1
  Na  Na50  1  0.75762253  0.75498587  -0.00263273  1
  Na  Na51  1  0.27116147  0.27486268  0.31503294  1
  Na  Na52  1  0.25419136  0.25738345  0.83771002  1
  Na  Na53  1  0.26166699  0.75802707  0.48685566  1
  Na  Na54  1  0.76351488  0.76042932  0.81953600  1
  Na  Na55  1  0.74144525  0.74007153  0.18165298  1
  Na  Na56  1  0.74929742  0.24836450  0.49971893  1
  Na  Na57  1  0.25657713  0.25137829  0.48357514  1
  Na  Na58  1  0.74271817  0.24616287  0.16860776  1
  Na  Na59  1  0.23967009  0.73750782  0.17824377  1
  Na  Na60  1  0.24355155  0.75370738  0.83544822  1
  Na  Na61  1  0.73720042  0.24265423  0.84072135  1
  Fe  Fe62  1  0.96303285  0.30427559  0.12164291  1
  Fe  Fe63  1  0.95999804  0.80881300  0.45337444  1
  Fe  Fe64  1  0.46857500  0.29896227  0.78897867  1
  Fe  Fe65  1  0.46587085  0.81115293  0.12696961  1
  Fe  Fe66  1  0.96486682  0.30743786  0.78781874  1
  Fe  Fe67  1  0.46581789  0.79868221  0.45721155  1
  Fe  Fe68  1  0.46675178  0.31142190  0.11778300  1
  Fe  Fe69  1  0.96873764  0.80753181  0.12064532  1
  Fe  Fe70  1  0.46644451  0.80809286  0.78850544  1
  Fe  Fe71  1  0.96480419  0.31369252  0.45650386  1
  Fe  Fe72  1  0.18552437  0.03571261  0.70944497  1
  Fe  Fe73  1  0.69650441  0.02945259  0.38082704  1
  Fe  Fe74  1  0.69210892  0.03329865  0.04591976  1
  Fe  Fe75  1  0.20362775  0.52866022  0.04675192  1
  Fe  Fe76  1  0.69474093  0.03589618  0.71423427  1
  Fe  Fe77  1  0.19348567  0.53373774  0.37305858  1
  Fe  Fe78  1  0.68950841  0.53935608  0.38542463  1
  Fe  Fe79  1  0.69306941  0.53616748  0.05254647  1
  Fe  Fe80  1  0.19499832  0.53268110  0.70874408  1
  Fe  Fe81  1  0.68671701  0.53542047  0.71324684  1
  Fe  Fe82  1  0.03555115  0.19048928  0.21714405  1
  Fe  Fe83  1  0.53529101  0.69448309  0.88437406  1
  Fe  Fe84  1  0.53391831  0.69428950  0.22241429  1
  Fe  Fe85  1  0.03210154  0.69041084  0.54071096  1
  Fe  Fe86  1  0.03656860  0.19428519  0.54890563  1
  Fe  Fe87  1  0.03049199  0.70001534  0.87264555  1
  Fe  Fe88  1  0.03481881  0.19201362  0.88295348  1
  Fe  Fe89  1  0.53640627  0.19755929  0.21811627  1
  Fe  Fe90  1  0.03892868  0.69097232  0.21322644  1
  Fe  Fe91  1  0.53197993  0.19655578  0.53746983  1
  Fe  Fe92  1  0.81390939  0.96324859  0.61944024  1
  Fe  Fe93  1  0.80838549  0.46841832  0.29052647  1
  Fe  Fe94  1  0.81061366  0.96365218  0.28666135  1
  Fe  Fe95  1  0.30842391  0.46288177  0.61645889  1
  Fe  Fe96  1  0.30348109  0.96713322  0.61733156  1
  Fe  Fe97  1  0.80780861  0.96326565  0.95039921  1
  Fe  Fe98  1  0.29974031  0.97197596  0.95891398  1
  Fe  Fe99  1  0.80813070  0.46898392  0.95511602  1
  Fe  Fe100  1  0.80460627  0.46418903  0.61890667  1
  Fe  Fe101  1  0.29918805  0.97103697  0.29453274  1
  S  S102  1  0.36531441  0.14090352  0.08135532  1
  S  S103  1  0.36150498  0.13999020  0.40994031  1
  S  S104  1  0.35502319  0.13854025  0.75009575  1
  S  S105  1  0.36000672  0.64575556  0.08360087  1
  S  S106  1  0.35576727  0.63955952  0.41792202  1
  S  S107  1  0.36098399  0.64097995  0.75203544  1
  S  S108  1  0.85907371  0.13801175  0.08299011  1
  S  S109  1  0.86029743  0.14053119  0.41914101  1
  S  S110  1  0.86029707  0.14124591  0.75127625  1
  S  S111  1  0.86000033  0.64248278  0.08589659  1
  S  S112  1  0.85534176  0.64138486  0.41597018  1
  S  S113  1  0.85536516  0.63861887  0.74844506  1
  S  S114  1  0.13394715  0.36118092  0.25241555  1
  S  S115  1  0.14290503  0.35831926  0.58230821  1
  S  S116  1  0.13770253  0.35996235  0.91874784  1
  S  S117  1  0.14271873  0.85626705  0.24706482  1
  S  S118  1  0.13845747  0.85908247  0.57965887  1
  S  S119  1  0.14170202  0.85989755  0.92020893  1
  S  S120  1  0.64332089  0.36285433  0.24999604  1
  S  S121  1  0.64472902  0.35751554  0.58883013  1
  S  S122  1  0.64257115  0.36338719  0.91544235  1
  S  S123  1  0.64116940  0.85807997  0.25075909  1
  S  S124  1  0.64017854  0.86479638  0.58292280  1
  S  S125  1  0.64268680  0.85740548  0.91849118  1
  S  S126  1  0.05861831  0.16814290  0.04046045  1
  S  S127  1  0.05831790  0.17075703  0.38103025  1
  S  S128  1  0.06927589  0.17813722  0.71316185  1
  S  S129  1  0.06892282  0.67054288  0.03989630  1
  S  S130  1  0.07228108  0.67278351  0.37569464  1
  S  S131  1  0.07023095  0.66780169  0.70387311  1
  S  S132  1  0.56686863  0.16419751  0.04288931  1
  S  S133  1  0.57716148  0.16590247  0.37292675  1
  S  S134  1  0.56605166  0.16884716  0.70217386  1
  S  S135  1  0.56607727  0.67066794  0.04524900  1
  S  S136  1  0.56062730  0.66482331  0.37321074  1
  S  S137  1  0.56474971  0.66878003  0.71430136  1
  S  S138  1  0.33519784  0.43643812  0.12386175  1
  S  S139  1  0.32522602  0.43470720  0.45332806  1
  S  S140  1  0.33524928  0.43538543  0.78963467  1
  S  S141  1  0.33543778  0.93442702  0.13156880  1
  S  S142  1  0.33240289  0.92821292  0.45734905  1
  S  S143  1  0.32568400  0.93206313  0.79314110  1
  S  S144  1  0.82510959  0.43024629  0.12280429  1
  S  S145  1  0.82508010  0.43134677  0.45781034  1
  S  S146  1  0.83286180  0.43348636  0.79389866  1
  S  S147  1  0.83218636  0.93217199  0.12474356  1
  S  S148  1  0.83443844  0.93513026  0.45706325  1
  S  S149  1  0.82990442  0.93485282  0.78890061  1
  S  S150  1  0.44510862  0.33271481  0.28883955  1
  S  S151  1  0.43405059  0.32703277  0.62525760  1
  S  S152  1  0.43970384  0.33353299  0.95559899  1
  S  S153  1  0.42658778  0.82526868  0.29202290  1
  S  S154  1  0.43125140  0.84107542  0.63146780  1
  S  S155  1  0.43151528  0.83266250  0.96005338  1
  S  S156  1  0.92460272  0.32483574  0.28877217  1
  S  S157  1  0.93416833  0.33131924  0.62685935  1
  S  S158  1  0.92834320  0.33114134  0.95929531  1
  S  S159  1  0.93622720  0.83007771  0.28973442  1
  S  S160  1  0.93195366  0.82470987  0.61910773  1
  S  S161  1  0.93328584  0.82905452  0.95798681  1
  S  S162  1  0.17083107  0.06682543  0.21090948  1
  S  S163  1  0.16785210  0.06604876  0.54258829  1
  S  S164  1  0.17119575  0.07038741  0.87563430  1
  S  S165  1  0.16767587  0.56576594  0.20605021  1
  S  S166  1  0.17829176  0.57278988  0.54264489  1
  S  S167  1  0.16399374  0.56975331  0.87168356  1
  S  S168  1  0.67173560  0.06586085  0.20914629  1
  S  S169  1  0.67613497  0.07211582  0.54359643  1
  S  S170  1  0.66497519  0.05843341  0.87362084  1
  S  S171  1  0.66503443  0.56550030  0.20700367  1
  S  S172  1  0.65965204  0.55623409  0.54325614  1
  S  S173  1  0.66816330  0.56821826  0.87862734  1
  O  O174  1  0.38028554  0.21573360  0.06650299  1
  O  O175  1  0.36993725  0.21206009  0.39264857  1
  O  O176  1  0.36704860  0.21922199  0.74591598  1
  O  O177  1  0.36911119  0.72751453  0.08042432  1
  O  O178  1  0.36457949  0.72319668  0.42049860  1
  O  O179  1  0.36924755  0.72037937  0.74447787  1
  O  O180  1  0.86516045  0.21734159  0.07455217  1
  O  O181  1  0.86631068  0.22134742  0.41469229  1
  O  O182  1  0.86927679  0.22043671  0.74251344  1
  O  O183  1  0.86924908  0.72175623  0.07836995  1
  O  O184  1  0.86682168  0.71789927  0.40493357  1
  O  O185  1  0.85595691  0.71513789  0.73838928  1
  O  O186  1  0.28829766  0.13658304  0.08902996  1
  O  O187  1  0.28894869  0.12972755  0.42637517  1
  O  O188  1  0.27408290  0.13223746  0.75516078  1
  O  O189  1  0.27897332  0.63473602  0.08746937  1
  O  O190  1  0.27056536  0.62867752  0.41641454  1
  O  O191  1  0.28145485  0.63074729  0.75854574  1
  O  O192  1  0.77966531  0.12844719  0.09137101  1
  O  O193  1  0.78255062  0.12896921  0.42876915  1
  O  O194  1  0.78148611  0.13459848  0.76148356  1
  O  O195  1  0.78087236  0.63303908  0.09391607  1
  O  O196  1  0.77807386  0.63163487  0.42646166  1
  O  O197  1  0.77962355  0.62175053  0.76144541  1
  O  O198  1  0.11894068  0.28679756  0.26809727  1
  O  O199  1  0.13315439  0.27891742  0.58963741  1
  O  O200  1  0.12581225  0.28102597  0.92688038  1
  O  O201  1  0.13603706  0.77286922  0.24295519  1
  O  O202  1  0.13145512  0.77964690  0.58727619  1
  O  O203  1  0.13186252  0.77605969  0.91968601  1
  O  O204  1  0.63684530  0.28307727  0.25779023  1
  O  O205  1  0.63179141  0.27905500  0.59702153  1
  O  O206  1  0.64095051  0.28610619  0.92421486  1
  O  O207  1  0.63127367  0.77714328  0.25304454  1
  O  O208  1  0.63506188  0.79395108  0.60284464  1
  O  O209  1  0.63213025  0.78037102  0.93061927  1
  O  O210  1  0.20949875  0.36310143  0.24069763  1
  O  O211  1  0.22129909  0.36506222  0.57209111  1
  O  O212  1  0.21004780  0.36748836  0.90224425  1
  O  O213  1  0.22246196  0.87148777  0.23989052  1
  O  O214  1  0.21747062  0.86984485  0.57089504  1
  O  O215  1  0.22712403  0.87006053  0.92591828  1
  O  O216  1  0.72361743  0.37227022  0.24390444  1
  O  O217  1  0.72742508  0.36240323  0.58726174  1
  O  O218  1  0.71922189  0.37905410  0.90346066  1
  O  O219  1  0.71981486  0.86911300  0.24206423  1
  O  O220  1  0.71805093  0.87758851  0.57377712  1
  O  O221  1  0.72275289  0.86301422  0.91166179  1
  O  O222  1  0.42584498  0.13233736  0.14975006  1
  O  O223  1  0.42712161  0.13306451  0.47565916  1
  O  O224  1  0.41143499  0.12416311  0.81479923  1
  O  O225  1  0.41680201  0.63742168  0.15335422  1
  O  O226  1  0.40733764  0.62660130  0.48559871  1
  O  O227  1  0.41928121  0.63361614  0.82128058  1
  O  O228  1  0.91804501  0.13005407  0.15062803  1
  O  O229  1  0.92154148  0.13035640  0.48501127  1
  O  O230  1  0.91925802  0.13433471  0.81930291  1
  O  O231  1  0.91936406  0.63384941  0.15302177  1
  O  O232  1  0.91620957  0.63176684  0.48197900  1
  O  O233  1  0.91846993  0.63378921  0.81637106  1
  O  O234  1  0.37489199  0.07707928  0.01501648  1
  O  O235  1  0.36672987  0.07243749  0.34202827  1
  O  O236  1  0.36213968  0.08238029  0.67908575  1
  O  O237  1  0.37165722  0.59014008  0.01743269  1
  O  O238  1  0.36788011  0.58651626  0.35052408  1
  O  O239  1  0.37224371  0.58182453  0.68573268  1
  O  O240  1  0.86614155  0.07994483  0.01433320  1
  O  O241  1  0.86666562  0.08391123  0.34900975  1
  O  O242  1  0.86619241  0.08259079  0.68280983  1
  O  O243  1  0.86618250  0.58406931  0.01637342  1
  O  O244  1  0.85974848  0.58051828  0.34628343  1
  O  O245  1  0.86615779  0.57795917  0.68159871  1
  O  O246  1  0.07187175  0.36904648  0.18490696  1
  O  O247  1  0.08330721  0.36843905  0.51610208  1
  O  O248  1  0.07177721  0.37232277  0.85539428  1
  O  O249  1  0.08408767  0.86963595  0.18024799  1
  O  O250  1  0.07862901  0.86628165  0.51207180  1
  O  O251  1  0.09282475  0.86989866  0.85008538  1
  O  O252  1  0.58656104  0.36926118  0.18045081  1
  O  O253  1  0.59103981  0.36792106  0.52141276  1
  O  O254  1  0.58039089  0.36964410  0.84788044  1
  O  O255  1  0.58210517  0.86892572  0.18355051  1
  O  O256  1  0.58003936  0.86398789  0.51085633  1
  O  O257  1  0.58498719  0.86400068  0.84967824  1
  O  O258  1  0.12937445  0.42574188  0.32022742  1
  O  O259  1  0.13878071  0.41621846  0.65269532  1
  O  O260  1  0.13418558  0.41905095  0.98941746  1
  O  O261  1  0.13336738  0.90839686  0.31582958  1
  O  O262  1  0.13316369  0.91728519  0.64910808  1
  O  O263  1  0.12472078  0.91269164  0.98526191  1
  O  O264  1  0.63369107  0.42089463  0.31731609  1
  O  O265  1  0.63577934  0.41670133  0.65756021  1
  O  O266  1  0.63260885  0.42340314  0.98268968  1
  O  O267  1  0.63411956  0.91429699  0.32053890  1
  O  O268  1  0.62584955  0.93205084  0.64362986  1
  O  O269  1  0.63527349  0.91804231  0.98607260  1
  O  O270  1  0.02632543  0.20178283  0.10548865  1
  O  O271  1  0.02224179  0.21101223  0.44159074  1
  O  O272  1  0.03072727  0.20596465  0.77341488  1
  O  O273  1  0.02824137  0.69863758  0.09827150  1
  O  O274  1  0.02986388  0.69602633  0.43240299  1
  O  O275  1  0.03196355  0.68871609  0.76236663  1
  O  O276  1  0.54241638  0.20044344  0.11081966  1
  O  O277  1  0.55164015  0.19814611  0.43861839  1
  O  O278  1  0.52832116  0.19390136  0.76104222  1
  O  O279  1  0.52923321  0.69954839  0.10547482  1
  O  O280  1  0.52629593  0.69635916  0.43348972  1
  O  O281  1  0.53195410  0.70186758  0.77981410  1
  O  O282  1  0.30486440  0.47022177  0.06133161  1
  O  O283  1  0.28820265  0.47509260  0.39772774  1
  O  O284  1  0.30281856  0.46695888  0.72358884  1
  O  O285  1  0.31943334  0.97381742  0.07449283  1
  O  O286  1  0.30944942  0.96252940  0.39490129  1
  O  O287  1  0.29739539  0.96661181  0.73090250  1
  O  O288  1  0.79645335  0.46878677  0.06242899  1
  O  O289  1  0.79433065  0.46861081  0.39780499  1
  O  O290  1  0.80407399  0.46689665  0.73144586  1
  O  O291  1  0.80230930  0.96885938  0.06382880  1
  O  O292  1  0.80222176  0.97124866  0.39443443  1
  O  O293  1  0.79633524  0.97272499  0.72824501  1
  O  O294  1  0.47553099  0.29771139  0.22052706  1
  O  O295  1  0.47049174  0.30133531  0.56554089  1
  O  O296  1  0.47272085  0.29800420  0.89425808  1
  O  O297  1  0.47065801  0.80268852  0.23512971  1
  O  O298  1  0.46708988  0.81925233  0.57186350  1
  O  O299  1  0.47093384  0.80375197  0.90093957  1
  O  O300  1  0.95892822  0.29146915  0.22671408  1
  O  O301  1  0.97138337  0.30234794  0.56638496  1
  O  O302  1  0.96277958  0.29931584  0.89770307  1
  O  O303  1  0.97694689  0.80206307  0.23133318  1
  O  O304  1  0.96739095  0.79359996  0.55490117  1
  O  O305  1  0.96811163  0.80129444  0.89781384  1
  O  O306  1  0.20086726  0.02837584  0.27131250  1
  O  O307  1  0.20077080  0.03266253  0.60695926  1
  O  O308  1  0.19885483  0.03108506  0.93306280  1
  O  O309  1  0.18840555  0.53137679  0.26789350  1
  O  O310  1  0.20453525  0.52926123  0.59933127  1
  O  O311  1  0.18124325  0.53511370  0.93268808  1
  O  O312  1  0.70239601  0.03041317  0.27077809  1
  O  O313  1  0.70722501  0.03949251  0.60701777  1
  O  O314  1  0.70321110  0.02365469  0.93544027  1
  O  O315  1  0.69457044  0.53218756  0.26993154  1
  O  O316  1  0.70070578  0.52151931  0.60568595  1
  O  O317  1  0.70073662  0.53671958  0.94263643  1
  O  O318  1  0.06561749  0.08500611  0.02955000  1
  O  O319  1  0.06507498  0.09020395  0.38236637  1
  O  O320  1  0.08942745  0.09876736  0.70893622  1
  O  O321  1  0.08975294  0.59021651  0.03666504  1
  O  O322  1  0.09923770  0.59459994  0.37326766  1
  O  O323  1  0.09259350  0.58611446  0.69520708  1
  O  O324  1  0.58579643  0.08196947  0.04130087  1
  O  O325  1  0.59511071  0.08313804  0.36567846  1
  O  O326  1  0.58468467  0.08589834  0.69554207  1
  O  O327  1  0.58268083  0.58788290  0.03750715  1
  O  O328  1  0.57980910  0.58293070  0.37154639  1
  O  O329  1  0.58113675  0.58621235  0.71313162  1
  O  O330  1  0.41848525  0.41899208  0.12608024  1
  O  O331  1  0.40349785  0.41953555  0.44899265  1
  O  O332  1  0.41646896  0.41485752  0.79133349  1
  O  O333  1  0.42124327  0.92107922  0.15114402  1
  O  O334  1  0.41418768  0.90834844  0.46959171  1
  O  O335  1  0.40797118  0.91306790  0.80079429  1
  O  O336  1  0.90512249  0.40964386  0.12529604  1
  O  O337  1  0.90333221  0.40834335  0.45786965  1
  O  O338  1  0.91586832  0.41727158  0.80275002  1
  O  O339  1  0.91355500  0.91416145  0.13009080  1
  O  O340  1  0.91557195  0.91888422  0.45744686  1
  O  O341  1  0.91026095  0.92188926  0.79494769  1
  O  O342  1  0.43767824  0.41578072  0.29666123  1
  O  O343  1  0.41835696  0.41112890  0.63347391  1
  O  O344  1  0.43470218  0.41727525  0.96441052  1
  O  O345  1  0.40156681  0.90485989  0.29526569  1
  O  O346  1  0.41379642  0.92507688  0.64626081  1
  O  O347  1  0.41265251  0.91381848  0.96445418  1
  O  O348  1  0.90237665  0.40269729  0.28804641  1
  O  O349  1  0.91223659  0.41136800  0.63000687  1
  O  O350  1  0.91293298  0.41396876  0.96467308  1
  O  O351  1  0.91958054  0.91265498  0.29591377  1
  O  O352  1  0.90554552  0.90164552  0.61475683  1
  O  O353  1  0.91331014  0.91112850  0.96480641  1
  O  O354  1  0.08992971  0.08772221  0.21427504  1
  O  O355  1  0.08972306  0.09153686  0.54598149  1
  O  O356  1  0.08974778  0.08918337  0.87282559  1
  O  O357  1  0.08453499  0.58497501  0.19225290  1
  O  O358  1  0.09988636  0.59511651  0.53975772  1
  O  O359  1  0.07984258  0.58714475  0.85457744  1
  O  O360  1  0.59055467  0.08459295  0.20300022  1
  O  O361  1  0.59511072  0.09046942  0.53871102  1
  O  O362  1  0.58395294  0.06820426  0.87174037  1
  O  O363  1  0.58288492  0.58408119  0.20058530  1
  O  O364  1  0.57653618  0.55333393  0.53699394  1
  O  O365  1  0.58479658  0.58253148  0.87326016  1
  O  O366  1  0.13182541  0.21601780  0.05591508  1
  O  O367  1  0.13256895  0.21660725  0.39614657  1
  O  O368  1  0.13887326  0.23347174  0.73060593  1
  O  O369  1  0.13907459  0.72592184  0.05939622  1
  O  O370  1  0.13782121  0.73163646  0.39338876  1
  O  O371  1  0.14036780  0.72304578  0.72258801  1
  O  O372  1  0.63855868  0.21246765  0.05132757  1
  O  O373  1  0.64707657  0.21526157  0.37980592  1
  O  O374  1  0.63939723  0.22058981  0.72226694  1
  O  O375  1  0.63853430  0.72172542  0.06244629  1
  O  O376  1  0.62847342  0.71377485  0.37869461  1
  O  O377  1  0.63841930  0.71733203  0.73111736  1
  O  O378  1  0.28725077  0.36299417  0.10861373  1
  O  O379  1  0.27426830  0.36218706  0.43767190  1
  O  O380  1  0.28321151  0.36425187  0.77486377  1
  O  O381  1  0.28407009  0.86098727  0.10753900  1
  O  O382  1  0.27713224  0.86043273  0.44122854  1
  O  O383  1  0.27311598  0.86108849  0.77779251  1
  O  O384  1  0.77137033  0.35939553  0.10479893  1
  O  O385  1  0.77065549  0.36195375  0.44397316  1
  O  O386  1  0.78240360  0.36149046  0.77920876  1
  O  O387  1  0.77931729  0.86125716  0.10845787  1
  O  O388  1  0.78450219  0.86483390  0.44263803  1
  O  O389  1  0.77693419  0.86256676  0.76991980  1
  O  O390  1  0.36989189  0.28616836  0.26948741  1
  O  O391  1  0.36028358  0.27705551  0.60698880  1
  O  O392  1  0.36375466  0.28961427  0.94078879  1
  O  O393  1  0.35854548  0.76792336  0.26949043  1
  O  O394  1  0.35920984  0.78873842  0.61342453  1
  O  O395  1  0.36147568  0.77804125  0.94177335  1
  O  O396  1  0.85547922  0.27040517  0.27633495  1
  O  O397  1  0.86493516  0.27632482  0.61075503  1
  O  O398  1  0.85607671  0.28114466  0.94481255  1
  O  O399  1  0.86471906  0.77760033  0.26916183  1
  O  O400  1  0.86442927  0.76855674  0.60423173  1
  O  O401  1  0.86206008  0.77643847  0.94336250  1
  O  O402  1  0.22192077  0.13778757  0.22710038  1
  O  O403  1  0.22206693  0.13438929  0.55493298  1
  O  O404  1  0.22315273  0.14282239  0.89368145  1
  O  O405  1  0.22123582  0.63482715  0.22214131  1
  O  O406  1  0.23599693  0.64133022  0.56378098  1
  O  O407  1  0.21811063  0.64109826  0.89166654  1
  O  O408  1  0.72420989  0.13702828  0.22473836  1
  O  O409  1  0.72803201  0.14327483  0.55748918  1
  O  O410  1  0.71300515  0.13301808  0.88979774  1
  O  O411  1  0.71755374  0.63405328  0.21844629  1
  O  O412  1  0.70039788  0.63364415  0.56163494  1
  O  O413  1  0.71673522  0.64044783  0.89159770  1
  O  O414  1  0.49584907  0.32723620  0.02774488  1
  O  O415  1  0.50429939  0.32379782  0.35434152  1
  O  O416  1  0.49080564  0.32688191  0.69858105  1
  O  O417  1  0.48938011  0.83646096  0.03433927  1
  O  O418  1  0.48430306  0.82765657  0.36460695  1
  O  O419  1  0.49026396  0.83750256  0.70293684  1
  O  O420  1  0.98798474  0.33565289  0.03264243  1
  O  O421  1  0.98567469  0.33119225  0.36142703  1
  O  O422  1  0.99358376  0.33739344  0.70039671  1
  O  O423  1  0.99262654  0.83398597  0.03223947  1
  O  O424  1  0.99231857  0.83128145  0.36336856  1
  O  O425  1  0.99326127  0.83398282  0.68924195  1
  O  O426  1  0.15904211  0.00849501  0.13722258  1
  O  O427  1  0.15609851  0.00332048  0.47200019  1
  O  O428  1  0.16669034  0.01377153  0.80062919  1
  O  O429  1  0.16797155  0.50377766  0.13537733  1
  O  O430  1  0.17550606  0.51600632  0.46806284  1
  O  O431  1  0.16969255  0.51081463  0.80166442  1
  O  O432  1  0.67083689  0.00564429  0.13745968  1
  O  O433  1  0.67497236  0.01013676  0.47311182  1
  O  O434  1  0.66493217  0.00284047  0.79987969  1
  O  O435  1  0.66159805  0.50321003  0.13484819  1
  O  O436  1  0.66859346  0.50285158  0.47169058  1
  O  O437  1  0.66668765  0.50734103  0.80734567  1
  O  O438  1  0.00257380  0.16911296  0.30640004  1
  O  O439  1  0.00990905  0.17688933  0.64085646  1
  O  O440  1  -0.00115391  0.17507144  0.97071962  1
  O  O441  1  0.01304963  0.66549311  0.30106815  1
  O  O442  1  0.01139918  0.66615456  0.63138096  1
  O  O443  1  0.01169282  0.66653992  0.96549840  1
  O  O444  1  0.51217462  0.15986793  0.30194299  1
  O  O445  1  0.51001703  0.16648048  0.62806208  1
  O  O446  1  0.50303843  0.15656913  0.97398486  1
  O  O447  1  0.49814594  0.65329720  0.29752044  1
  O  O448  1  0.50534608  0.66778582  0.64566254  1
  O  O449  1  0.50784644  0.67018033  0.97236441  1
  O  O450  1  0.34156349  0.49536963  0.19598241  1
  O  O451  1  0.33416985  0.48890247  0.53164122  1
  O  O452  1  0.34037291  0.49713203  0.85896605  1
  O  O453  1  0.32658032  0.98912185  0.20288238  1
  O  O454  1  0.33141984  0.99086443  0.52757347  1
  O  O455  1  0.32892060  0.99238949  0.86545970  1
  O  O456  1  0.82755469  0.48938726  0.19469879  1
  O  O457  1  0.83160590  0.49094157  0.53139627  1
  O  O458  1  0.83277622  0.49437031  0.86504391  1
  O  O459  1  0.83345916  0.99110187  0.19740173  1
  O  O460  1  0.83821880  0.99608394  0.52902488  1
  O  O461  1  0.82632007  0.99209753  0.86155922  1
