# generated using pymatgen
data_Na31Fe20(SO4)36
_symmetry_space_group_name_H-M   'P 1'
_cell_length_a   18.07357417
_cell_length_b   18.07599809
_cell_length_c   19.72182926
_cell_angle_alpha   107.58189152
_cell_angle_beta   107.59995681
_cell_angle_gamma   90.70811966
_symmetry_Int_Tables_number   1
_chemical_formula_structural   Na31Fe20(SO4)36
_chemical_formula_sum   'Na62 Fe40 S72 O288'
_cell_volume   5816.34612292
_cell_formula_units_Z   2
loop_
 _symmetry_equiv_pos_site_id
 _symmetry_equiv_pos_as_xyz
  1  'x, y, z'
loop_
 _atom_site_type_symbol
 _atom_site_label
 _atom_site_symmetry_multiplicity
 _atom_site_fract_x
 _atom_site_fract_y
 _atom_site_fract_z
 _atom_site_occupancy
  Na  Na0  1  0.13750333  0.37005218  0.08868659  1
  Na  Na1  1  0.17120099  0.34692154  0.42964052  1
  Na  Na2  1  0.12815764  0.35606327  0.74087386  1
  Na  Na3  1  0.12897079  0.86055453  0.08237260  1
  Na  Na4  1  0.14952218  0.83714457  0.40989588  1
  Na  Na5  1  0.12800673  0.87093907  0.74472025  1
  Na  Na6  1  0.63334424  0.36669126  0.08167082  1
  Na  Na7  1  0.62512292  0.36680278  0.41059545  1
  Na  Na8  1  0.64623169  0.37917099  0.75488841  1
  Na  Na9  1  0.62622681  0.86146855  0.07305610  1
  Na  Na10  1  0.63141686  0.86717233  0.41785103  1
  Na  Na11  1  0.63442568  0.86344659  0.75152871  1
  Na  Na12  1  0.35714429  0.13773138  0.25658413  1
  Na  Na13  1  0.36848459  0.14412427  0.58254765  1
  Na  Na14  1  0.36799338  0.13514774  0.91787220  1
  Na  Na15  1  0.35230567  0.63914309  0.24815239  1
  Na  Na16  1  0.36234203  0.63521234  0.57658885  1
  Na  Na17  1  0.36781165  0.63895651  0.91845076  1
  Na  Na18  1  0.86667544  0.13709915  0.24955023  1
  Na  Na19  1  0.87702064  0.13142578  0.59170970  1
  Na  Na20  1  0.85976548  0.13418602  0.91116311  1
  Na  Na21  1  0.87018401  0.63678789  0.25869516  1
  Na  Na22  1  0.87246790  0.63235747  0.58460520  1
  Na  Na23  1  0.85385739  0.62412368  0.90834473  1
  Na  Na24  1  0.49541593  0.00964591  0.73932495  1
  Na  Na25  1  0.48194079  0.51246674  0.08554452  1
  Na  Na26  1  0.99901881  0.48544348  0.74644107  1
  Na  Na27  1  0.99582703  0.04535110  0.09272601  1
  Na  Na28  1  0.48892256  0.01243325  0.42843895  1
  Na  Na29  1  1.02243704  -0.04579630  0.47285788  1
  Na  Na30  1  1.00178792  0.49351094  0.43574699  1
  Na  Na31  1  0.48243422  0.54108120  0.74453340  1
  Na  Na32  1  0.97011943  0.51566977  0.07151563  1
  Na  Na33  1  0.01319842  0.45634246  0.91398337  1
  Na  Na34  1  0.48647950  0.49970695  0.27864604  1
  Na  Na35  1  0.50651617  0.99519724  0.23797162  1
  Na  Na36  1  0.01489959  0.48760721  0.24662957  1
  Na  Na37  1  0.00587097  0.99896198  0.25968226  1
  Na  Na38  1  0.52060033  0.49392865  0.58399333  1
  Na  Na39  1  0.50210035  0.97859229  0.93134306  1
  Na  Na40  1  0.00507528  1.00945251  0.88658642  1
  Na  Na41  1  0.51600679  0.50813975  0.90802096  1
  Na  Na42  1  0.74163478  0.73591165  0.67167735  1
  Na  Na43  1  0.74977334  0.24953089  0.32934891  1
  Na  Na44  1  0.26054464  0.27463490  0.64343079  1
  Na  Na45  1  0.23940854  0.73623642  0.00639278  1
  Na  Na46  1  0.24700173  0.25390593  0.00152657  1
  Na  Na47  1  0.76545273  0.25796957  0.66552060  1
  Na  Na48  1  0.76773852  0.76170429  0.33489809  1
  Na  Na49  1  0.76149978  0.26587904  -0.00976888  1
  Na  Na50  1  0.73415823  0.73774040  0.00123503  1
  Na  Na51  1  0.25956979  0.75883778  0.65648553  1
  Na  Na52  1  0.23134148  0.73366487  0.17540469  1
  Na  Na53  1  0.75302503  0.75236488  0.16739552  1
  Na  Na54  1  0.72674935  0.72747323  0.83585299  1
  Na  Na55  1  0.24909756  0.25362612  0.83007904  1
  Na  Na56  1  0.77792270  0.27840371  0.83134719  1
  Na  Na57  1  0.75973675  0.75523618  0.49753742  1
  Na  Na58  1  0.22652689  0.23812361  0.18551850  1
  Na  Na59  1  0.25583037  0.75528333  0.82856117  1
  Na  Na60  1  0.75180375  0.25097686  0.50009768  1
  Na  Na61  1  0.75578400  0.25819649  0.15987154  1
  Fe  Fe62  1  0.46176629  0.30769978  0.11887067  1
  Fe  Fe63  1  0.96583357  0.80535583  0.78501271  1
  Fe  Fe64  1  0.97213138  0.29950909  0.12576246  1
  Fe  Fe65  1  0.45704062  0.31435565  0.45351987  1
  Fe  Fe66  1  0.46614707  0.31198329  0.78228405  1
  Fe  Fe67  1  0.45934091  0.81193569  0.45483111  1
  Fe  Fe68  1  0.96322214  0.80615487  0.11867177  1
  Fe  Fe69  1  0.46745382  0.80443210  0.11723483  1
  Fe  Fe70  1  0.96583626  0.30438340  0.45259969  1
  Fe  Fe71  1  0.46454418  0.80389175  0.78632084  1
  Fe  Fe72  1  0.19414661  0.03902861  0.38275345  1
  Fe  Fe73  1  0.68829438  0.03366548  0.71221632  1
  Fe  Fe74  1  0.19700683  0.53161361  0.70533133  1
  Fe  Fe75  1  0.69112395  0.03630020  0.04858778  1
  Fe  Fe76  1  0.69915762  0.53121535  0.04447625  1
  Fe  Fe77  1  0.19720021  0.53589144  0.38533803  1
  Fe  Fe78  1  0.19332654  0.03513104  0.71018974  1
  Fe  Fe79  1  0.69278837  0.53475103  0.38124543  1
  Fe  Fe80  1  0.69226476  0.03586674  0.38208377  1
  Fe  Fe81  1  0.19285109  0.03353048  0.05198165  1
  Fe  Fe82  1  0.03547109  0.69062454  0.21818938  1
  Fe  Fe83  1  0.03337736  0.69069785  0.87833573  1
  Fe  Fe84  1  0.53154589  0.19071934  0.21265729  1
  Fe  Fe85  1  0.03584089  0.18803674  0.54387943  1
  Fe  Fe86  1  0.03459192  0.69852763  0.54367413  1
  Fe  Fe87  1  0.53695892  0.69418225  0.21584941  1
  Fe  Fe88  1  0.03231690  0.19396347  0.86950971  1
  Fe  Fe89  1  0.53605062  0.68977788  0.54306304  1
  Fe  Fe90  1  0.53768993  0.19837657  0.55086534  1
  Fe  Fe91  1  0.53301889  0.19551139  0.88112267  1
  Fe  Fe92  1  0.30413385  0.46766425  0.28679741  1
  Fe  Fe93  1  0.80026141  0.46878915  0.62491942  1
  Fe  Fe94  1  0.30787727  0.96168422  0.28677308  1
  Fe  Fe95  1  0.30641803  0.96637615  0.95578146  1
  Fe  Fe96  1  0.81160456  0.96147498  0.62075134  1
  Fe  Fe97  1  0.30938728  0.96495427  0.61315340  1
  Fe  Fe98  1  0.29897409  0.47117765  0.95532349  1
  Fe  Fe99  1  0.80503104  0.96514469  0.95149863  1
  Fe  Fe100  1  0.80689538  0.46466993  0.28954923  1
  Fe  Fe101  1  0.81188217  0.96296355  0.29031386  1
  S  S102  1  0.35622914  0.14130120  0.08593253  1
  S  S103  1  0.36415657  0.13906245  0.41786750  1
  S  S104  1  0.36193629  0.14252524  0.74714449  1
  S  S105  1  0.36017772  0.64303299  0.08520674  1
  S  S106  1  0.36210028  0.64115118  0.41343944  1
  S  S107  1  0.35453979  0.64468030  0.75072958  1
  S  S108  1  0.85498163  0.13976500  0.08146569  1
  S  S109  1  0.85800816  0.13878198  0.41423976  1
  S  S110  1  0.85547389  0.13369926  0.75302598  1
  S  S111  1  0.85820569  0.64433023  0.08618627  1
  S  S112  1  0.85940650  0.63814512  0.41940712  1
  S  S113  1  0.85993781  0.64094188  0.74711977  1
  S  S114  1  0.14118996  0.36167359  0.25208686  1
  S  S115  1  0.13505270  0.36116321  0.58184614  1
  S  S116  1  0.14435150  0.35541969  0.91391773  1
  S  S117  1  0.13825066  0.86004038  0.25041319  1
  S  S118  1  0.14985864  0.86093032  0.58420177  1
  S  S119  1  0.13877285  0.86086209  0.91808182  1
  S  S120  1  0.63633849  0.35975990  0.24822953  1
  S  S121  1  0.64015651  0.35675362  0.57849455  1
  S  S122  1  0.63867764  0.35895868  0.91911626  1
  S  S123  1  0.64078618  0.86118058  0.25041514  1
  S  S124  1  0.63911197  0.85938921  0.58230874  1
  S  S125  1  0.63862977  0.86309288  0.91667843  1
  S  S126  1  0.06614578  0.16554183  0.03611320  1
  S  S127  1  0.06249094  0.16348690  0.37493076  1
  S  S128  1  0.06900967  0.16555346  0.70565755  1
  S  S129  1  0.05651074  0.66436135  0.03798058  1
  S  S130  1  0.06643211  0.65848276  0.37357402  1
  S  S131  1  0.07517365  0.67568899  0.70994980  1
  S  S132  1  0.56488147  0.17071535  0.04356016  1
  S  S133  1  0.56572945  0.16521923  0.37343991  1
  S  S134  1  0.57170327  0.17391394  0.71299195  1
  S  S135  1  0.56570132  0.66633428  0.04488485  1
  S  S136  1  0.57049475  0.67257345  0.37604061  1
  S  S137  1  0.55987999  0.67286926  0.70439158  1
  S  S138  1  0.33883514  0.43624824  0.12788634  1
  S  S139  1  0.34474198  0.44084103  0.46077145  1
  S  S140  1  0.32786384  0.43537576  0.79204230  1
  S  S141  1  0.32818370  0.92933235  0.12420323  1
  S  S142  1  0.33400519  0.93730565  0.45881732  1
  S  S143  1  0.33345237  0.93763563  0.79395173  1
  S  S144  1  0.83241564  0.43262185  0.12800861  1
  S  S145  1  0.82361072  0.42741262  0.45686836  1
  S  S146  1  0.83864227  0.43835196  0.78905941  1
  S  S147  1  0.82622740  0.93214149  0.12383974  1
  S  S148  1  0.82415499  0.93251638  0.45542237  1
  S  S149  1  0.82653553  0.92694266  0.78913186  1
  S  S150  1  0.42737541  0.32393206  0.28523309  1
  S  S151  1  0.44645935  0.34011553  0.62905525  1
  S  S152  1  0.42945691  0.33154490  0.95760815  1
  S  S153  1  0.43436753  0.83143125  0.28950298  1
  S  S154  1  0.43457112  0.83184271  0.62645468  1
  S  S155  1  0.43037664  0.83569947  0.95971141  1
  S  S156  1  0.92908919  0.33089581  0.29247041  1
  S  S157  1  0.92605705  0.32953146  0.61992247  1
  S  S158  1  0.94181376  0.32557579  0.96336545  1
  S  S159  1  0.93833580  0.83218631  0.29218363  1
  S  S160  1  0.93278036  0.82678366  0.62352055  1
  S  S161  1  0.92794949  0.83146730  0.95675866  1
  S  S162  1  0.16710363  0.05748744  0.21021530  1
  S  S163  1  0.17772036  0.06988892  0.54517210  1
  S  S164  1  0.17631018  0.06885824  0.87649889  1
  S  S165  1  0.16502959  0.56334152  0.20758286  1
  S  S166  1  0.17110901  0.57053777  0.54498293  1
  S  S167  1  0.17011522  0.56896385  0.86911645  1
  S  S168  1  0.66795064  0.06647215  0.20915713  1
  S  S169  1  0.67074806  0.06924968  0.54347230  1
  S  S170  1  0.66495771  0.06869489  0.87599662  1
  S  S171  1  0.67275394  0.56929529  0.21042863  1
  S  S172  1  0.67130102  0.56526452  0.54076596  1
  S  S173  1  0.66103733  0.56546314  0.87457757  1
  O  O174  1  0.36509793  0.22038322  0.07771991  1
  O  O175  1  0.37565307  0.21519708  0.40648362  1
  O  O176  1  0.37231794  0.22010664  0.73667565  1
  O  O177  1  0.37329898  0.72060563  0.07401503  1
  O  O178  1  0.37231073  0.71931490  0.40423673  1
  O  O179  1  0.35948341  0.72986433  0.75488135  1
  O  O180  1  0.86513362  0.21955634  0.07549077  1
  O  O181  1  0.86702437  0.21558876  0.40185863  1
  O  O182  1  0.85927618  0.21333706  0.74991085  1
  O  O183  1  0.86287255  0.72666426  0.08299799  1
  O  O184  1  0.86506195  0.71501778  0.41058270  1
  O  O185  1  0.87601606  0.71656326  0.73401130  1
  O  O186  1  0.27704547  0.13135321  0.09392758  1
  O  O187  1  0.28670278  0.13007565  0.42692057  1
  O  O188  1  0.28332872  0.13435031  0.75523590  1
  O  O189  1  0.28373544  0.63806519  0.09487318  1
  O  O190  1  0.28531486  0.63004447  0.42336769  1
  O  O191  1  0.27026706  0.62982545  0.75049951  1
  O  O192  1  0.77416816  0.13183779  0.08751944  1
  O  O193  1  0.77800838  0.13246077  0.42175858  1
  O  O194  1  0.77999271  0.11831227  0.76756518  1
  O  O195  1  0.77954534  0.63324216  0.09536965  1
  O  O196  1  0.78170657  0.62571229  0.43091762  1
  O  O197  1  0.78327887  0.63931348  0.75670330  1
  O  O198  1  0.13253079  0.28168319  0.25141523  1
  O  O199  1  0.11802543  0.28652597  0.59654773  1
  O  O200  1  0.13678263  0.27018573  0.90893025  1
  O  O201  1  0.12795797  0.78059327  0.25664581  1
  O  O202  1  0.13447196  0.78206719  0.59019999  1
  O  O203  1  0.12797547  0.78199891  0.92599796  1
  O  O204  1  0.62814521  0.28239512  0.26012065  1
  O  O205  1  0.63926740  0.27535744  0.58425450  1
  O  O206  1  0.62329107  0.28130374  0.93016525  1
  O  O207  1  0.63356582  0.78292743  0.26012879  1
  O  O208  1  0.63209021  0.78032538  0.59089675  1
  O  O209  1  0.63260577  0.78731333  0.92745343  1
  O  O210  1  0.21595601  0.37517346  0.23534620  1
  O  O211  1  0.21063424  0.36139390  0.56993964  1
  O  O212  1  0.22823738  0.36810164  0.91517910  1
  O  O213  1  0.21610066  0.86697537  0.23909668  1
  O  O214  1  0.23485856  0.86848613  0.59047042  1
  O  O215  1  0.21686915  0.86873627  0.90803948  1
  O  O216  1  0.71683192  0.36936926  0.24337038  1
  O  O217  1  0.72099822  0.37079941  0.57238307  1
  O  O218  1  0.71567314  0.36113406  0.90990228  1
  O  O219  1  0.72106088  0.87042967  0.24463809  1
  O  O220  1  0.71692011  0.86955400  0.57192861  1
  O  O221  1  0.71671118  0.87523869  0.90627850  1
  O  O222  1  0.41485407  0.13354008  0.15407811  1
  O  O223  1  0.42489358  0.13166055  0.48639269  1
  O  O224  1  0.42068720  0.13622668  0.81696410  1
  O  O225  1  0.42196445  0.63403229  0.15218491  1
  O  O226  1  0.42331544  0.63416123  0.48053304  1
  O  O227  1  0.40774502  0.63231007  0.81780727  1
  O  O228  1  0.91224127  0.12783641  0.14645774  1
  O  O229  1  0.91551847  0.13258852  0.48326094  1
  O  O230  1  0.91940481  0.12190735  0.81638900  1
  O  O231  1  0.91756723  0.63607954  0.15480529  1
  O  O232  1  0.92087876  0.62866210  0.48553744  1
  O  O233  1  0.92116506  0.63156701  0.81313435  1
  O  O234  1  0.36361727  0.08331160  0.01742485  1
  O  O235  1  0.37356287  0.07641287  0.35154358  1
  O  O236  1  0.37265603  0.08106568  0.68181422  1
  O  O237  1  0.36744945  0.58239349  0.01697445  1
  O  O238  1  0.36977718  0.58158243  0.34444409  1
  O  O239  1  0.36633816  0.59570048  0.68196687  1
  O  O240  1  0.86080883  0.08172021  0.01075149  1
  O  O241  1  0.86451572  0.07773992  0.34687092  1
  O  O242  1  0.85800938  0.07764560  0.68082411  1
  O  O243  1  0.86765625  0.58918338  0.01916700  1
  O  O244  1  0.86467614  0.57709021  0.35056064  1
  O  O245  1  0.86435861  0.57814517  0.67762149  1
  O  O246  1  0.07668583  0.37775122  0.19017458  1
  O  O247  1  0.07346945  0.37208224  0.51674657  1
  O  O248  1  0.09131389  0.37022155  0.84771918  1
  O  O249  1  0.07771795  0.87037407  0.18368732  1
  O  O250  1  0.10176858  0.86999420  0.51361552  1
  O  O251  1  0.07840221  0.87163259  0.85193734  1
  O  O252  1  0.58004022  0.36290836  0.17704013  1
  O  O253  1  0.58252061  0.35872303  0.50677042  1
  O  O254  1  0.57783878  0.37025833  0.85356100  1
  O  O255  1  0.58329659  0.86803194  0.18086912  1
  O  O256  1  0.57833194  0.86627610  0.51494902  1
  O  O257  1  0.57839039  0.87132478  0.84918247  1
  O  O258  1  0.14069314  0.41846365  0.32492818  1
  O  O259  1  0.13406361  0.42445402  0.65267718  1
  O  O260  1  0.13285846  0.40446147  0.98325661  1
  O  O261  1  0.13327684  0.91924883  0.31947425  1
  O  O262  1  0.13686508  0.91975512  0.65034770  1
  O  O263  1  0.13357066  0.91966180  0.98738592  1
  O  O264  1  0.62393900  0.42143334  0.31243998  1
  O  O265  1  0.62725474  0.41294106  0.64267536  1
  O  O266  1  0.63348607  0.41887733  0.98855841  1
  O  O267  1  0.62914641  0.92084869  0.31608759  1
  O  O268  1  0.63291300  0.91809404  0.65144376  1
  O  O269  1  0.62973376  0.92535125  0.98393470  1
  O  O270  1  0.02788140  0.19164249  0.09459195  1
  O  O271  1  0.03195731  0.19924657  0.44157513  1
  O  O272  1  0.02633423  0.18395567  0.76040633  1
  O  O273  1  0.02388754  0.70249894  0.10144689  1
  O  O274  1  0.03347863  0.68859241  0.43493762  1
  O  O275  1  0.03751809  0.70128945  0.77100055  1
  O  O276  1  0.52682326  0.19865766  0.10373205  1
  O  O277  1  0.53306313  0.19501336  0.43569764  1
  O  O278  1  0.53458019  0.20647808  0.77339437  1
  O  O279  1  0.53560727  0.70183478  0.11125881  1
  O  O280  1  0.53554324  0.70267452  0.43730169  1
  O  O281  1  0.52199993  0.70562793  0.76267146  1
  O  O282  1  0.31848979  0.47229964  0.06830992  1
  O  O283  1  0.30568253  0.46836202  0.39355349  1
  O  O284  1  0.29690009  0.47326628  0.73317124  1
  O  O285  1  0.29888687  0.96838091  0.06498284  1
  O  O286  1  0.29827290  0.96933083  0.39498364  1
  O  O287  1  0.30556628  0.97809011  0.73651513  1
  O  O288  1  0.80423976  0.47102005  0.07041017  1
  O  O289  1  0.79218696  0.46423138  0.39588880  1
  O  O290  1  0.80362998  0.46996340  0.72376887  1
  O  O291  1  0.79786750  0.96960388  0.06323433  1
  O  O292  1  0.79127029  0.97155023  0.39522135  1
  O  O293  1  0.79675038  0.95940314  0.72574032  1
  O  O294  1  0.46862659  0.29682372  0.22666042  1
  O  O295  1  0.47671491  0.29979605  0.56360485  1
  O  O296  1  0.46338158  0.30211993  0.89495761  1
  O  O297  1  0.47415615  0.80310148  0.23076865  1
  O  O298  1  0.46926268  0.80248346  0.56410677  1
  O  O299  1  0.46579210  0.81941263  0.89952386  1
  O  O300  1  0.96048849  0.30660471  0.22969716  1
  O  O301  1  0.95078651  0.29877599  0.55137241  1
  O  O302  1  0.97789002  0.29338064  0.90379442  1
  O  O303  1  0.96941918  0.79710186  0.22743937  1
  O  O304  1  0.97272288  0.79849474  0.56718182  1
  O  O305  1  0.96432022  0.80102705  0.89571206  1
  O  O306  1  0.20787439  0.02608988  0.27371525  1
  O  O307  1  0.20889166  0.03159522  0.60524509  1
  O  O308  1  0.20185005  0.03030831  0.93688148  1
  O  O309  1  0.19761948  0.53562258  0.27543211  1
  O  O310  1  0.19117472  0.53127719  0.60381031  1
  O  O311  1  0.19718518  0.53057315  0.92679885  1
  O  O312  1  0.69903160  0.03076927  0.27020614  1
  O  O313  1  0.69677297  0.03189560  0.60359294  1
  O  O314  1  0.69544002  0.03316544  0.93730349  1
  O  O315  1  0.70073522  0.53260661  0.27159474  1
  O  O316  1  0.70359168  0.52679427  0.59883059  1
  O  O317  1  0.68481385  0.53581220  0.94079265  1
  O  O318  1  0.08525491  0.08279530  0.03221638  1
  O  O319  1  0.08903059  0.08543485  0.38008215  1
  O  O320  1  0.09237232  0.08522238  0.69489019  1
  O  O321  1  0.06092668  0.58173655  0.03120253  1
  O  O322  1  0.08112474  0.57419501  0.36569347  1
  O  O323  1  0.10024272  0.59663091  0.70670258  1
  O  O324  1  0.58346169  0.08919879  0.03696714  1
  O  O325  1  0.58146899  0.08157070  0.36617552  1
  O  O326  1  0.58565328  0.09174577  0.71047881  1
  O  O327  1  0.58617506  0.58613541  0.04567692  1
  O  O328  1  0.58868342  0.59097816  0.37031254  1
  O  O329  1  0.57257627  0.59169975  0.69917505  1
  O  O330  1  0.42425734  0.42029690  0.14239863  1
  O  O331  1  0.42758696  0.42492977  0.46108811  1
  O  O332  1  0.41041873  0.41881454  0.79592881  1
  O  O333  1  0.40901172  0.90941339  0.12890457  1
  O  O334  1  0.41502198  0.92054077  0.45750726  1
  O  O335  1  0.41446138  0.91751902  0.79687133  1
  O  O336  1  0.91310249  0.41124206  0.13147814  1
  O  O337  1  0.90438979  0.41075700  0.45963698  1
  O  O338  1  0.91955337  0.42296834  0.79173586  1
  O  O339  1  0.90788394  0.91394886  0.12995846  1
  O  O340  1  0.89976122  0.90936048  0.45216140  1
  O  O341  1  0.90894370  0.91028332  0.79778129  1
  O  O342  1  0.40859090  0.40471431  0.28965575  1
  O  O343  1  0.44159173  0.42198005  0.63348152  1
  O  O344  1  0.41123054  0.41311994  0.96467723  1
  O  O345  1  0.42033603  0.91507316  0.29649752  1
  O  O346  1  0.41368661  0.91271361  0.62938562  1
  O  O347  1  0.41155849  0.91904754  0.97581671  1
  O  O348  1  0.91508582  0.41577948  0.30819554  1
  O  O349  1  0.89432160  0.40717163  0.62111758  1
  O  O350  1  0.92970734  0.40721521  0.96887548  1
  O  O351  1  0.91624394  0.91189652  0.28945946  1
  O  O352  1  0.90906809  0.90540437  0.62425478  1
  O  O353  1  0.91258008  0.91433096  0.96328707  1
  O  O354  1  0.08591802  0.06464047  0.20904406  1
  O  O355  1  0.09556875  0.08442388  0.53984148  1
  O  O356  1  0.09610813  0.08986319  0.87111224  1
  O  O357  1  0.08138880  0.58078393  0.20259516  1
  O  O358  1  0.08956884  0.59185240  0.53409305  1
  O  O359  1  0.08671269  0.58469405  0.86046687  1
  O  O360  1  0.58701503  0.08529836  0.20707768  1
  O  O361  1  0.59075896  0.09245791  0.53847259  1
  O  O362  1  0.58213586  0.08488954  0.86973987  1
  O  O363  1  0.58983596  0.58510512  0.20254828  1
  O  O364  1  0.59210852  0.58528040  0.54257481  1
  O  O365  1  0.57910863  0.58368351  0.86295343  1
  O  O366  1  0.13800833  0.21773194  0.05377507  1
  O  O367  1  0.12750180  0.21592046  0.38131486  1
  O  O368  1  0.13819889  0.22279814  0.72762537  1
  O  O369  1  0.13309984  0.70998649  0.05543321  1
  O  O370  1  0.13750809  0.70514502  0.38303533  1
  O  O371  1  0.14223286  0.73369149  0.72718553  1
  O  O372  1  0.63551485  0.22411210  0.06154328  1
  O  O373  1  0.63765141  0.21462640  0.38604562  1
  O  O374  1  0.64474372  0.22246545  0.72837011  1
  O  O375  1  0.63641973  0.71869269  0.05825078  1
  O  O376  1  0.64112906  0.72425720  0.38988930  1
  O  O377  1  0.63422031  0.72296685  0.72253276  1
  O  O378  1  0.28785049  0.36401521  0.10947784  1
  O  O379  1  0.30187263  0.36712380  0.45117201  1
  O  O380  1  0.27805081  0.36157298  0.77375035  1
  O  O381  1  0.27412854  0.85948776  0.10726816  1
  O  O382  1  0.28673872  0.86744692  0.45089777  1
  O  O383  1  0.27882341  0.86812502  0.77680623  1
  O  O384  1  0.77817871  0.36168639  0.11152066  1
  O  O385  1  0.77151232  0.35526427  0.43894495  1
  O  O386  1  0.78718396  0.36466888  0.77061390  1
  O  O387  1  0.77245266  0.86158111  0.10647051  1
  O  O388  1  0.76745117  0.86388127  0.43916549  1
  O  O389  1  0.77551027  0.85594004  0.77533877  1
  O  O390  1  0.35687376  0.27024408  0.26494303  1
  O  O391  1  0.37276667  0.29483432  0.61691163  1
  O  O392  1  0.35999521  0.27761177  0.94332912  1
  O  O393  1  0.36136695  0.78154622  0.26914904  1
  O  O394  1  0.36742611  0.77821703  0.61530687  1
  O  O395  1  0.35959732  0.78179826  0.94105644  1
  O  O396  1  0.85497650  0.28108201  0.27476908  1
  O  O397  1  0.86217773  0.27220169  0.61289998  1
  O  O398  1  0.86660468  0.27646726  0.94491334  1
  O  O399  1  0.86644966  0.78135515  0.27928735  1
  O  O400  1  0.86273772  0.77218035  0.60805832  1
  O  O401  1  0.85598758  0.78105625  0.94133759  1
  O  O402  1  0.21254615  0.13040688  0.22098803  1
  O  O403  1  0.22818542  0.14213468  0.56327795  1
  O  O404  1  0.23182479  0.13850305  0.89538949  1
  O  O405  1  0.21334550  0.63560101  0.22048029  1
  O  O406  1  0.22695020  0.63915313  0.56489697  1
  O  O407  1  0.22072303  0.64239131  0.88796844  1
  O  O408  1  0.71921882  0.13788101  0.22321223  1
  O  O409  1  0.72694003  0.13670401  0.55796599  1
  O  O410  1  0.71559672  0.14033627  0.89174934  1
  O  O411  1  0.72399506  0.64210052  0.22928002  1
  O  O412  1  0.72318925  0.63621807  0.55520092  1
  O  O413  1  0.71538582  0.63819729  0.89456293  1
  O  O414  1  0.49018449  0.33328109  0.02977913  1
  O  O415  1  0.48546216  0.32366566  0.35721728  1
  O  O416  1  0.50585053  0.33522154  0.69976474  1
  O  O417  1  0.49055027  0.83043634  0.02925138  1
  O  O418  1  0.49076046  0.83118400  0.36262768  1
  O  O419  1  0.49635941  0.84063305  0.69975380  1
  O  O420  1  0.99648583  0.32291832  0.03720181  1
  O  O421  1  0.98816829  0.32537500  0.36185478  1
  O  O422  1  0.99383115  0.34359860  0.68687477  1
  O  O423  1  0.98741985  0.83306090  0.02934455  1
  O  O424  1  0.99999384  0.84014383  0.36243745  1
  O  O425  1  0.98983353  0.83471812  0.69981436  1
  O  O426  1  0.16651430  -0.00152764  0.13712817  1
  O  O427  1  0.17716792  0.01021915  0.47373167  1
  O  O428  1  0.17531940  0.01021279  0.80437080  1
  O  O429  1  0.16290621  0.50093300  0.14006922  1
  O  O430  1  0.17207093  0.51017468  0.47387262  1
  O  O431  1  0.16917564  0.51280299  0.79406546  1
  O  O432  1  0.66415700  0.00741301  0.13627297  1
  O  O433  1  0.66382378  0.00844862  0.46980808  1
  O  O434  1  0.66220615  0.00839028  0.80354174  1
  O  O435  1  0.67468440  0.51084850  0.13942492  1
  O  O436  1  0.66320216  0.50712475  0.46548343  1
  O  O437  1  0.66746168  0.50662742  0.80802640  1
  O  O438  1  -0.00395389  0.14635671  0.30578589  1
  O  O439  1  0.01198347  0.16759471  0.63259538  1
  O  O440  1  0.00953192  0.15811977  0.96057999  1
  O  O441  1  0.00426989  0.65689508  0.30131241  1
  O  O442  1  0.01497500  0.67099586  0.63766217  1
  O  O443  1  0.00152607  0.67168375  0.96658038  1
  O  O444  1  0.50521447  0.16218790  0.30097939  1
  O  O445  1  0.51308187  0.17153806  0.64020715  1
  O  O446  1  0.50592211  0.16934539  0.97114092  1
  O  O447  1  0.50964637  0.66826203  0.30320636  1
  O  O448  1  0.50499235  0.67443949  0.63011736  1
  O  O449  1  0.50310097  0.65969001  0.97575522  1
  O  O450  1  0.33708923  0.49476811  0.19995478  1
  O  O451  1  0.35052658  0.50400799  0.52904334  1
  O  O452  1  0.33153716  0.49175033  0.86655464  1
  O  O453  1  0.33311865  0.98897484  0.19769490  1
  O  O454  1  0.34151344  1.00054834  0.53072850  1
  O  O455  1  0.34038583  0.99447410  0.86981998  1
  O  O456  1  0.83817424  0.48949660  0.20366203  1
  O  O457  1  0.82330594  0.48555768  0.52911148  1
  O  O458  1  0.83787561  0.49535148  0.85880034  1
  O  O459  1  0.82793310  0.99124026  0.19622375  1
  O  O460  1  0.82842746  0.99134234  0.52879298  1
  O  O461  1  0.82723758  0.98918806  0.85980149  1
