# generated using pymatgen
data_Na31Fe20(SO4)36
_symmetry_space_group_name_H-M   'P 1'
_cell_length_a   18.10370293
_cell_length_b   18.10348587
_cell_length_c   19.72643050
_cell_angle_alpha   107.58436286
_cell_angle_beta   107.56824847
_cell_angle_gamma   90.77728933
_symmetry_Int_Tables_number   1
_chemical_formula_structural   Na31Fe20(SO4)36
_chemical_formula_sum   'Na62 Fe40 S72 O288'
_cell_volume   5836.42792565
_cell_formula_units_Z   2
loop_
 _symmetry_equiv_pos_site_id
 _symmetry_equiv_pos_as_xyz
  1  'x, y, z'
loop_
 _atom_site_type_symbol
 _atom_site_label
 _atom_site_symmetry_multiplicity
 _atom_site_fract_x
 _atom_site_fract_y
 _atom_site_fract_z
 _atom_site_occupancy
  Na  Na0  1  0.13819599  0.35926978  0.08144641  1
  Na  Na1  1  0.14257392  0.34826277  0.41149068  1
  Na  Na2  1  0.14395568  0.33839549  0.74103079  1
  Na  Na3  1  0.16824909  0.87096459  0.11377465  1
  Na  Na4  1  0.15476112  0.89515285  0.45105361  1
  Na  Na5  1  0.14506231  0.86832333  0.75212296  1
  Na  Na6  1  0.60597719  0.33920296  0.04873169  1
  Na  Na7  1  0.62869164  0.36872227  0.41413620  1
  Na  Na8  1  0.63317056  0.35109680  0.74511311  1
  Na  Na9  1  0.61771306  0.87780360  0.08273175  1
  Na  Na10  1  0.62202198  0.87766734  0.41688788  1
  Na  Na11  1  0.61915488  0.86630662  0.74051018  1
  Na  Na12  1  0.35757145  0.10989317  0.23446226  1
  Na  Na13  1  0.36487311  0.16428014  0.61348834  1
  Na  Na14  1  0.37323719  0.18178448  0.91043411  1
  Na  Na15  1  0.35807533  0.63273769  0.24118795  1
  Na  Na16  1  0.37030032  0.63856293  0.58312156  1
  Na  Na17  1  0.37069817  0.62708264  0.91442787  1
  Na  Na18  1  0.86753033  0.13457774  0.25050501  1
  Na  Na19  1  0.86974746  0.12654539  0.58243993  1
  Na  Na20  1  0.86980163  0.13126912  0.91643487  1
  Na  Na21  1  0.86657927  0.63714768  0.25367411  1
  Na  Na22  1  0.86682946  0.63216345  0.58498916  1
  Na  Na23  1  0.86664497  0.63487329  0.91828905  1
  Na  Na24  1  1.00942062  -0.00428333  0.07663708  1
  Na  Na25  1  0.48850269  0.53724603  0.42142243  1
  Na  Na26  1  1.00939145  0.48598893  0.43665556  1
  Na  Na27  1  0.48748013  0.51361675  0.07914039  1
  Na  Na28  1  0.99449108  0.50518588  0.08076593  1
  Na  Na29  1  1.01579749  0.49001072  0.72601478  1
  Na  Na30  1  0.98755399  0.01033081  0.42336249  1
  Na  Na31  1  0.51959033  0.45925505  0.81206078  1
  Na  Na32  1  1.01894038  -0.01189155  0.73087048  1
  Na  Na33  1  0.06444016  0.99843318  0.93555802  1
  Na  Na34  1  0.20375230  1.04053240  0.70401618  1
  Na  Na35  1  0.01027533  0.48798288  0.90969393  1
  Na  Na36  1  0.45433050  1.01952509  0.63384800  1
  Na  Na37  1  0.49809042  0.50929281  0.58953569  1
  Na  Na38  1  0.50190797  0.42756850  0.21635234  1
  Na  Na39  1  0.02167727  0.98722927  0.25121173  1
  Na  Na40  1  0.48153069  1.04471961  0.88040181  1
  Na  Na41  1  0.00978092  0.49103308  0.25389880  1
  Na  Na42  1  0.24749222  0.73955063  0.00191849  1
  Na  Na43  1  0.74975484  0.24766755  0.66797541  1
  Na  Na44  1  0.26799396  0.77580957  0.31871426  1
  Na  Na45  1  0.73679459  0.74118165  0.67240219  1
  Na  Na46  1  0.26571473  0.25582420  -0.00379300  1
  Na  Na47  1  0.26249866  0.76832603  0.65693273  1
  Na  Na48  1  0.74135292  0.24542292  0.33911789  1
  Na  Na49  1  0.73978753  0.74431022  0.34188964  1
  Na  Na50  1  0.74463371  0.74793683  0.00601163  1
  Na  Na51  1  0.73832133  0.23982356  0.00354502  1
  Na  Na52  1  0.26082803  0.76579963  0.49191036  1
  Na  Na53  1  0.74077201  0.24117793  0.16925624  1
  Na  Na54  1  0.73247090  0.73858439  0.50706786  1
  Na  Na55  1  0.74327191  0.74425899  0.83374947  1
  Na  Na56  1  0.25079092  0.75271698  0.83319517  1
  Na  Na57  1  0.72144620  0.23115619  0.83795386  1
  Na  Na58  1  0.74452480  0.24178785  0.50395620  1
  Na  Na59  1  0.24254684  0.22880006  0.17842325  1
  Na  Na60  1  0.25496398  0.24602099  0.50098067  1
  Na  Na61  1  0.74251807  0.74336398  0.17267961  1
  Fe  Fe62  1  0.96339997  0.30863676  0.45122789  1
  Fe  Fe63  1  0.46336906  0.81204919  0.79042899  1
  Fe  Fe64  1  0.45837361  0.81634121  0.12881525  1
  Fe  Fe65  1  0.46962594  0.80001778  0.45873561  1
  Fe  Fe66  1  0.96217731  0.30856858  0.11571927  1
  Fe  Fe67  1  0.45965767  0.31261985  0.45256502  1
  Fe  Fe68  1  0.96383650  0.30090206  0.78010412  1
  Fe  Fe69  1  0.96595890  0.80571225  0.12041725  1
  Fe  Fe70  1  0.96255084  0.80927659  0.45402239  1
  Fe  Fe71  1  0.96726659  0.80782506  0.78705258  1
  Fe  Fe72  1  0.68691484  0.03459428  0.03907813  1
  Fe  Fe73  1  0.69002225  0.53361446  0.37879265  1
  Fe  Fe74  1  0.22206156  0.02266127  0.37631114  1
  Fe  Fe75  1  0.18819360  0.53851177  0.04929547  1
  Fe  Fe76  1  0.68975315  0.03212760  0.70759717  1
  Fe  Fe77  1  0.69388153  0.53228768  0.71258143  1
  Fe  Fe78  1  0.19143976  0.53680831  0.71359218  1
  Fe  Fe79  1  0.68321251  0.03648210  0.37230935  1
  Fe  Fe80  1  0.69268981  0.53322760  0.04426013  1
  Fe  Fe81  1  0.19092678  0.53547559  0.38358644  1
  Fe  Fe82  1  0.53242768  0.69191122  0.87961343  1
  Fe  Fe83  1  0.03271192  0.19470523  0.21470851  1
  Fe  Fe84  1  0.03246711  0.69151233  0.54883307  1
  Fe  Fe85  1  0.53037515  0.19463745  0.54436307  1
  Fe  Fe86  1  0.03396614  0.69154531  0.88129746  1
  Fe  Fe87  1  0.53335830  0.69135385  0.21244201  1
  Fe  Fe88  1  0.03679312  0.19395400  0.54917138  1
  Fe  Fe89  1  0.03936634  0.18814947  0.87826468  1
  Fe  Fe90  1  0.52834070  0.19748685  0.20684128  1
  Fe  Fe91  1  0.03395115  0.69303656  0.21953528  1
  Fe  Fe92  1  0.80757076  0.46594807  0.28532621  1
  Fe  Fe93  1  0.80674183  0.96572134  0.61652504  1
  Fe  Fe94  1  0.80862734  0.46425010  0.61722236  1
  Fe  Fe95  1  0.30947672  0.46373334  0.62034955  1
  Fe  Fe96  1  0.80963620  0.46512883  0.94968562  1
  Fe  Fe97  1  0.80892342  0.96280706  0.95003194  1
  Fe  Fe98  1  0.30304105  0.46206735  0.94443676  1
  Fe  Fe99  1  0.30345815  0.97262457  0.96372836  1
  Fe  Fe100  1  0.30474284  0.46366828  0.28346654  1
  Fe  Fe101  1  0.80406475  0.96585707  0.28256945  1
  S  S102  1  0.35911342  0.14260243  0.08343473  1
  S  S103  1  0.36261675  0.14794981  0.41709073  1
  S  S104  1  0.37024312  0.14162863  0.75481320  1
  S  S105  1  0.35749783  0.63870762  0.08181373  1
  S  S106  1  0.35246236  0.63853525  0.41274741  1
  S  S107  1  0.35951971  0.64063272  0.74864949  1
  S  S108  1  0.85890635  0.13981732  0.08147454  1
  S  S109  1  0.85678315  0.13999616  0.41357318  1
  S  S110  1  0.86039868  0.13708595  0.75113337  1
  S  S111  1  0.86218246  0.63821035  0.08332047  1
  S  S112  1  0.85757556  0.64020512  0.41743598  1
  S  S113  1  0.86060607  0.64036381  0.74942326  1
  S  S114  1  0.13763995  0.36131654  0.25047615  1
  S  S115  1  0.13485195  0.36485992  0.58134048  1
  S  S116  1  0.13359817  0.36166187  0.91463566  1
  S  S117  1  0.13756079  0.85689007  0.25487553  1
  S  S118  1  0.13382113  0.85542879  0.58403823  1
  S  S119  1  0.14081807  0.85464446  0.91941446  1
  S  S120  1  0.64806518  0.35714044  0.24961008  1
  S  S121  1  0.64300158  0.35954149  0.58109560  1
  S  S122  1  0.64791596  0.36225510  0.91553825  1
  S  S123  1  0.64136586  0.85823966  0.24769151  1
  S  S124  1  0.64542484  0.85758352  0.58036803  1
  S  S125  1  0.64245065  0.85648515  0.91723841  1
  S  S126  1  0.06147879  0.17280991  0.04575586  1
  S  S127  1  0.05429727  0.16847351  0.37512351  1
  S  S128  1  0.05984668  0.16319516  0.70413255  1
  S  S129  1  0.06495210  0.66913119  0.04150238  1
  S  S130  1  0.06327573  0.66691633  0.37868565  1
  S  S131  1  0.06522192  0.67114415  0.71116565  1
  S  S132  1  0.56939490  0.16651634  0.04138684  1
  S  S133  1  0.56910724  0.18022464  0.37587044  1
  S  S134  1  0.57918395  0.16834717  0.70297776  1
  S  S135  1  0.57035859  0.67122811  0.04412476  1
  S  S136  1  0.56390378  0.66260867  0.37081394  1
  S  S137  1  0.56740681  0.66716569  0.71147123  1
  S  S138  1  0.31899313  0.44042972  0.12069711  1
  S  S139  1  0.32782020  0.43787233  0.45827562  1
  S  S140  1  0.31990450  0.43714522  0.78479695  1
  S  S141  1  0.32973949  0.92850220  0.12212182  1
  S  S142  1  0.33689569  0.93127115  0.45892998  1
  S  S143  1  0.32602311  0.92410407  0.79849596  1
  S  S144  1  0.83456534  0.43515069  0.12549494  1
  S  S145  1  0.83006208  0.43439967  0.45604159  1
  S  S146  1  0.83452896  0.43360544  0.78869089  1
  S  S147  1  0.83345142  0.93294976  0.12343586  1
  S  S148  1  0.82728768  0.93287121  0.45214744  1
  S  S149  1  0.83353807  0.92988654  0.79009781  1
  S  S150  1  0.43264299  0.33328805  0.29191736  1
  S  S151  1  0.44063504  0.34399839  0.62475052  1
  S  S152  1  0.43472640  0.35619847  0.97151652  1
  S  S153  1  0.43612227  0.82214236  0.29135568  1
  S  S154  1  0.43115153  0.82469477  0.62268335  1
  S  S155  1  0.42472544  0.82363093  0.95757693  1
  S  S156  1  0.93409146  0.33498323  0.29073738  1
  S  S157  1  0.93028028  0.32707953  0.62123486  1
  S  S158  1  0.93284560  0.33139696  0.95587336  1
  S  S159  1  0.92839071  0.82953308  0.29063956  1
  S  S160  1  0.92715686  0.82594965  0.62206097  1
  S  S161  1  0.93271577  0.82757314  0.95747914  1
  S  S162  1  0.15338848  0.06309349  0.21037687  1
  S  S163  1  0.17320674  0.07942416  0.53281337  1
  S  S164  1  0.17236525  0.06542424  0.87662859  1
  S  S165  1  0.15908387  0.56436261  0.20783398  1
  S  S166  1  0.17022064  0.56974324  0.54393267  1
  S  S167  1  0.16060212  0.56340732  0.87159803  1
  S  S168  1  0.67300489  0.07395490  0.20973995  1
  S  S169  1  0.67470525  0.07347564  0.54060943  1
  S  S170  1  0.67584590  0.06315039  0.87548587  1
  S  S171  1  0.67359090  0.56740323  0.20852034  1
  S  S172  1  0.66933575  0.56029595  0.54275557  1
  S  S173  1  0.67616341  0.57056952  0.87722020  1
  O  O174  1  0.37182592  0.21509648  0.06860521  1
  O  O175  1  0.36315657  0.23201903  0.42127892  1
  O  O176  1  0.38887118  0.21726192  0.74577506  1
  O  O177  1  0.37110752  0.71794107  0.07745880  1
  O  O178  1  0.36411797  0.71903955  0.40949576  1
  O  O179  1  0.37133065  0.71897527  0.74066094  1
  O  O180  1  0.86594556  0.21818326  0.07125277  1
  O  O181  1  0.86613082  0.21875784  0.40509949  1
  O  O182  1  0.86694086  0.21568780  0.74107760  1
  O  O183  1  0.87100628  0.71571931  0.07210070  1
  O  O184  1  0.86694289  0.71882045  0.40876535  1
  O  O185  1  0.86935169  0.71875113  0.74025348  1
  O  O186  1  0.28535832  0.13360425  0.09801424  1
  O  O187  1  0.28140913  0.12677410  0.42015845  1
  O  O188  1  0.29526894  0.14303851  0.77179517  1
  O  O189  1  0.28039139  0.63151514  0.09332683  1
  O  O190  1  0.27146429  0.63093343  0.41799666  1
  O  O191  1  0.28079365  0.63442005  0.75817755  1
  O  O192  1  0.77861469  0.12876782  0.08596126  1
  O  O193  1  0.77666090  0.13169170  0.41881643  1
  O  O194  1  0.78283825  0.12641370  0.76071407  1
  O  O195  1  0.78321470  0.63069236  0.09142866  1
  O  O196  1  0.77820354  0.63213945  0.42528232  1
  O  O197  1  0.77992611  0.63132402  0.75414150  1
  O  O198  1  0.12685433  0.28314019  0.25820139  1
  O  O199  1  0.12388235  0.28853190  0.59265084  1
  O  O200  1  0.12658501  0.28437688  0.92658478  1
  O  O201  1  0.12204198  0.78012598  0.26559297  1
  O  O202  1  0.12271551  0.77639326  0.59454579  1
  O  O203  1  0.13297601  0.77092488  0.91694950  1
  O  O204  1  0.63452028  0.27904098  0.25852162  1
  O  O205  1  0.63284719  0.27829489  0.58298572  1
  O  O206  1  0.64427416  0.28635080  0.92730174  1
  O  O207  1  0.63703853  0.77823735  0.25478370  1
  O  O208  1  0.64378307  0.77953928  0.58752230  1
  O  O209  1  0.63214014  0.77759009  0.92557509  1
  O  O210  1  0.21571309  0.36935595  0.24109648  1
  O  O211  1  0.21320889  0.37249937  0.57179333  1
  O  O212  1  0.21047121  0.37296226  0.90596621  1
  O  O213  1  0.21032508  0.85893084  0.23846989  1
  O  O214  1  0.21034298  0.86048320  0.57352096  1
  O  O215  1  0.22069079  0.86881609  0.91451062  1
  O  O216  1  0.73238413  0.36541841  0.25402642  1
  O  O217  1  0.72225876  0.36761095  0.57235234  1
  O  O218  1  0.72820417  0.37431057  0.90684400  1
  O  O219  1  0.71928341  0.87004540  0.23713796  1
  O  O220  1  0.72217894  0.87392113  0.56828238  1
  O  O221  1  0.72206778  0.86339622  0.90971896  1
  O  O222  1  0.42330826  0.13761186  0.15237664  1
  O  O223  1  0.41823779  0.14071576  0.48759958  1
  O  O224  1  0.43032275  0.12607018  0.81776408  1
  O  O225  1  0.41930625  0.62394755  0.14503036  1
  O  O226  1  0.40916470  0.62335304  0.47631744  1
  O  O227  1  0.41837483  0.63210521  0.81659771  1
  O  O228  1  0.91530912  0.13653649  0.15254002  1
  O  O229  1  0.91446080  0.13122422  0.48158858  1
  O  O230  1  0.92120062  0.13188935  0.81902245  1
  O  O231  1  0.92091307  0.63122048  0.15192000  1
  O  O232  1  0.91589999  0.63116347  0.48501219  1
  O  O233  1  0.91663595  0.63462013  0.81975713  1
  O  O234  1  0.36507681  0.07565731  0.01748913  1
  O  O235  1  0.37481538  0.09857401  0.34977204  1
  O  O236  1  0.36436936  0.07951527  0.68292885  1
  O  O237  1  0.35960286  0.58130918  0.01024011  1
  O  O238  1  0.35768381  0.58179381  0.34112950  1
  O  O239  1  0.36520119  0.58134152  0.68025800  1
  O  O240  1  0.87177851  0.07980235  0.01677341  1
  O  O241  1  0.86630822  0.08035305  0.34630018  1
  O  O242  1  0.86823974  0.07791813  0.68304695  1
  O  O243  1  0.87210521  0.57760913  0.01687601  1
  O  O244  1  0.86451554  0.58139996  0.34885406  1
  O  O245  1  0.87160038  0.58042920  0.68364500  1
  O  O246  1  0.07791956  0.37235252  0.18383653  1
  O  O247  1  0.07646157  0.37083872  0.51103232  1
  O  O248  1  0.07294766  0.36669146  0.84528008  1
  O  O249  1  0.07204204  0.86964616  0.19228450  1
  O  O250  1  0.07364714  0.85957769  0.51344958  1
  O  O251  1  0.08330972  0.86532952  0.85025443  1
  O  O252  1  0.59839277  0.36400345  0.17904506  1
  O  O253  1  0.58399611  0.37433386  0.51739178  1
  O  O254  1  0.59034704  0.36877163  0.84833953  1
  O  O255  1  0.58075674  0.86468643  0.18090545  1
  O  O256  1  0.58350337  0.86390381  0.51399096  1
  O  O257  1  0.58419621  0.86430766  0.84949096  1
  O  O258  1  0.13017444  0.42050273  0.31946917  1
  O  O259  1  0.12484606  0.42601916  0.64699426  1
  O  O260  1  0.12095377  0.42229526  0.98014964  1
  O  O261  1  0.13864172  0.91891121  0.32620013  1
  O  O262  1  0.12479531  0.91512797  0.64943197  1
  O  O263  1  0.12803349  0.90640208  0.98662205  1
  O  O264  1  0.63387477  0.41708289  0.31480707  1
  O  O265  1  0.64075004  0.41471224  0.65367203  1
  O  O266  1  0.64199872  0.42297128  0.98457355  1
  O  O267  1  0.63638086  0.91600269  0.31725955  1
  O  O268  1  0.63988309  0.91600590  0.65005794  1
  O  O269  1  0.63727909  0.91529857  0.98633456  1
  O  O270  1  0.02383194  0.20944732  0.10584017  1
  O  O271  1  0.02245451  0.20720044  0.43897068  1
  O  O272  1  0.02634043  0.20045239  0.76828410  1
  O  O273  1  0.03234569  0.70061961  0.10496234  1
  O  O274  1  0.02470439  0.69584289  0.43778112  1
  O  O275  1  0.02651805  0.69999065  0.77082990  1
  O  O276  1  0.55093076  0.19055207  0.11277062  1
  O  O277  1  0.52842489  0.20772185  0.43351315  1
  O  O278  1  0.56553330  0.19496845  0.77417329  1
  O  O279  1  0.53234615  0.69922961  0.10320420  1
  O  O280  1  0.52660399  0.69153558  0.42914465  1
  O  O281  1  0.53623826  0.69878588  0.77634323  1
  O  O282  1  0.28159168  0.47232335  0.05687088  1
  O  O283  1  0.29568950  0.47080731  0.39438258  1
  O  O284  1  0.28603692  0.47322759  0.72120272  1
  O  O285  1  0.30634811  0.96275015  0.05876086  1
  O  O286  1  0.30875728  0.96168052  0.39141980  1
  O  O287  1  0.29706254  0.95627517  0.73822933  1
  O  O288  1  0.80444786  0.47046659  0.06443661  1
  O  O289  1  0.79946897  0.47316889  0.39711555  1
  O  O290  1  0.80383508  0.47079902  0.72855587  1
  O  O291  1  0.80406106  0.96732420  0.06158935  1
  O  O292  1  0.79753799  0.97186666  0.39309024  1
  O  O293  1  0.80257592  0.96489339  0.72873775  1
  O  O294  1  0.47560031  0.30619788  0.23651914  1
  O  O295  1  0.47614928  0.30893119  0.56252001  1
  O  O296  1  0.46939344  0.31488004  0.91575879  1
  O  O297  1  0.47654686  0.78987735  0.23043082  1
  O  O298  1  0.47186030  0.79738281  0.56602791  1
  O  O299  1  0.46728830  0.79957532  0.89992112  1
  O  O300  1  0.96727842  0.30392899  0.22791487  1
  O  O301  1  0.96210515  0.29544338  0.55779322  1
  O  O302  1  0.96621855  0.29850004  0.89398241  1
  O  O303  1  0.95948180  0.79487009  0.22657747  1
  O  O304  1  0.96062250  0.79433805  0.55955381  1
  O  O305  1  0.96937920  0.79781666  0.89673028  1
  O  O306  1  0.17409562  0.03556855  0.27818160  1
  O  O307  1  0.19142231  0.03221280  0.58195380  1
  O  O308  1  0.19951385  0.02599933  0.93592276  1
  O  O309  1  0.18968900  0.52703680  0.26731181  1
  O  O310  1  0.20220991  0.53526758  0.60523526  1
  O  O311  1  0.19205539  0.53139402  0.93482809  1
  O  O312  1  0.70126153  0.03226365  0.26773760  1
  O  O313  1  0.70366534  0.03460611  0.60004354  1
  O  O314  1  0.70875935  0.02211657  0.93422732  1
  O  O315  1  0.70083244  0.53045651  0.26969526  1
  O  O316  1  0.70692878  0.52596252  0.60487760  1
  O  O317  1  0.70916061  0.53808609  0.94050250  1
  O  O318  1  0.06880423  0.09137798  0.04315996  1
  O  O319  1  0.04965750  0.08404486  0.36328534  1
  O  O320  1  0.06521604  0.08097833  0.69725002  1
  O  O321  1  0.07786698  0.58510819  0.03541869  1
  O  O322  1  0.07895955  0.58385664  0.37293223  1
  O  O323  1  0.08591699  0.59119593  0.70936173  1
  O  O324  1  0.58641262  0.08275703  0.02407309  1
  O  O325  1  0.58992952  0.10063760  0.37183862  1
  O  O326  1  0.58958286  0.08204319  0.68192982  1
  O  O327  1  0.59178354  0.59148536  0.04198142  1
  O  O328  1  0.58358471  0.58102265  0.36952157  1
  O  O329  1  0.59658471  0.58986738  0.71369180  1
  O  O330  1  0.40148573  0.43977158  0.12856021  1
  O  O331  1  0.41081865  0.42462379  0.46384062  1
  O  O332  1  0.39910117  0.42476739  0.78715290  1
  O  O333  1  0.41461996  0.91829013  0.13791112  1
  O  O334  1  0.41212240  0.90059647  0.45868060  1
  O  O335  1  0.41130700  0.91276461  0.81280321  1
  O  O336  1  0.91831912  0.42104471  0.13064026  1
  O  O337  1  0.90986312  0.41419105  0.45599990  1
  O  O338  1  0.91549701  0.41408609  0.79123198  1
  O  O339  1  0.91654978  0.91687117  0.13058574  1
  O  O340  1  0.90754621  0.91352789  0.45297681  1
  O  O341  1  0.91539711  0.91282935  0.79465893  1
  O  O342  1  0.41383637  0.41512575  0.29277987  1
  O  O343  1  0.41850133  0.42308183  0.61971992  1
  O  O344  1  0.41165213  0.43471656  0.96082833  1
  O  O345  1  0.42026042  0.89996913  0.29331164  1
  O  O346  1  0.41074449  0.90339071  0.63122531  1
  O  O347  1  0.39738006  0.90048226  0.95980747  1
  O  O348  1  0.91766907  0.41748590  0.29534479  1
  O  O349  1  0.91118317  0.40811343  0.62511497  1
  O  O350  1  0.91850502  0.41456644  0.95944659  1
  O  O351  1  0.91336976  0.91186639  0.29426825  1
  O  O352  1  0.90957747  0.90715238  0.62683581  1
  O  O353  1  0.91542704  0.90941292  0.96259066  1
  O  O354  1  0.07104816  0.08725525  0.20325402  1
  O  O355  1  0.08876010  0.09588021  0.51974248  1
  O  O356  1  0.09084511  0.08661408  0.87823575  1
  O  O357  1  0.07609434  0.58022656  0.20529125  1
  O  O358  1  0.08900746  0.58810408  0.54089570  1
  O  O359  1  0.07779712  0.58012387  0.86800080  1
  O  O360  1  0.59753211  0.10060518  0.21235214  1
  O  O361  1  0.59727876  0.09784486  0.53740492  1
  O  O362  1  0.59957448  0.08320423  0.87704819  1
  O  O363  1  0.59218909  0.58617935  0.20064719  1
  O  O364  1  0.58791396  0.56818220  0.53877520  1
  O  O365  1  0.59524110  0.58762185  0.87309098  1
  O  O366  1  0.13645081  0.21990410  0.06487821  1
  O  O367  1  0.13290335  0.20733277  0.39326499  1
  O  O368  1  0.13362463  0.20750776  0.71826465  1
  O  O369  1  0.13632920  0.71603732  0.05260408  1
  O  O370  1  0.13398808  0.71745687  0.39440743  1
  O  O371  1  0.13492769  0.72439730  0.72765631  1
  O  O372  1  0.64199370  0.21719378  0.05460961  1
  O  O373  1  0.64126185  0.23483716  0.39778316  1
  O  O374  1  0.65170944  0.21367920  0.70703634  1
  O  O375  1  0.64061005  0.72570645  0.06065990  1
  O  O376  1  0.63638403  0.71357869  0.38647397  1
  O  O377  1  0.63430908  0.72344755  0.72263177  1
  O  O378  1  0.27638765  0.36370502  0.10481817  1
  O  O379  1  0.27890458  0.36685590  0.44557053  1
  O  O380  1  0.26994518  0.36693336  0.77037907  1
  O  O381  1  0.28383178  0.85111200  0.09614819  1
  O  O382  1  0.27658926  0.86546612  0.44348421  1
  O  O383  1  0.27991469  0.84775113  0.78204696  1
  O  O384  1  0.78720699  0.36265394  0.11223441  1
  O  O385  1  0.77795114  0.36390661  0.44101196  1
  O  O386  1  0.78245703  0.36360881  0.77392976  1
  O  O387  1  0.78350209  0.86107074  0.10907892  1
  O  O388  1  0.77441859  0.86248990  0.43590358  1
  O  O389  1  0.78260370  0.85869811  0.77657222  1
  O  O390  1  0.36261572  0.28110657  0.27485967  1
  O  O391  1  0.36975532  0.29374506  0.61084489  1
  O  O392  1  0.36223650  0.31222992  0.96653945  1
  O  O393  1  0.36684341  0.76557170  0.27094030  1
  O  O394  1  0.35985395  0.76847873  0.60140146  1
  O  O395  1  0.35845938  0.76314166  0.93736361  1
  O  O396  1  0.86411349  0.28409269  0.27853762  1
  O  O397  1  0.86079942  0.27582415  0.61074976  1
  O  O398  1  0.86135450  0.28321989  0.94463796  1
  O  O399  1  0.85610550  0.78075714  0.27810107  1
  O  O400  1  0.85711610  0.77395170  0.60921425  1
  O  O401  1  0.86106798  0.77588043  0.94053001  1
  O  O402  1  0.20831198  0.12861692  0.22157881  1
  O  O403  1  0.22461590  0.15197440  0.55622518  1
  O  O404  1  0.22373688  0.13594930  0.89345088  1
  O  O405  1  0.20786587  0.63575815  0.22171206  1
  O  O406  1  0.22114829  0.63916963  0.55463539  1
  O  O407  1  0.21024089  0.63406707  0.88304841  1
  O  O408  1  0.73236519  0.14114638  0.22807052  1
  O  O409  1  0.73305250  0.14116872  0.55797067  1
  O  O410  1  0.73268033  0.13286277  0.89508174  1
  O  O411  1  0.72712288  0.63941828  0.22875329  1
  O  O412  1  0.71720872  0.63476610  0.55964754  1
  O  O413  1  0.72733594  0.64213468  0.89129122  1
  O  O414  1  0.49249949  0.37955114  0.04862105  1
  O  O415  1  0.48881180  0.34179272  0.36851378  1
  O  O416  1  0.50126630  0.35525784  0.69657848  1
  O  O417  1  0.48277282  0.82799862  0.03112860  1
  O  O418  1  0.49403645  0.81814953  0.36300255  1
  O  O419  1  0.48625073  0.82118630  0.69685018  1
  O  O420  1  0.99319581  0.33775812  0.02959285  1
  O  O421  1  0.99528807  0.34122724  0.36362811  1
  O  O422  1  0.99289530  0.33341736  0.69315729  1
  O  O423  1  0.99120467  0.83064114  0.03039007  1
  O  O424  1  0.98919592  0.83174147  0.36153545  1
  O  O425  1  0.98923788  0.83029099  0.69413221  1
  O  O426  1  0.14315210  -0.00354438  0.14278098  1
  O  O427  1  0.17456193  0.02754874  0.45520776  1
  O  O428  1  0.15973478  0.00747194  0.80192557  1
  O  O429  1  0.15081161  0.50571388  0.13265054  1
  O  O430  1  0.16221360  0.50724488  0.47053055  1
  O  O431  1  0.15354564  0.50250037  0.79860725  1
  O  O432  1  0.66770810  0.01578672  0.13596420  1
  O  O433  1  0.67087651  0.01430308  0.46732683  1
  O  O434  1  0.67362251  0.00663099  0.80134222  1
  O  O435  1  0.67515380  0.50939413  0.13778764  1
  O  O436  1  0.67293332  0.50426156  0.47049549  1
  O  O437  1  0.67518415  0.50897097  0.80682086  1
  O  O438  1  0.00044557  0.18153234  0.30617235  1
  O  O439  1  0.00078328  0.16926085  0.63349853  1
  O  O440  1  0.00729832  0.17516886  0.97226177  1
  O  O441  1  0.00356841  0.66351976  0.30536985  1
  O  O442  1  0.00579635  0.66607151  0.63812636  1
  O  O443  1  0.00316728  0.66600733  0.96976063  1
  O  O444  1  0.51481659  0.18060688  0.30241941  1
  O  O445  1  0.51267894  0.17629137  0.63865074  1
  O  O446  1  0.50469832  0.17308546  0.97942062  1
  O  O447  1  0.50808988  0.65530363  0.29519632  1
  O  O448  1  0.50479236  0.65251953  0.64051519  1
  O  O449  1  0.51275571  0.66650598  0.97002994  1
  O  O450  1  0.31029920  0.49589342  0.19139672  1
  O  O451  1  0.32886454  0.49927913  0.52925238  1
  O  O452  1  0.31679771  0.49901842  0.85474860  1
  O  O453  1  0.31451600  0.98176708  0.18656204  1
  O  O454  1  0.34436893  0.99565811  0.52696915  1
  O  O455  1  0.32128070  0.98004072  0.87124877  1
  O  O456  1  0.83796652  0.49483980  0.19847454  1
  O  O457  1  0.83632677  0.49264544  0.53011416  1
  O  O458  1  0.84097960  0.49378375  0.86229104  1
  O  O459  1  0.83423273  0.99264308  0.19529584  1
  O  O460  1  0.83272392  0.99035944  0.52632289  1
  O  O461  1  0.83679250  0.98942839  0.86292646  1
