# generated using pymatgen
data_Na31Fe20(SO4)36
_symmetry_space_group_name_H-M   'P 1'
_cell_length_a   18.07267911
_cell_length_b   18.07739593
_cell_length_c   19.72463992
_cell_angle_alpha   107.58300315
_cell_angle_beta   107.57598331
_cell_angle_gamma   90.70050914
_symmetry_Int_Tables_number   1
_chemical_formula_structural   Na31Fe20(SO4)36
_chemical_formula_sum   'Na62 Fe40 S72 O288'
_cell_volume   5818.26546640
_cell_formula_units_Z   2
loop_
 _symmetry_equiv_pos_site_id
 _symmetry_equiv_pos_as_xyz
  1  'x, y, z'
loop_
 _atom_site_type_symbol
 _atom_site_label
 _atom_site_symmetry_multiplicity
 _atom_site_fract_x
 _atom_site_fract_y
 _atom_site_fract_z
 _atom_site_occupancy
  Na  Na0  1  0.13277358  0.36585630  0.08127431  1
  Na  Na1  1  0.13487695  0.36244324  0.41535512  1
  Na  Na2  1  0.13316106  0.37598476  0.75122172  1
  Na  Na3  1  0.12557094  0.86118216  0.08432593  1
  Na  Na4  1  0.13906892  0.86528695  0.42489055  1
  Na  Na5  1  0.13327385  0.86970115  0.74988039  1
  Na  Na6  1  0.63276406  0.35129387  0.07950281  1
  Na  Na7  1  0.63812607  0.35812424  0.42201594  1
  Na  Na8  1  0.62852419  0.35977762  0.73986186  1
  Na  Na9  1  0.65262576  0.86654784  0.08224979  1
  Na  Na10  1  0.63074538  0.87257090  0.41805690  1
  Na  Na11  1  0.62961334  0.87991404  0.74961511  1
  Na  Na12  1  0.36075718  0.13618375  0.24797956  1
  Na  Na13  1  0.38870523  0.12413679  0.58369653  1
  Na  Na14  1  0.36985101  0.14124669  0.92514220  1
  Na  Na15  1  0.37105847  0.62953794  0.25196363  1
  Na  Na16  1  0.35752742  0.62915950  0.57754914  1
  Na  Na17  1  0.36408855  0.63011490  0.91918078  1
  Na  Na18  1  0.86892683  0.13572711  0.23849150  1
  Na  Na19  1  0.85275719  0.14251353  0.58007179  1
  Na  Na20  1  0.86301725  0.14229799  0.92429624  1
  Na  Na21  1  0.86398717  0.63153449  0.24523454  1
  Na  Na22  1  0.87339537  0.62825827  0.58722086  1
  Na  Na23  1  0.86694765  0.64905283  0.93590297  1
  Na  Na24  1  0.44370932  0.50364213  0.73567063  1
  Na  Na25  1  0.52327799  -0.00306863  0.07305127  1
  Na  Na26  1  0.99813839  0.51697132  0.07930947  1
  Na  Na27  1  0.98290086  0.02230566  0.09551212  1
  Na  Na28  1  0.97309399  0.01043168  0.75434961  1
  Na  Na29  1  0.50095160  0.50143330  0.40116558  1
  Na  Na30  1  0.46435291  0.48942393  0.08228011  1
  Na  Na31  1  0.99083635  0.49671430  0.43878602  1
  Na  Na32  1  0.98838679  0.01670139  0.41248184  1
  Na  Na33  1  0.00572876  0.47854621  0.25561359  1
  Na  Na34  1  0.49589354  0.99803491  0.26205891  1
  Na  Na35  1  -0.00257599  0.99320465  0.92867601  1
  Na  Na36  1  0.50327452  0.48738965  0.91796409  1
  Na  Na37  1  0.54327595  0.99768723  0.90550448  1
  Na  Na38  1  0.02160264  0.49682804  0.89142605  1
  Na  Na39  1  0.01721485  0.96743974  0.24227309  1
  Na  Na40  1  0.50265270  0.48141742  0.58155584  1
  Na  Na41  1  0.00332757  0.99672085  0.58589805  1
  Na  Na42  1  0.74147186  0.24115747  0.33728972  1
  Na  Na43  1  0.24465631  0.74301217  0.00598636  1
  Na  Na44  1  0.75496253  0.75456758  0.32846899  1
  Na  Na45  1  0.25639422  0.75714208  0.65521289  1
  Na  Na46  1  0.24243333  0.74036842  0.34968698  1
  Na  Na47  1  0.24244163  0.24450799  0.32794540  1
  Na  Na48  1  0.74249166  0.74650357  0.67273425  1
  Na  Na49  1  0.26136501  0.26696840  0.65822897  1
  Na  Na50  1  0.71828501  0.22179349  0.66143550  1
  Na  Na51  1  0.26890821  0.27143947  -0.00514080  1
  Na  Na52  1  0.74266058  0.74588627  0.84995270  1
  Na  Na53  1  0.25998074  0.25969482  0.49511894  1
  Na  Na54  1  0.24802858  0.74399716  0.17279659  1
  Na  Na55  1  0.25991013  0.26059371  0.15776981  1
  Na  Na56  1  0.74673635  0.24373594  0.15995128  1
  Na  Na57  1  0.25099957  0.75087204  0.83246614  1
  Na  Na58  1  0.73771919  0.23472221  0.84110868  1
  Na  Na59  1  0.77374503  0.75836584  0.14510689  1
  Na  Na60  1  0.74615770  0.74481045  0.50200821  1
  Na  Na61  1  0.26628279  0.27115834  0.82956935  1
  Fe  Fe62  1  0.96328270  0.80808300  0.45285666  1
  Fe  Fe63  1  0.96429490  0.30705261  0.78216013  1
  Fe  Fe64  1  0.46518467  0.30698753  0.78256124  1
  Fe  Fe65  1  0.46519397  0.81293227  0.45657763  1
  Fe  Fe66  1  0.96618996  0.30565081  0.45396972  1
  Fe  Fe67  1  0.96256650  0.80809772  0.78588341  1
  Fe  Fe68  1  0.46852323  0.29843158  0.45586614  1
  Fe  Fe69  1  0.46901946  0.80430222  0.11798830  1
  Fe  Fe70  1  0.46613689  0.80890195  0.78533824  1
  Fe  Fe71  1  0.96993425  0.29937010  0.11932770  1
  Fe  Fe72  1  0.19518835  0.53732682  0.38355037  1
  Fe  Fe73  1  0.19501618  0.03867981  0.71918199  1
  Fe  Fe74  1  0.19095068  0.03193311  0.05187415  1
  Fe  Fe75  1  0.69391821  0.53528587  0.71767397  1
  Fe  Fe76  1  0.69144061  0.52861116  0.37808006  1
  Fe  Fe77  1  0.19807614  0.53198164  0.70794889  1
  Fe  Fe78  1  0.68946652  0.04084932  0.38137835  1
  Fe  Fe79  1  0.69577933  0.53079534  0.04923088  1
  Fe  Fe80  1  0.19939471  0.53179531  0.04095724  1
  Fe  Fe81  1  0.19263661  0.03596319  0.38359765  1
  Fe  Fe82  1  0.53605844  0.19209074  0.87942688  1
  Fe  Fe83  1  0.03088127  0.69588911  0.87785645  1
  Fe  Fe84  1  0.53893639  0.69124428  0.21479471  1
  Fe  Fe85  1  0.03352455  0.19491673  0.55124019  1
  Fe  Fe86  1  0.03585929  0.69534271  0.54790492  1
  Fe  Fe87  1  0.53460959  0.69415003  0.54754666  1
  Fe  Fe88  1  0.03204450  0.69991920  0.21346403  1
  Fe  Fe89  1  0.53750181  0.69135766  0.88105579  1
  Fe  Fe90  1  0.03319274  0.19378691  0.88287468  1
  Fe  Fe91  1  0.52858902  0.19698631  0.20578981  1
  Fe  Fe92  1  0.80404880  0.96964676  0.27967001  1
  Fe  Fe93  1  0.80714639  0.45916480  0.95127930  1
  Fe  Fe94  1  0.31213878  0.96600343  0.62258107  1
  Fe  Fe95  1  0.30689303  0.96510079  0.95427968  1
  Fe  Fe96  1  0.31209978  0.96407162  0.29177897  1
  Fe  Fe97  1  0.81322167  0.46120960  0.62295125  1
  Fe  Fe98  1  0.79506713  0.97044095  0.62050678  1
  Fe  Fe99  1  0.30824429  0.46310523  0.28710908  1
  Fe  Fe100  1  0.80600574  0.46331806  0.28489493  1
  Fe  Fe101  1  0.79700732  0.97431343  0.95738430  1
  S  S102  1  0.35261366  0.13733860  0.08409376  1
  S  S103  1  0.35593809  0.13890836  0.41309654  1
  S  S104  1  0.35845474  0.14195157  0.75199259  1
  S  S105  1  0.36477405  0.64119250  0.08385938  1
  S  S106  1  0.36365646  0.63982849  0.41663049  1
  S  S107  1  0.35984913  0.64771975  0.75227529  1
  S  S108  1  0.86626836  0.14123757  0.08263376  1
  S  S109  1  0.86133772  0.13974883  0.41645789  1
  S  S110  1  0.86097914  0.14145730  0.74766088  1
  S  S111  1  0.86336307  0.63225384  0.08465335  1
  S  S112  1  0.85813235  0.63928227  0.41588987  1
  S  S113  1  0.85770980  0.64023183  0.75083111  1
  S  S114  1  0.13896296  0.36296685  0.25069192  1
  S  S115  1  0.13844686  0.35835641  0.58336798  1
  S  S116  1  0.13751202  0.35939657  0.91608848  1
  S  S117  1  0.14737004  0.85737695  0.25767017  1
  S  S118  1  0.13808721  0.86605969  0.58627586  1
  S  S119  1  0.13895575  0.86067946  0.91668114  1
  S  S120  1  0.64236957  0.35939461  0.24973986  1
  S  S121  1  0.64094378  0.36587058  0.58521514  1
  S  S122  1  0.63921947  0.36034652  0.91734488  1
  S  S123  1  0.64179664  0.85873736  0.24626359  1
  S  S124  1  0.64087138  0.85458068  0.58192420  1
  S  S125  1  0.63821644  0.85909684  0.91512546  1
  S  S126  1  0.07149428  0.16799347  0.04172952  1
  S  S127  1  0.06388980  0.16631655  0.37670046  1
  S  S128  1  0.06913744  0.16882297  0.71175159  1
  S  S129  1  0.07025426  0.66467158  0.03958376  1
  S  S130  1  0.06591231  0.67182220  0.37604512  1
  S  S131  1  0.07149616  0.67601961  0.71081720  1
  S  S132  1  0.56023492  0.16396415  0.03906091  1
  S  S133  1  0.56535368  0.17160816  0.36797609  1
  S  S134  1  0.56691449  0.17368622  0.71669443  1
  S  S135  1  0.57183272  0.66870731  0.04373578  1
  S  S136  1  0.56947275  0.66816135  0.37610148  1
  S  S137  1  0.56649464  0.66870738  0.70940065  1
  S  S138  1  0.32558701  0.43445546  0.12594095  1
  S  S139  1  0.33009862  0.43417837  0.45613928  1
  S  S140  1  0.33031542  0.43858508  0.79301395  1
  S  S141  1  0.33159232  0.92750300  0.12552930  1
  S  S142  1  0.32813373  0.93228298  0.45744444  1
  S  S143  1  0.32967980  0.93393357  0.79246496  1
  S  S144  1  0.83386344  0.42691267  0.12591749  1
  S  S145  1  0.82927271  0.43200779  0.45747067  1
  S  S146  1  0.82883675  0.43075392  0.79108866  1
  S  S147  1  0.83567660  0.93897442  0.12396019  1
  S  S148  1  0.83098914  0.93478109  0.45731217  1
  S  S149  1  0.83131986  0.93250539  0.79343360  1
  S  S150  1  0.43073219  0.32630262  0.29244570  1
  S  S151  1  0.43435576  0.33286312  0.62116769  1
  S  S152  1  0.44170459  0.33107667  0.95656134  1
  S  S153  1  0.43582056  0.82708697  0.28921739  1
  S  S154  1  0.42951602  0.82541214  0.62285286  1
  S  S155  1  0.43436515  0.83080476  0.95722980  1
  S  S156  1  0.93267329  0.33578239  0.29367791  1
  S  S157  1  0.93127752  0.32949305  0.62428328  1
  S  S158  1  0.93348399  0.33122967  0.95648483  1
  S  S159  1  0.93287198  0.83190794  0.29260042  1
  S  S160  1  0.93024857  0.83212296  0.62398927  1
  S  S161  1  0.93252980  0.83466197  0.95749318  1
  S  S162  1  0.16656609  0.05400761  0.21105015  1
  S  S163  1  0.16672226  0.06974383  0.54568028  1
  S  S164  1  0.16715670  0.06789705  0.87821974  1
  S  S165  1  0.16967001  0.57164193  0.20865435  1
  S  S166  1  0.16672308  0.57018294  0.54089196  1
  S  S167  1  0.16972558  0.57383426  0.87265671  1
  S  S168  1  0.66795911  0.06567729  0.20791230  1
  S  S169  1  0.66555840  0.06234901  0.53582664  1
  S  S170  1  0.67444375  0.06991212  0.87365923  1
  S  S171  1  0.67074961  0.56551836  0.20955603  1
  S  S172  1  0.66941427  0.56867785  0.54227788  1
  S  S173  1  0.66887993  0.56517696  0.87633843  1
  O  O174  1  0.35287771  0.21456837  0.07536996  1
  O  O175  1  0.36498043  0.21870680  0.40481459  1
  O  O176  1  0.36374143  0.22184281  0.74478161  1
  O  O177  1  0.37375930  0.72092256  0.07473985  1
  O  O178  1  0.37337054  0.71778080  0.40663118  1
  O  O179  1  0.36645978  0.73045463  0.75105128  1
  O  O180  1  0.88018821  0.21407786  0.06390655  1
  O  O181  1  0.87238180  0.21778446  0.40723971  1
  O  O182  1  0.87661005  0.21757220  0.73566256  1
  O  O183  1  0.86837717  0.70770438  0.07371733  1
  O  O184  1  0.86773320  0.71954715  0.40995658  1
  O  O185  1  0.86716762  0.71735646  0.73868540  1
  O  O186  1  0.27754558  0.12120454  0.09930838  1
  O  O187  1  0.27248039  0.13233922  0.41501251  1
  O  O188  1  0.28183724  0.13254526  0.76578213  1
  O  O189  1  0.28353312  0.63448949  0.08832766  1
  O  O190  1  0.28280197  0.63031940  0.41979379  1
  O  O191  1  0.28048826  0.63490837  0.75812301  1
  O  O192  1  0.79024067  0.13820712  0.09319939  1
  O  O193  1  0.78246195  0.13146066  0.42234870  1
  O  O194  1  0.78294791  0.13680415  0.75321022  1
  O  O195  1  0.78699225  0.61943713  0.09824989  1
  O  O196  1  0.77921923  0.62974239  0.42352817  1
  O  O197  1  0.77786035  0.63363944  0.75866781  1
  O  O198  1  0.13107572  0.28985706  0.26556729  1
  O  O199  1  0.12476900  0.28234852  0.59772133  1
  O  O200  1  0.12397542  0.28231033  0.92751845  1
  O  O201  1  0.13389520  0.77805808  0.26494043  1
  O  O202  1  0.12903462  0.78795367  0.59579384  1
  O  O203  1  0.13007480  0.78216296  0.92555514  1
  O  O204  1  0.63079873  0.27767504  0.25178871  1
  O  O205  1  0.63676993  0.29243804  0.59982035  1
  O  O206  1  0.62998383  0.28146436  0.92478022  1
  O  O207  1  0.63448678  0.78021770  0.25633952  1
  O  O208  1  0.63301326  0.77165243  0.58552566  1
  O  O209  1  0.63222684  0.77619345  0.91448672  1
  O  O210  1  0.21644546  0.37246243  0.23890234  1
  O  O211  1  0.21443744  0.36041399  0.57188923  1
  O  O212  1  0.21508050  0.36478555  0.90873391  1
  O  O213  1  0.22973623  0.86285167  0.25616817  1
  O  O214  1  0.21647616  0.87629977  0.57917637  1
  O  O215  1  0.21887917  0.86977987  0.91020062  1
  O  O216  1  0.72624381  0.36749280  0.24949353  1
  O  O217  1  0.71681045  0.38165731  0.57356614  1
  O  O218  1  0.71766807  0.36885243  0.90781036  1
  O  O219  1  0.72158701  0.86919760  0.24012903  1
  O  O220  1  0.72020755  0.86271903  0.57267082  1
  O  O221  1  0.71831821  0.87447469  0.91039819  1
  O  O222  1  0.41590192  0.12926358  0.14910489  1
  O  O223  1  0.41015322  0.12961106  0.47905772  1
  O  O224  1  0.42043545  0.13259949  0.81734196  1
  O  O225  1  0.42040001  0.63847056  0.15650288  1
  O  O226  1  0.42010226  0.63405928  0.48700585  1
  O  O227  1  0.41859756  0.63891683  0.82138636  1
  O  O228  1  0.92892284  0.13453384  0.14737125  1
  O  O229  1  0.91956551  0.13122002  0.48553670  1
  O  O230  1  0.92051717  0.13374655  0.81729627  1
  O  O231  1  0.92583706  0.62517381  0.15231254  1
  O  O232  1  0.91798362  0.63094523  0.48352820  1
  O  O233  1  0.91549965  0.63574441  0.82067254  1
  O  O234  1  0.35784106  0.07807093  0.01405282  1
  O  O235  1  0.36229084  0.08128344  0.34244757  1
  O  O236  1  0.36073773  0.08434200  0.68111236  1
  O  O237  1  0.37792005  0.58151719  0.02138055  1
  O  O238  1  0.37637375  0.57908067  0.35190524  1
  O  O239  1  0.37157559  0.59393136  0.68544154  1
  O  O240  1  0.87063893  0.07487012  0.01344673  1
  O  O241  1  0.87251327  0.07919162  0.35033534  1
  O  O242  1  0.87221597  0.07831490  0.68255151  1
  O  O243  1  0.87131335  0.56920071  0.01797892  1
  O  O244  1  0.86591415  0.58183845  0.34710446  1
  O  O245  1  0.86481259  0.57916152  0.68398506  1
  O  O246  1  0.07878373  0.36931392  0.18132377  1
  O  O247  1  0.07702699  0.36496079  0.51520078  1
  O  O248  1  0.07749966  0.36805176  0.84750843  1
  O  O249  1  0.09266378  0.86622354  0.18984172  1
  O  O250  1  0.07771588  0.87273567  0.51796303  1
  O  O251  1  0.08139971  0.86834868  0.84800111  1
  O  O252  1  0.58972087  0.37396089  0.18499347  1
  O  O253  1  0.57832579  0.37066335  0.51672275  1
  O  O254  1  0.57972978  0.37321275  0.85210666  1
  O  O255  1  0.58393093  0.86232520  0.17549003  1
  O  O256  1  0.58221398  0.85856273  0.51141354  1
  O  O257  1  0.58073396  0.86807196  0.84527763  1
  O  O258  1  0.12980413  0.42883342  0.31528703  1
  O  O259  1  0.13357841  0.42079821  0.65066876  1
  O  O260  1  0.12792981  0.42122431  0.98233260  1
  O  O261  1  0.13695304  0.91650215  0.32544565  1
  O  O262  1  0.12734321  0.92628129  0.65299710  1
  O  O263  1  0.12898444  0.91994517  0.98367301  1
  O  O264  1  0.63667667  0.41375568  0.32247504  1
  O  O265  1  0.62925316  0.43006931  0.65028336  1
  O  O266  1  0.63339803  0.41926431  0.98699574  1
  O  O267  1  0.62969965  0.91839081  0.31123944  1
  O  O268  1  0.63363743  0.90991783  0.64865021  1
  O  O269  1  0.62353827  0.91248685  0.98062757  1
  O  O270  1  0.04311993  0.20512805  0.10457321  1
  O  O271  1  0.03441695  0.19804960  0.44379918  1
  O  O272  1  0.03538484  0.20039193  0.77403228  1
  O  O273  1  0.03744418  0.68406410  0.10159567  1
  O  O274  1  0.02955848  0.70242106  0.43784382  1
  O  O275  1  0.03018968  0.70338095  0.76912032  1
  O  O276  1  0.52038643  0.19155037  0.09608676  1
  O  O277  1  0.53202601  0.20128704  0.42903068  1
  O  O278  1  0.52933344  0.21023049  0.78113712  1
  O  O279  1  0.53442804  0.69727110  0.10443757  1
  O  O280  1  0.53139986  0.69730665  0.43543358  1
  O  O281  1  0.52795894  0.69855972  0.76887625  1
  O  O282  1  0.29531016  0.47411630  0.06829632  1
  O  O283  1  0.29726214  0.46714931  0.39086099  1
  O  O284  1  0.30327768  0.47245483  0.73046017  1
  O  O285  1  0.29912665  0.96020068  0.06245945  1
  O  O286  1  0.29958822  0.97403318  0.40009975  1
  O  O287  1  0.30002630  0.97052232  0.73125992  1
  O  O288  1  0.79952070  0.45908048  0.06247814  1
  O  O289  1  0.80242737  0.47345914  0.39942579  1
  O  O290  1  0.79928372  0.46956550  0.73148827  1
  O  O291  1  0.79944991  0.96824593  0.05984862  1
  O  O292  1  0.80170157  0.96873501  0.39494029  1
  O  O293  1  0.81080865  0.96672573  0.73240330  1
  O  O294  1  0.46671913  0.29747788  0.23337303  1
  O  O295  1  0.46821211  0.29777850  0.56086399  1
  O  O296  1  0.47275076  0.29106835  0.89086409  1
  O  O297  1  0.47612502  0.79962003  0.23051753  1
  O  O298  1  0.46777071  0.79663741  0.56249107  1
  O  O299  1  0.47159999  0.80182478  0.89702414  1
  O  O300  1  0.96541644  0.31714540  0.23174421  1
  O  O301  1  0.96470171  0.29559753  0.56113852  1
  O  O302  1  0.96761019  0.30127607  0.89363710  1
  O  O303  1  0.96958239  0.80197280  0.23367942  1
  O  O304  1  0.96788883  0.80180713  0.56370332  1
  O  O305  1  0.96649729  0.80455378  0.89220680  1
  O  O306  1  0.20450983  0.01782865  0.27160795  1
  O  O307  1  0.19816369  0.03655570  0.60857295  1
  O  O308  1  0.19522161  0.03048218  0.93851791  1
  O  O309  1  0.20008182  0.53563390  0.26943871  1
  O  O310  1  0.19088013  0.53572572  0.60131941  1
  O  O311  1  0.19109353  0.53751154  0.93247074  1
  O  O312  1  0.70108935  0.03458518  0.27425858  1
  O  O313  1  0.69924298  0.02230875  0.59293244  1
  O  O314  1  0.70172176  0.03453373  0.93668408  1
  O  O315  1  0.69924602  0.52926583  0.27113681  1
  O  O316  1  0.69937126  0.53878887  0.60671536  1
  O  O317  1  0.70099801  0.53096072  0.93885363  1
  O  O318  1  0.08417805  0.08437132  0.03920495  1
  O  O319  1  0.08342981  0.08373113  0.37444088  1
  O  O320  1  0.08359842  0.08546291  0.70639112  1
  O  O321  1  0.08778829  0.58073804  0.02320773  1
  O  O322  1  0.08211404  0.58936553  0.36962391  1
  O  O323  1  0.09696834  0.59906939  0.70822528  1
  O  O324  1  0.56915652  0.08015126  0.02565856  1
  O  O325  1  0.58407046  0.08943897  0.36228393  1
  O  O326  1  0.58680886  0.09766634  0.72136535  1
  O  O327  1  0.58865440  0.58631136  0.03673816  1
  O  O328  1  0.58836463  0.58715308  0.37349826  1
  O  O329  1  0.58378635  0.58693921  0.70484685  1
  O  O330  1  0.40350898  0.41426207  0.12784291  1
  O  O331  1  0.41047063  0.41315375  0.45744492  1
  O  O332  1  0.41069123  0.41267470  0.79312416  1
  O  O333  1  0.41372217  0.91050346  0.13023923  1
  O  O334  1  0.40657821  0.91011901  0.45756552  1
  O  O335  1  0.41078700  0.91520428  0.79839945  1
  O  O336  1  0.91607372  0.41189596  0.12849382  1
  O  O337  1  0.91010881  0.41232104  0.46109856  1
  O  O338  1  0.91076806  0.41368614  0.79592935  1
  O  O339  1  0.91889037  0.93233683  0.13285557  1
  O  O340  1  0.91481710  0.91911872  0.46425976  1
  O  O341  1  0.91725131  0.91817441  0.80727630  1
  O  O342  1  0.41222072  0.40851435  0.29870566  1
  O  O343  1  0.42069953  0.41400351  0.62346716  1
  O  O344  1  0.42708096  0.41030028  0.95326809  1
  O  O345  1  0.41567561  0.90762426  0.29151534  1
  O  O346  1  0.40662422  0.90377888  0.62442094  1
  O  O347  1  0.41479427  0.91226208  0.96266186  1
  O  O348  1  0.91648150  0.42114187  0.31000721  1
  O  O349  1  0.91557756  0.41051002  0.62751314  1
  O  O350  1  0.91995312  0.41516210  0.96518946  1
  O  O351  1  0.91452915  0.91391513  0.29653063  1
  O  O352  1  0.91143562  0.91299763  0.62671951  1
  O  O353  1  0.90822468  0.91496763  0.95925816  1
  O  O354  1  0.08491084  0.05988866  0.20802091  1
  O  O355  1  0.08241866  0.08219655  0.53889778  1
  O  O356  1  0.08322584  0.08160532  0.86889805  1
  O  O357  1  0.08864147  0.59146823  0.20623276  1
  O  O358  1  0.08420796  0.59137338  0.53058422  1
  O  O359  1  0.08710084  0.59374089  0.86186905  1
  O  O360  1  0.58777132  0.08778997  0.20632081  1
  O  O361  1  0.58785148  0.07984465  0.53389068  1
  O  O362  1  0.59684107  0.09979117  0.87984130  1
  O  O363  1  0.58890047  0.58347595  0.20108835  1
  O  O364  1  0.58602454  0.58466280  0.53368145  1
  O  O365  1  0.58653598  0.58173447  0.87228371  1
  O  O366  1  0.14403712  0.21164981  0.04737444  1
  O  O367  1  0.13567117  0.21687543  0.39070669  1
  O  O368  1  0.14095813  0.21766052  0.72500999  1
  O  O369  1  0.14189573  0.71813676  0.05808380  1
  O  O370  1  0.13734987  0.72282478  0.39319643  1
  O  O371  1  0.13833718  0.73492503  0.72827317  1
  O  O372  1  0.63400111  0.21327194  0.05952703  1
  O  O373  1  0.63600102  0.22153030  0.37910345  1
  O  O374  1  0.63739736  0.23034676  0.73634805  1
  O  O375  1  0.64263895  0.72065635  0.06048668  1
  O  O376  1  0.64051762  0.72050081  0.39166198  1
  O  O377  1  0.63829101  0.72095978  0.72759709  1
  O  O378  1  0.26959153  0.36433608  0.10845038  1
  O  O379  1  0.27671606  0.36322610  0.43989503  1
  O  O380  1  0.27553607  0.36817801  0.77644208  1
  O  O381  1  0.28055482  0.85674817  0.11310509  1
  O  O382  1  0.27270476  0.86344819  0.43981332  1
  O  O383  1  0.27578801  0.86313549  0.77466031  1
  O  O384  1  0.78488916  0.35758760  0.11753107  1
  O  O385  1  0.77588665  0.36164769  0.43786981  1
  O  O386  1  0.77716536  0.35957014  0.77388001  1
  O  O387  1  0.79065435  0.86518405  0.11280917  1
  O  O388  1  0.78182837  0.86143719  0.44114004  1
  O  O389  1  0.78189290  0.85919701  0.77569469  1
  O  O390  1  0.35717783  0.27587404  0.27587367  1
  O  O391  1  0.36174448  0.28344975  0.60854493  1
  O  O392  1  0.36749844  0.28215827  0.94125568  1
  O  O393  1  0.36573597  0.77288975  0.27066705  1
  O  O394  1  0.36236129  0.76968017  0.60895285  1
  O  O395  1  0.36376140  0.77809620  0.94160630  1
  O  O396  1  0.86161599  0.28355344  0.27681966  1
  O  O397  1  0.86130343  0.28009691  0.61360779  1
  O  O398  1  0.86074252  0.28284974  0.93990502  1
  O  O399  1  0.86091848  0.78036662  0.27717391  1
  O  O400  1  0.86119522  0.77793791  0.60879013  1
  O  O401  1  0.86385820  0.77998551  0.94157618  1
  O  O402  1  0.21193651  0.12912736  0.22675096  1
  O  O403  1  0.21377102  0.14253359  0.55857122  1
  O  O404  1  0.21709210  0.14043652  0.89566272  1
  O  O405  1  0.22320778  0.64229623  0.22476827  1
  O  O406  1  0.21959671  0.63978753  0.55493557  1
  O  O407  1  0.22362207  0.64562902  0.89231197  1
  O  O408  1  0.72171355  0.13462063  0.22085461  1
  O  O409  1  0.72102805  0.13176474  0.55150739  1
  O  O410  1  0.73030053  0.13662960  0.88795338  1
  O  O411  1  0.72375352  0.63680870  0.22772208  1
  O  O412  1  0.72060969  0.63958501  0.55489843  1
  O  O413  1  0.71934505  0.63586226  0.88955317  1
  O  O414  1  0.50010506  0.33488912  0.02726908  1
  O  O415  1  0.48836161  0.33005815  0.36681823  1
  O  O416  1  0.49159163  0.33644143  0.69625685  1
  O  O417  1  0.49428806  0.83491339  0.03014136  1
  O  O418  1  0.49281508  0.83012825  0.36262573  1
  O  O419  1  0.49091312  0.83128660  0.69570823  1
  O  O420  1  0.99350461  0.32975179  0.02724224  1
  O  O421  1  0.99315740  0.33339982  0.36442491  1
  O  O422  1  0.99447470  0.33251741  0.69561627  1
  O  O423  1  0.99503607  0.84052224  0.02627127  1
  O  O424  1  0.99074823  0.83698619  0.36750819  1
  O  O425  1  0.98939746  0.83776274  0.69804925  1
  O  O426  1  0.16910586  -0.00207118  0.13778769  1
  O  O427  1  0.16621148  0.00913707  0.47442571  1
  O  O428  1  0.16853882  0.00924405  0.80621758  1
  O  O429  1  0.16321719  0.51348464  0.13439209  1
  O  O430  1  0.16347472  0.50897779  0.46814247  1
  O  O431  1  0.17246981  0.51569897  0.80173153  1
  O  O432  1  0.65990861  0.00155050  0.13880878  1
  O  O433  1  0.66562467  0.00457059  0.46032216  1
  O  O434  1  0.66018176  0.00854557  0.80275621  1
  O  O435  1  0.67210617  0.50590132  0.13885103  1
  O  O436  1  0.66768443  0.50685389  0.47117595  1
  O  O437  1  0.66591284  0.50456999  0.80436064  1
  O  O438  1  0.00178353  0.16211749  0.30867437  1
  O  O439  1  0.00808889  0.16523309  0.63946298  1
  O  O440  1  0.00880960  0.16109574  0.96828742  1
  O  O441  1  0.00607147  0.67124724  0.30438016  1
  O  O442  1  0.01149733  0.67254892  0.63750455  1
  O  O443  1  0.01033590  0.66956572  0.96982704  1
  O  O444  1  0.50400470  0.16535528  0.29420724  1
  O  O445  1  0.50914109  0.17504010  0.64819579  1
  O  O446  1  0.50605300  0.17060407  0.96486950  1
  O  O447  1  0.51164982  0.66503889  0.30268894  1
  O  O448  1  0.50882118  0.66593222  0.63605158  1
  O  O449  1  0.51172706  0.66771508  0.97166038  1
  O  O450  1  0.32725554  0.49189694  0.20067308  1
  O  O451  1  0.33443529  0.49588808  0.52504061  1
  O  O452  1  0.34051959  0.49757218  0.86533682  1
  O  O453  1  0.33602773  0.98868472  0.19765586  1
  O  O454  1  0.33260102  0.99022609  0.53144238  1
  O  O455  1  0.33028056  0.99285897  0.86434922  1
  O  O456  1  0.84007556  0.49034630  0.19850728  1
  O  O457  1  0.83180537  0.48996627  0.53068908  1
  O  O458  1  0.83176597  0.48999001  0.86399768  1
  O  O459  1  0.83071008  0.99865581  0.19519670  1
  O  O460  1  0.83302713  0.99311025  0.52969253  1
  O  O461  1  0.82768478  0.99055560  0.86488352  1
