# generated using pymatgen
data_Na31Fe20(SO4)36
_symmetry_space_group_name_H-M   'P 1'
_cell_length_a   18.06430271
_cell_length_b   18.06524634
_cell_length_c   19.69856014
_cell_angle_alpha   107.57884035
_cell_angle_beta   107.60245070
_cell_angle_gamma   90.70822112
_symmetry_Int_Tables_number   1
_chemical_formula_structural   Na31Fe20(SO4)36
_chemical_formula_sum   'Na62 Fe40 S72 O288'
_cell_volume   5803.06847350
_cell_formula_units_Z   2
loop_
 _symmetry_equiv_pos_site_id
 _symmetry_equiv_pos_as_xyz
  1  'x, y, z'
loop_
 _atom_site_type_symbol
 _atom_site_label
 _atom_site_symmetry_multiplicity
 _atom_site_fract_x
 _atom_site_fract_y
 _atom_site_fract_z
 _atom_site_occupancy
  Na  Na0  1  0.13536567  0.35623909  0.07817852  1
  Na  Na1  1  0.13583137  0.36928243  0.42196928  1
  Na  Na2  1  0.14091337  0.33709943  0.72719958  1
  Na  Na3  1  0.14894038  0.86209159  0.08220567  1
  Na  Na4  1  0.14080049  0.86366365  0.43429481  1
  Na  Na5  1  0.13003844  0.85536079  0.74466121  1
  Na  Na6  1  0.64230402  0.37425807  0.09695107  1
  Na  Na7  1  0.63185918  0.37078286  0.42116215  1
  Na  Na8  1  0.62302587  0.35098804  0.73738006  1
  Na  Na9  1  0.63375080  0.86789025  0.08019694  1
  Na  Na10  1  0.62971527  0.86833949  0.41264581  1
  Na  Na11  1  0.63660705  0.88136222  0.74942522  1
  Na  Na12  1  0.36871080  0.12596035  0.24768762  1
  Na  Na13  1  0.35339961  0.13692909  0.58580345  1
  Na  Na14  1  0.35910801  0.13118944  0.91396574  1
  Na  Na15  1  0.36681025  0.63388450  0.25195190  1
  Na  Na16  1  0.36069116  0.63962439  0.57590378  1
  Na  Na17  1  0.36538112  0.64415857  0.92423879  1
  Na  Na18  1  0.87141391  0.13453787  0.25237871  1
  Na  Na19  1  0.86636266  0.13560515  0.58388857  1
  Na  Na20  1  0.86240405  0.13033148  0.90890605  1
  Na  Na21  1  0.86688440  0.63712343  0.26064705  1
  Na  Na22  1  0.87411872  0.63803836  0.59250374  1
  Na  Na23  1  0.86408684  0.63002526  0.91297049  1
  Na  Na24  1  1.02037940  -0.01101711  0.08462022  1
  Na  Na25  1  0.98924117  0.03028302  0.41417168  1
  Na  Na26  1  0.47874877  0.00691048  0.09195722  1
  Na  Na27  1  0.45015941  0.00993063  0.72954205  1
  Na  Na28  1  0.48571757  0.50856252  0.08919383  1
  Na  Na29  1  0.96364234  0.50708284  0.41782231  1
  Na  Na30  1  0.99614121  0.50941204  0.07761074  1
  Na  Na31  1  0.48862558  0.51387509  0.74803841  1
  Na  Na32  1  0.99682823  -0.00649262  0.74607934  1
  Na  Na33  1  0.03522534  0.97764017  0.91459207  1
  Na  Na34  1  0.51570521  0.49224035  0.56603076  1
  Na  Na35  1  -0.01243926  0.50360900  0.25449096  1
  Na  Na36  1  0.00246511  0.47447122  0.59885298  1
  Na  Na37  1  0.50944582  0.48495787  0.27409549  1
  Na  Na38  1  0.49192938  1.02916443  0.56639814  1
  Na  Na39  1  0.01428746  0.49361179  0.88613843  1
  Na  Na40  1  0.50777576  0.48934837  0.91730370  1
  Na  Na41  1  0.01517189  0.98318700  0.56957441  1
  Na  Na42  1  0.24696925  0.74833565  0.34665169  1
  Na  Na43  1  0.74427871  0.24980513  0.00375338  1
  Na  Na44  1  0.25705641  0.25454585  -0.00970374  1
  Na  Na45  1  0.71290745  0.21224075  0.66489543  1
  Na  Na46  1  0.76498727  0.75974815  0.32990981  1
  Na  Na47  1  0.74144861  0.24703620  0.33980685  1
  Na  Na48  1  0.75917961  0.75548491  -0.00723111  1
  Na  Na49  1  0.24181001  0.23639553  0.34275700  1
  Na  Na50  1  0.76458068  0.75959540  0.66427284  1
  Na  Na51  1  0.26124827  0.77127717  0.64618518  1
  Na  Na52  1  0.77175592  0.76134318  0.49385873  1
  Na  Na53  1  0.76820414  0.76175519  0.82362293  1
  Na  Na54  1  0.25958315  0.75776920  0.15668067  1
  Na  Na55  1  0.24189403  0.74665396  0.84467250  1
  Na  Na56  1  0.73606612  0.23929506  0.50768471  1
  Na  Na57  1  0.75490040  0.25827777  0.17342924  1
  Na  Na58  1  0.23796131  0.22957306  0.16974303  1
  Na  Na59  1  0.22898459  0.23897634  0.52077210  1
  Na  Na60  1  0.75959819  0.75566981  0.16268199  1
  Na  Na61  1  0.73482052  0.23432930  0.83510355  1
  Fe  Fe62  1  0.96754630  0.81173910  0.12475947  1
  Fe  Fe63  1  0.96617653  0.30708738  0.11902877  1
  Fe  Fe64  1  0.46588825  0.81118824  0.45693112  1
  Fe  Fe65  1  0.45124081  0.30976387  0.78026486  1
  Fe  Fe66  1  0.46610995  0.81717952  0.78680007  1
  Fe  Fe67  1  0.46612286  0.80896400  0.12117221  1
  Fe  Fe68  1  0.96999517  0.29626130  0.78006930  1
  Fe  Fe69  1  0.96981712  0.29958318  0.45327109  1
  Fe  Fe70  1  0.46366864  0.30875378  0.11757142  1
  Fe  Fe71  1  0.46547548  0.29962800  0.45572175  1
  Fe  Fe72  1  0.68584159  0.03668413  0.37792229  1
  Fe  Fe73  1  0.69577309  0.53398819  0.05053940  1
  Fe  Fe74  1  0.19207036  0.54162072  0.71396138  1
  Fe  Fe75  1  0.19395743  0.03126968  0.38564175  1
  Fe  Fe76  1  0.19483636  0.53525666  0.38155655  1
  Fe  Fe77  1  0.69418252  0.53043789  0.71704324  1
  Fe  Fe78  1  0.19177840  0.53718956  0.04586884  1
  Fe  Fe79  1  0.70428472  0.53142370  0.38267403  1
  Fe  Fe80  1  0.68822912  0.03746106  0.04211273  1
  Fe  Fe81  1  0.19765798  0.03193203  0.71013166  1
  Fe  Fe82  1  0.03216452  0.69768305  0.87550130  1
  Fe  Fe83  1  0.02748957  0.70621259  0.54483342  1
  Fe  Fe84  1  0.53684498  0.69486289  0.21769881  1
  Fe  Fe85  1  0.52690509  0.19246232  0.87811652  1
  Fe  Fe86  1  0.53517321  0.19586562  0.21441510  1
  Fe  Fe87  1  0.54081759  0.68894363  0.54558523  1
  Fe  Fe88  1  0.53562757  0.69698749  0.88133397  1
  Fe  Fe89  1  0.03779307  0.18639057  0.87873216  1
  Fe  Fe90  1  0.03715576  0.18797589  0.21127693  1
  Fe  Fe91  1  0.03551510  0.69670895  0.21903175  1
  Fe  Fe92  1  0.31202290  0.96730087  0.29111186  1
  Fe  Fe93  1  0.81004590  0.46051037  0.62334189  1
  Fe  Fe94  1  0.80763803  0.96535494  0.28730248  1
  Fe  Fe95  1  0.30119297  0.96617697  0.95722274  1
  Fe  Fe96  1  0.30306800  0.46520186  0.94421694  1
  Fe  Fe97  1  0.80601256  0.46059209  0.95014497  1
  Fe  Fe98  1  0.80629369  0.96911936  0.95011746  1
  Fe  Fe99  1  0.30251215  0.47328229  0.61642710  1
  Fe  Fe100  1  0.30912408  0.46418048  0.28755031  1
  Fe  Fe101  1  0.79994497  0.96779125  0.62256322  1
  S  S102  1  0.36119293  0.14102706  0.08182199  1
  S  S103  1  0.35585148  0.14088498  0.42091973  1
  S  S104  1  0.35007448  0.14939668  0.75528371  1
  S  S105  1  0.36286919  0.63756518  0.08471255  1
  S  S106  1  0.36402814  0.63785298  0.41539324  1
  S  S107  1  0.36204365  0.64640049  0.75007828  1
  S  S108  1  0.85759982  0.14278100  0.08389748  1
  S  S109  1  0.85364747  0.14185519  0.41165768  1
  S  S110  1  0.86004876  0.13923611  0.74746069  1
  S  S111  1  0.86199664  0.63841326  0.08268469  1
  S  S112  1  0.86076683  0.63809152  0.41585236  1
  S  S113  1  0.85891345  0.63396787  0.75503648  1
  S  S114  1  0.14376208  0.35787759  0.24735073  1
  S  S115  1  0.13953301  0.36693600  0.58227766  1
  S  S116  1  0.13794911  0.36185167  0.91763567  1
  S  S117  1  0.14457704  0.85770188  0.25019014  1
  S  S118  1  0.13935298  0.86202931  0.58826354  1
  S  S119  1  0.14172733  0.85639112  0.91791693  1
  S  S120  1  0.63744785  0.36397735  0.25089063  1
  S  S121  1  0.63889886  0.36025214  0.58438253  1
  S  S122  1  0.63581363  0.36089358  0.91633076  1
  S  S123  1  0.64230924  0.85800042  0.24860061  1
  S  S124  1  0.64321435  0.85384138  0.57938272  1
  S  S125  1  0.64329725  0.85859177  0.91531919  1
  S  S126  1  0.05973566  0.16409860  0.03993760  1
  S  S127  1  0.06824141  0.16944524  0.37525686  1
  S  S128  1  0.06429802  0.15643341  0.70494669  1
  S  S129  1  0.06578487  0.66838463  0.04171033  1
  S  S130  1  0.07024918  0.66556467  0.37359594  1
  S  S131  1  0.06649977  0.66769004  0.70692272  1
  S  S132  1  0.57066773  0.17911103  0.04619113  1
  S  S133  1  0.56657062  0.17530336  0.37446499  1
  S  S134  1  0.54648529  0.16857397  0.71151374  1
  S  S135  1  0.56826093  0.66842233  0.04234031  1
  S  S136  1  0.57440952  0.66687631  0.37728684  1
  S  S137  1  0.57068854  0.66524343  0.70878026  1
  S  S138  1  0.32918165  0.43382361  0.12330523  1
  S  S139  1  0.32987944  0.43207817  0.45585980  1
  S  S140  1  0.33037550  0.44446879  0.79390330  1
  S  S141  1  0.33890220  0.93174146  0.12894352  1
  S  S142  1  0.33420319  0.93580322  0.45854484  1
  S  S143  1  0.32702814  0.93331585  0.79188187  1
  S  S144  1  0.83555414  0.43668893  0.12367570  1
  S  S145  1  0.83354707  0.42859084  0.46189082  1
  S  S146  1  0.82581832  0.41861640  0.78850229  1
  S  S147  1  0.82833555  0.93363458  0.12170065  1
  S  S148  1  0.82782052  0.94117185  0.45636789  1
  S  S149  1  0.83630743  0.93889254  0.79212569  1
  S  S150  1  0.42900756  0.32645283  0.29063105  1
  S  S151  1  0.42673236  0.34105036  0.62537053  1
  S  S152  1  0.43434403  0.33937427  0.96189171  1
  S  S153  1  0.43132779  0.82335892  0.28853415  1
  S  S154  1  0.44209555  0.82838949  0.62255692  1
  S  S155  1  0.43520521  0.83172929  0.95759056  1
  S  S156  1  0.94249075  0.33039474  0.29066300  1
  S  S157  1  0.93078636  0.32693317  0.62227679  1
  S  S158  1  0.93208352  0.32841459  0.95539274  1
  S  S159  1  0.93655906  0.83178375  0.29262090  1
  S  S160  1  0.92946776  0.83423439  0.62618329  1
  S  S161  1  0.93264482  0.82985460  0.96005304  1
  S  S162  1  0.17170100  0.06172668  0.21032133  1
  S  S163  1  0.16434266  0.06184314  0.54301795  1
  S  S164  1  0.17185153  0.06434868  0.87582933  1
  S  S165  1  0.16872719  0.56575495  0.20816922  1
  S  S166  1  0.16805085  0.57408336  0.54083020  1
  S  S167  1  0.17319810  0.57216254  0.87682924  1
  S  S168  1  0.66973566  0.06831574  0.20573002  1
  S  S169  1  0.66946931  0.06271258  0.53990151  1
  S  S170  1  0.66778131  0.07112133  0.87828063  1
  S  S171  1  0.67026220  0.57245922  0.20967242  1
  S  S172  1  0.67780842  0.56706127  0.54683146  1
  S  S173  1  0.66656956  0.56433750  0.87760536  1
  O  O174  1  0.37458578  0.21902657  0.07061642  1
  O  O175  1  0.36620585  0.22141146  0.41413322  1
  O  O176  1  0.35452168  0.23162139  0.75562473  1
  O  O177  1  0.37378006  0.71589727  0.07758539  1
  O  O178  1  0.37416194  0.71642564  0.40656076  1
  O  O179  1  0.37342102  0.72476560  0.74242954  1
  O  O180  1  0.86655612  0.22351805  0.07858524  1
  O  O181  1  0.86812812  0.21835186  0.39967804  1
  O  O182  1  0.87581316  0.21279506  0.73138650  1
  O  O183  1  0.86975725  0.71787197  0.07543789  1
  O  O184  1  0.86478730  0.71490145  0.40569585  1
  O  O185  1  0.85850690  0.71200869  0.74781326  1
  O  O186  1  0.28649032  0.13610320  0.09426121  1
  O  O187  1  0.27297868  0.13408499  0.42360290  1
  O  O188  1  0.27144808  0.13036654  0.76186878  1
  O  O189  1  0.28428521  0.62885867  0.09390635  1
  O  O190  1  0.28469174  0.62850664  0.42202093  1
  O  O191  1  0.28431487  0.63759114  0.75996957  1
  O  O192  1  0.77846194  0.13467369  0.09248835  1
  O  O193  1  0.76978241  0.13771166  0.40990561  1
  O  O194  1  0.78239367  0.13834448  0.75591391  1
  O  O195  1  0.78331833  0.62919251  0.09174303  1
  O  O196  1  0.78381497  0.62728228  0.42993165  1
  O  O197  1  0.78374398  0.61711639  0.77046105  1
  O  O198  1  0.13735649  0.27696987  0.25220907  1
  O  O199  1  0.13532792  0.28965507  0.58957717  1
  O  O200  1  0.12812722  0.28571176  0.93116718  1
  O  O201  1  0.13459896  0.77662892  0.25492832  1
  O  O202  1  0.12162778  0.78713621  0.60330323  1
  O  O203  1  0.13146621  0.77325332  0.91739361  1
  O  O204  1  0.62832723  0.28511217  0.26029039  1
  O  O205  1  0.63179983  0.28444194  0.59513080  1
  O  O206  1  0.62661078  0.28126109  0.92240477  1
  O  O207  1  0.63493735  0.77973701  0.25915235  1
  O  O208  1  0.64025279  0.77235990  0.58445176  1
  O  O209  1  0.63397192  0.77978279  0.92535429  1
  O  O210  1  0.22100575  0.36853929  0.23581098  1
  O  O211  1  0.21552082  0.38198271  0.56876424  1
  O  O212  1  0.21810051  0.37114365  0.91366318  1
  O  O213  1  0.22350283  0.86665168  0.24156195  1
  O  O214  1  0.21722352  0.86199752  0.58129544  1
  O  O215  1  0.22619561  0.86686194  0.92120663  1
  O  O216  1  0.71029570  0.37230554  0.23525276  1
  O  O217  1  0.71595714  0.37174681  0.57239223  1
  O  O218  1  0.71412040  0.36799442  0.90583690  1
  O  O219  1  0.72321425  0.86732978  0.24331887  1
  O  O220  1  0.72448163  0.86699340  0.57255098  1
  O  O221  1  0.72364907  0.86664213  0.90950535  1
  O  O222  1  0.42526919  0.13166351  0.14720313  1
  O  O223  1  0.41078695  0.13145311  0.48767057  1
  O  O224  1  0.40978800  0.14011689  0.82430384  1
  O  O225  1  0.42263101  0.62668956  0.15175905  1
  O  O226  1  0.42287250  0.62952538  0.48322150  1
  O  O227  1  0.42261216  0.63591759  0.81710830  1
  O  O228  1  0.91649631  0.13253476  0.15051582  1
  O  O229  1  0.90597087  0.13367145  0.48051487  1
  O  O230  1  0.91971027  0.13222686  0.81596344  1
  O  O231  1  0.92226268  0.62883514  0.14924879  1
  O  O232  1  0.92187806  0.63298271  0.48601179  1
  O  O233  1  0.92245136  0.62779962  0.82170243  1
  O  O234  1  0.36651151  0.08008873  0.01311780  1
  O  O235  1  0.36180393  0.08495991  0.34978650  1
  O  O236  1  0.36278751  0.09585446  0.68864766  1
  O  O237  1  0.37033432  0.57748907  0.01663427  1
  O  O238  1  0.37110729  0.57839121  0.34650049  1
  O  O239  1  0.36903183  0.58635768  0.68148969  1
  O  O240  1  0.86404562  0.08588970  0.01423798  1
  O  O241  1  0.86427158  0.07962337  0.34499208  1
  O  O242  1  0.86612756  0.07348456  0.68134016  1
  O  O243  1  0.86848136  0.57937509  0.01341138  1
  O  O244  1  0.86940153  0.57597006  0.35135661  1
  O  O245  1  0.86500823  0.57568416  0.68581942  1
  O  O246  1  0.08243370  0.36759973  0.18113979  1
  O  O247  1  0.07633819  0.37662318  0.51650252  1
  O  O248  1  0.07988602  0.36661790  0.84718752  1
  O  O249  1  0.08566101  0.86530763  0.18166146  1
  O  O250  1  0.07940527  0.87293718  0.52400093  1
  O  O251  1  0.09115426  0.86846236  0.84899445  1
  O  O252  1  0.57080865  0.37530533  0.18827799  1
  O  O253  1  0.57767700  0.36942682  0.51712113  1
  O  O254  1  0.57535026  0.37434452  0.85199196  1
  O  O255  1  0.58611975  0.86059577  0.17705274  1
  O  O256  1  0.58615505  0.85725285  0.50797992  1
  O  O257  1  0.58643450  0.86318641  0.84518839  1
  O  O258  1  0.13829804  0.41457360  0.31761316  1
  O  O259  1  0.13316602  0.42688253  0.65161371  1
  O  O260  1  0.12606303  0.42461532  0.98248584  1
  O  O261  1  0.13753566  0.91400275  0.31931360  1
  O  O262  1  0.13564175  0.92534586  0.65933517  1
  O  O263  1  0.12665192  0.90970073  0.98427720  1
  O  O264  1  0.63308442  0.42279601  0.32174206  1
  O  O265  1  0.63062166  0.42272510  0.65174939  1
  O  O266  1  0.63193592  0.41904005  0.98750131  1
  O  O267  1  0.63104721  0.91771050  0.31346929  1
  O  O268  1  0.63287944  0.91014499  0.64462106  1
  O  O269  1  0.63426655  0.91787621  0.98216871  1
  O  O270  1  0.02446288  0.20210638  0.10165605  1
  O  O271  1  0.02917410  0.19780709  0.43287267  1
  O  O272  1  0.03988051  0.19368044  0.77547253  1
  O  O273  1  0.02966565  0.69641418  0.10314093  1
  O  O274  1  0.03918992  0.69163930  0.43620293  1
  O  O275  1  0.02709242  0.68365168  0.76417144  1
  O  O276  1  0.53710031  0.21128322  0.10931753  1
  O  O277  1  0.52896785  0.20191108  0.43286602  1
  O  O278  1  0.51669021  0.21309621  0.77705161  1
  O  O279  1  0.53247010  0.69882484  0.10324745  1
  O  O280  1  0.53552325  0.69484439  0.43595979  1
  O  O281  1  0.53487400  0.69672523  0.76970815  1
  O  O282  1  0.29932702  0.46986824  0.06237554  1
  O  O283  1  0.30051673  0.46793919  0.39366531  1
  O  O284  1  0.29936938  0.47830851  0.73120434  1
  O  O285  1  0.31710626  0.96940776  0.07015688  1
  O  O286  1  0.30018571  0.96833800  0.39343382  1
  O  O287  1  0.29785797  0.97560647  0.73590801  1
  O  O288  1  0.80043043  0.46587627  0.05688093  1
  O  O289  1  0.80337697  0.46500748  0.40273503  1
  O  O290  1  0.79603541  0.45476668  0.72752977  1
  O  O291  1  0.79813554  0.97058639  0.06104581  1
  O  O292  1  0.78899216  0.97849362  0.39633077  1
  O  O293  1  0.80120386  0.96663964  0.72616840  1
  O  O294  1  0.46521407  0.29670682  0.22911268  1
  O  O295  1  0.46478264  0.31951894  0.56723467  1
  O  O296  1  0.46762660  0.30722628  0.89966861  1
  O  O297  1  0.47194521  0.79560347  0.22907222  1
  O  O298  1  0.47963006  0.79107391  0.56207634  1
  O  O299  1  0.47454865  0.80619580  0.89741169  1
  O  O300  1  0.97758644  0.29316231  0.22863777  1
  O  O301  1  0.96498779  0.30921794  0.56090644  1
  O  O302  1  0.96578521  0.29730171  0.89316427  1
  O  O303  1  0.96797391  0.79914827  0.22577597  1
  O  O304  1  0.95550921  0.80371264  0.55971947  1
  O  O305  1  0.96890654  0.80060476  0.90121648  1
  O  O306  1  0.19963994  0.03061668  0.27556957  1
  O  O307  1  0.19502845  0.03016027  0.60755992  1
  O  O308  1  0.19707364  0.02510679  0.93325298  1
  O  O309  1  0.19873893  0.52834649  0.26828065  1
  O  O310  1  0.20042896  0.54064687  0.60461139  1
  O  O311  1  0.20266743  0.53225779  0.93686592  1
  O  O312  1  0.69651798  0.02784444  0.26349126  1
  O  O313  1  0.70702549  0.02382045  0.59775978  1
  O  O314  1  0.70128556  0.03404007  0.94087866  1
  O  O315  1  0.69139241  0.54068653  0.27191592  1
  O  O316  1  0.70481969  0.53042987  0.60821755  1
  O  O317  1  0.69718583  0.52963269  0.93991377  1
  O  O318  1  0.06645774  0.08220663  0.03566360  1
  O  O319  1  0.08957167  0.08962650  0.37408960  1
  O  O320  1  0.09277226  0.07798046  0.70947746  1
  O  O321  1  0.07989647  0.58367301  0.03301495  1
  O  O322  1  0.08812038  0.58156165  0.36216607  1
  O  O323  1  0.08452169  0.58358176  0.68893494  1
  O  O324  1  0.58774208  0.09840653  0.04269465  1
  O  O325  1  0.59066755  0.09645766  0.37020526  1
  O  O326  1  0.55185519  0.08772459  0.71216292  1
  O  O327  1  0.58377056  0.58526072  0.03610778  1
  O  O328  1  0.59677713  0.58707616  0.37461318  1
  O  O329  1  0.58404552  0.58136779  0.70376737  1
  O  O330  1  0.41327858  0.42052677  0.13165022  1
  O  O331  1  0.41020118  0.41125301  0.46107932  1
  O  O332  1  0.41251347  0.42570269  0.79687545  1
  O  O333  1  0.42294649  0.91486810  0.13949348  1
  O  O334  1  0.41372443  0.91226815  0.45634756  1
  O  O335  1  0.40792648  0.91584588  0.79004265  1
  O  O336  1  0.91643867  0.41580691  0.12309146  1
  O  O337  1  0.91494036  0.40926913  0.46319739  1
  O  O338  1  0.90730647  0.40037291  0.79513438  1
  O  O339  1  0.90904758  0.91497695  0.12576441  1
  O  O340  1  0.90940676  0.93752079  0.45918151  1
  O  O341  1  0.92074733  0.93723303  0.80660495  1
  O  O342  1  0.41211029  0.40816094  0.29265277  1
  O  O343  1  0.40856313  0.42498418  0.63652713  1
  O  O344  1  0.41655446  0.42182501  0.96338835  1
  O  O345  1  0.41029570  0.90219889  0.29208474  1
  O  O346  1  0.42954970  0.90772762  0.62183288  1
  O  O347  1  0.41511255  0.91258954  0.96668281  1
  O  O348  1  0.93608120  0.41278528  0.29539783  1
  O  O349  1  0.91559635  0.41140826  0.64102234  1
  O  O350  1  0.91615418  0.41143913  0.96195586  1
  O  O351  1  0.91274495  0.91124333  0.29332208  1
  O  O352  1  0.89735054  0.91278552  0.62451535  1
  O  O353  1  0.91210395  0.91144504  0.96514646  1
  O  O354  1  0.09115830  0.08687180  0.20493464  1
  O  O355  1  0.08068324  0.06961336  0.53057654  1
  O  O356  1  0.08681639  0.07774080  0.86614572  1
  O  O357  1  0.08638197  0.58316913  0.20269769  1
  O  O358  1  0.08635987  0.58991460  0.53403864  1
  O  O359  1  0.09339342  0.59167025  0.87668006  1
  O  O360  1  0.58860400  0.08813543  0.19916846  1
  O  O361  1  0.59584504  0.08619045  0.54977731  1
  O  O362  1  0.59150732  0.09745791  0.88425985  1
  O  O363  1  0.58627858  0.58994240  0.19327675  1
  O  O364  1  0.59553010  0.58437196  0.54096763  1
  O  O365  1  0.58406877  0.58189307  0.87247150  1
  O  O366  1  0.13484913  0.21114483  0.05710354  1
  O  O367  1  0.13856000  0.22436420  0.39221808  1
  O  O368  1  0.12704795  0.20793305  0.70638952  1
  O  O369  1  0.13927553  0.71692311  0.05980588  1
  O  O370  1  0.13911956  0.71631000  0.38284030  1
  O  O371  1  0.13981049  0.71974986  0.73145629  1
  O  O372  1  0.64255504  0.23094682  0.06149483  1
  O  O373  1  0.63582942  0.23173176  0.39055046  1
  O  O374  1  0.62428552  0.21245132  0.72870896  1
  O  O375  1  0.64077301  0.71811830  0.05740003  1
  O  O376  1  0.64245024  0.72212489  0.39100781  1
  O  O377  1  0.64400113  0.71336006  0.72392844  1
  O  O378  1  0.28049634  0.35999360  0.10558432  1
  O  O379  1  0.27513183  0.36370134  0.44085916  1
  O  O380  1  0.27979641  0.37702850  0.78566826  1
  O  O381  1  0.28790257  0.85948408  0.11075212  1
  O  O382  1  0.28155186  0.86661877  0.44555422  1
  O  O383  1  0.27615884  0.86020693  0.77224530  1
  O  O384  1  0.78454705  0.36646359  0.11267986  1
  O  O385  1  0.78182442  0.35829268  0.44928474  1
  O  O386  1  0.77238096  0.34934412  0.77453549  1
  O  O387  1  0.77554718  0.86110965  0.10374096  1
  O  O388  1  0.78232806  0.86435521  0.43626355  1
  O  O389  1  0.79235306  0.86237314  0.77743487  1
  O  O390  1  0.35723893  0.27561561  0.27488452  1
  O  O391  1  0.35629352  0.28872062  0.60883429  1
  O  O392  1  0.36479004  0.29058974  0.95319471  1
  O  O393  1  0.36150818  0.76708849  0.26820258  1
  O  O394  1  0.37107640  0.77732848  0.60787956  1
  O  O395  1  0.36676247  0.77552320  0.93816287  1
  O  O396  1  0.86671397  0.28472422  0.27327897  1
  O  O397  1  0.85822186  0.27571571  0.60278037  1
  O  O398  1  0.85977340  0.27913454  0.94202025  1
  O  O399  1  0.86545851  0.77745329  0.27542936  1
  O  O400  1  0.86396747  0.77897732  0.61982369  1
  O  O401  1  0.86153831  0.77664544  0.94513389  1
  O  O402  1  0.22641584  0.13143336  0.22524572  1
  O  O403  1  0.21253648  0.13469426  0.55800332  1
  O  O404  1  0.22007640  0.13886190  0.89622411  1
  O  O405  1  0.22074572  0.63690392  0.22469132  1
  O  O406  1  0.22029026  0.64375870  0.55425243  1
  O  O407  1  0.22771052  0.64097958  0.89399988  1
  O  O408  1  0.72377288  0.13957016  0.22512104  1
  O  O409  1  0.72429161  0.13193358  0.55208678  1
  O  O410  1  0.72415933  0.14089036  0.89567162  1
  O  O411  1  0.72275398  0.64297674  0.22384489  1
  O  O412  1  0.73008166  0.63808362  0.56422032  1
  O  O413  1  0.71771609  0.63555419  0.89283301  1
  O  O414  1  0.49677911  0.34837800  0.03552707  1
  O  O415  1  0.48773846  0.32980220  0.36334375  1
  O  O416  1  0.48579263  0.34295062  0.69924999  1
  O  O417  1  0.49480486  0.83145003  0.02986432  1
  O  O418  1  0.48974924  0.82267198  0.36018448  1
  O  O419  1  0.50003900  0.83053053  0.69702418  1
  O  O420  1  0.99266664  0.33088137  0.02770486  1
  O  O421  1  0.99762624  0.32657311  0.36311871  1
  O  O422  1  0.99142895  0.31869287  0.69029622  1
  O  O423  1  0.99118091  0.83612727  0.03552894  1
  O  O424  1  0.99832635  0.83552316  0.36074200  1
  O  O425  1  0.99430508  0.85227087  0.69663719  1
  O  O426  1  0.16473022  -0.00069933  0.14048786  1
  O  O427  1  0.17229944  0.00190461  0.47351243  1
  O  O428  1  0.17433440  0.00962349  0.80208716  1
  O  O429  1  0.16504672  0.50702159  0.13435044  1
  O  O430  1  0.16835131  0.51115014  0.47031723  1
  O  O431  1  0.16838672  0.51289402  0.80369374  1
  O  O432  1  0.66750917  0.01074503  0.13177428  1
  O  O433  1  0.65876614  0.00550304  0.46351710  1
  O  O434  1  0.65931776  0.01238278  0.80709985  1
  O  O435  1  0.67291751  0.51049035  0.13928076  1
  O  O436  1  0.67718220  0.50793884  0.47509561  1
  O  O437  1  0.66344371  0.50373544  0.80575776  1
  O  O438  1  0.01131010  0.16386674  0.29992850  1
  O  O439  1  -0.00551313  0.13784413  0.63901564  1
  O  O440  1  0.00433264  0.16790334  0.96704691  1
  O  O441  1  0.00624233  0.66157662  0.30117429  1
  O  O442  1  0.01035005  0.67573309  0.63684308  1
  O  O443  1  0.00768653  0.66907693  0.96987620  1
  O  O444  1  0.50820077  0.16958803  0.29950474  1
  O  O445  1  0.49075906  0.17199444  0.64149253  1
  O  O446  1  0.50954158  0.17965263  0.97616484  1
  O  O447  1  0.51382531  0.65888181  0.30263920  1
  O  O448  1  0.51237984  0.66214731  0.63533270  1
  O  O449  1  0.50914761  0.66681299  0.96955781  1
  O  O450  1  0.32877751  0.49151061  0.19574707  1
  O  O451  1  0.33356894  0.49507420  0.52711026  1
  O  O452  1  0.33939751  0.50754302  0.86710687  1
  O  O453  1  0.33684281  0.98969342  0.20099100  1
  O  O454  1  0.34530635  0.99899538  0.52865926  1
  O  O455  1  0.33286722  0.98692740  0.86772193  1
  O  O456  1  0.84443717  0.50017639  0.19300880  1
  O  O457  1  0.84268885  0.48758008  0.53765220  1
  O  O458  1  0.82869189  0.48153572  0.86052059  1
  O  O459  1  0.82846794  0.99077923  0.19418875  1
  O  O460  1  0.82275983  0.99265051  0.53026495  1
  O  O461  1  0.82360602  0.99593391  0.86042622  1
