# generated using pymatgen
data_Na31Fe20(SO4)36
_symmetry_space_group_name_H-M   'P 1'
_cell_length_a   18.07097831
_cell_length_b   18.07996996
_cell_length_c   19.70957991
_cell_angle_alpha   107.60772522
_cell_angle_beta   107.58148055
_cell_angle_gamma   90.69676707
_symmetry_Int_Tables_number   1
_chemical_formula_structural   Na31Fe20(SO4)36
_chemical_formula_sum   'Na62 Fe40 S72 O288'
_cell_volume   5813.05487556
_cell_formula_units_Z   2
loop_
 _symmetry_equiv_pos_site_id
 _symmetry_equiv_pos_as_xyz
  1  'x, y, z'
loop_
 _atom_site_type_symbol
 _atom_site_label
 _atom_site_symmetry_multiplicity
 _atom_site_fract_x
 _atom_site_fract_y
 _atom_site_fract_z
 _atom_site_occupancy
  Na  Na0  1  0.13251676  0.36646114  0.08458078  1
  Na  Na1  1  0.13705228  0.36828191  0.42186767  1
  Na  Na2  1  0.13583432  0.36918159  0.74790361  1
  Na  Na3  1  0.13486716  0.86441365  0.07873042  1
  Na  Na4  1  0.13598672  0.86512910  0.41787899  1
  Na  Na5  1  0.13441130  0.86672222  0.75172582  1
  Na  Na6  1  0.62967656  0.36838875  0.08217929  1
  Na  Na7  1  0.65391356  0.37391630  0.43510214  1
  Na  Na8  1  0.62467467  0.37092822  0.74925175  1
  Na  Na9  1  0.62554013  0.84255374  0.06614968  1
  Na  Na10  1  0.64336200  0.82647731  0.38892959  1
  Na  Na11  1  0.64310098  0.87087046  0.75208188  1
  Na  Na12  1  0.36393334  0.13782392  0.24482300  1
  Na  Na13  1  0.36906444  0.14008798  0.59193954  1
  Na  Na14  1  0.36873304  0.13069073  0.91233244  1
  Na  Na15  1  0.36061119  0.63974307  0.24077788  1
  Na  Na16  1  0.37590067  0.61986471  0.58956671  1
  Na  Na17  1  0.38903777  0.65722699  0.94369186  1
  Na  Na18  1  0.86438928  0.13146004  0.24649873  1
  Na  Na19  1  0.87227792  0.13365865  0.58590318  1
  Na  Na20  1  0.86067252  0.12907467  0.90578227  1
  Na  Na21  1  0.85166475  0.63559730  0.24304182  1
  Na  Na22  1  0.85647265  0.63168207  0.57729028  1
  Na  Na23  1  0.86352504  0.63416095  0.92038031  1
  Na  Na24  1  0.95020479  0.50529085  0.74319792  1
  Na  Na25  1  0.98955278  0.00382261  0.42833633  1
  Na  Na26  1  0.49641767  0.01800893  0.41443018  1
  Na  Na27  1  0.51559202  0.54846923  0.08412285  1
  Na  Na28  1  0.49156205  0.50247377  0.42548516  1
  Na  Na29  1  0.98528947  0.00962974  0.73907785  1
  Na  Na30  1  0.50501914  -0.00442970  0.07542306  1
  Na  Na31  1  0.98111271  0.51391526  0.41219807  1
  Na  Na32  1  0.50204118  0.00875315  0.76103944  1
  Na  Na33  1  0.47005334  0.51174207  0.75721561  1
  Na  Na34  1  0.50234798  0.93229871  0.22322344  1
  Na  Na35  1  -0.00354428  0.48862907  0.93997418  1
  Na  Na36  1  0.48954811  0.51612657  0.23771402  1
  Na  Na37  1  0.00824419  0.99155066  0.23902177  1
  Na  Na38  1  0.55002904  0.99374594  0.59121531  1
  Na  Na39  1  0.00768523  0.50150194  0.23519114  1
  Na  Na40  1  0.00692482  0.49131013  0.58766413  1
  Na  Na41  1  0.00342850  0.98842093  0.93057384  1
  Na  Na42  1  0.25871939  0.26127011  0.31729913  1
  Na  Na43  1  0.74102168  0.24222809  0.67464798  1
  Na  Na44  1  0.73640824  0.72801629  0.00547027  1
  Na  Na45  1  0.24316915  0.73817898  0.67400101  1
  Na  Na46  1  0.75568221  0.75666628  0.65962556  1
  Na  Na47  1  0.27754688  0.27853841  0.66503087  1
  Na  Na48  1  0.25807489  0.75604205  0.32696982  1
  Na  Na49  1  0.74956184  0.24962343  -0.00219489  1
  Na  Na50  1  0.75172456  0.25334856  0.33654637  1
  Na  Na51  1  0.24759156  0.24784819  0.00477879  1
  Na  Na52  1  0.73333514  0.73597995  0.83975261  1
  Na  Na53  1  0.75129941  0.25111462  0.16444462  1
  Na  Na54  1  0.75021167  0.24503077  0.50674889  1
  Na  Na55  1  0.24615106  0.74375629  0.50354281  1
  Na  Na56  1  0.26619036  0.26996711  0.49534119  1
  Na  Na57  1  0.27792661  0.76292393  0.14072024  1
  Na  Na58  1  0.71230234  0.72151800  0.18004685  1
  Na  Na59  1  0.73237222  0.23579059  0.83259035  1
  Na  Na60  1  0.26909162  0.26314944  0.82619192  1
  Na  Na61  1  0.25115224  0.74324654  0.85063492  1
  Fe  Fe62  1  0.46912622  0.80398569  0.45331918  1
  Fe  Fe63  1  0.96707160  0.30736234  0.78468444  1
  Fe  Fe64  1  0.46618045  0.31435759  0.45604486  1
  Fe  Fe65  1  0.47013773  0.80218576  0.79202384  1
  Fe  Fe66  1  0.96441046  0.80799766  0.78441472  1
  Fe  Fe67  1  0.46644773  0.30979181  0.12228880  1
  Fe  Fe68  1  0.95620248  0.81242117  0.45188979  1
  Fe  Fe69  1  0.96291008  0.80432887  0.11547459  1
  Fe  Fe70  1  0.96474156  0.30320015  0.11789983  1
  Fe  Fe71  1  0.96565001  0.30636458  0.45258095  1
  Fe  Fe72  1  0.19117541  0.04093315  0.05120322  1
  Fe  Fe73  1  0.19612161  0.03609910  0.38412590  1
  Fe  Fe74  1  0.69575049  0.53078896  0.70835172  1
  Fe  Fe75  1  0.19424059  0.53775306  0.04708223  1
  Fe  Fe76  1  0.19691479  0.53692282  0.71323337  1
  Fe  Fe77  1  0.19167198  0.53409817  0.38139804  1
  Fe  Fe78  1  0.19081591  0.03270018  0.71395894  1
  Fe  Fe79  1  0.69247969  0.03326903  0.37478139  1
  Fe  Fe80  1  0.68550484  0.54050718  0.38212738  1
  Fe  Fe81  1  0.68869497  0.03495183  0.04139128  1
  Fe  Fe82  1  0.03918444  0.19403565  0.55195128  1
  Fe  Fe83  1  0.53350119  0.19275752  0.21126150  1
  Fe  Fe84  1  0.53293511  0.20201418  0.87537801  1
  Fe  Fe85  1  0.03479966  0.19479749  0.88277064  1
  Fe  Fe86  1  0.03465387  0.69199203  0.88125916  1
  Fe  Fe87  1  0.53704255  0.69099834  0.54839860  1
  Fe  Fe88  1  0.53359582  0.19780728  0.55274996  1
  Fe  Fe89  1  0.03569433  0.18947443  0.21371855  1
  Fe  Fe90  1  0.02931433  0.69706741  0.54659449  1
  Fe  Fe91  1  0.03634291  0.69294271  0.21254012  1
  Fe  Fe92  1  0.79963934  0.96778702  0.61700932  1
  Fe  Fe93  1  0.30456026  0.96802223  0.95097462  1
  Fe  Fe94  1  0.30701273  0.96168787  0.61920595  1
  Fe  Fe95  1  0.79963986  0.46678279  0.95959850  1
  Fe  Fe96  1  0.80716465  0.96682672  0.95024718  1
  Fe  Fe97  1  0.30649439  0.96657722  0.28338686  1
  Fe  Fe98  1  0.80426186  0.46616743  0.28422579  1
  Fe  Fe99  1  0.81027987  0.96373090  0.28316773  1
  Fe  Fe100  1  0.30935690  0.46525930  0.95157246  1
  Fe  Fe101  1  0.30486323  0.46371721  0.28309212  1
  S  S102  1  0.35735910  0.14450112  0.08294247  1
  S  S103  1  0.35991531  0.14163088  0.41477294  1
  S  S104  1  0.35671561  0.13560708  0.75089300  1
  S  S105  1  0.36148666  0.63433220  0.08509297  1
  S  S106  1  0.35732436  0.63957169  0.41679163  1
  S  S107  1  0.35850570  0.64643033  0.75360910  1
  S  S108  1  0.86108294  0.13764492  0.08372252  1
  S  S109  1  0.86275243  0.13786058  0.41503227  1
  S  S110  1  0.86262389  0.14179889  0.74693674  1
  S  S111  1  0.86244302  0.63768792  0.08641653  1
  S  S112  1  0.85856143  0.64105963  0.41526538  1
  S  S113  1  0.85928320  0.64460866  0.75089139  1
  S  S114  1  0.13684940  0.36000353  0.24998684  1
  S  S115  1  0.13965547  0.35961402  0.58323634  1
  S  S116  1  0.13925689  0.36191953  0.91822997  1
  S  S117  1  0.14005749  0.86151585  0.24921803  1
  S  S118  1  0.13584032  0.86034363  0.58095845  1
  S  S119  1  0.13650530  0.86218932  0.91703724  1
  S  S120  1  0.64200197  0.35755593  0.25469708  1
  S  S121  1  0.64429467  0.35627371  0.58058035  1
  S  S122  1  0.64734061  0.35761013  0.91875760  1
  S  S123  1  0.64637564  0.86128527  0.24722357  1
  S  S124  1  0.64159183  0.85648285  0.58193527  1
  S  S125  1  0.64335665  0.86126291  0.91319303  1
  S  S126  1  0.06586875  0.17063280  0.04109053  1
  S  S127  1  0.06857942  0.16704936  0.37644714  1
  S  S128  1  0.07202439  0.16967149  0.71334939  1
  S  S129  1  0.07077620  0.67262056  0.04444731  1
  S  S130  1  0.06521142  0.67048511  0.37459268  1
  S  S131  1  0.06636125  0.67252779  0.70957287  1
  S  S132  1  0.56697849  0.17194326  0.04192977  1
  S  S133  1  0.56786801  0.17127567  0.37428996  1
  S  S134  1  0.55940881  0.16234126  0.70705929  1
  S  S135  1  0.57454554  0.66556096  0.03721249  1
  S  S136  1  0.55447702  0.65704357  0.37394415  1
  S  S137  1  0.57071399  0.67526003  0.71045793  1
  S  S138  1  0.32565344  0.43122488  0.12297090  1
  S  S139  1  0.32601956  0.43470523  0.45228108  1
  S  S140  1  0.32586826  0.43778620  0.79063161  1
  S  S141  1  0.32798582  0.94316622  0.12072718  1
  S  S142  1  0.33268169  0.93308402  0.45917787  1
  S  S143  1  0.32659828  0.92599184  0.78671500  1
  S  S144  1  0.83427470  0.42866356  0.12552862  1
  S  S145  1  0.84163052  0.43645038  0.45812448  1
  S  S146  1  0.83440421  0.43117636  0.79832213  1
  S  S147  1  0.82996167  0.92995084  0.12011156  1
  S  S148  1  0.82897773  0.93605693  0.45653796  1
  S  S149  1  0.83742200  0.93581904  0.79029453  1
  S  S150  1  0.43467384  0.33329267  0.29245711  1
  S  S151  1  0.43652083  0.33135379  0.62020001  1
  S  S152  1  0.43216879  0.32787891  0.96085761  1
  S  S153  1  0.42868625  0.83462982  0.29351984  1
  S  S154  1  0.43131201  0.82769404  0.62605059  1
  S  S155  1  0.43402709  0.84394935  0.95705017  1
  S  S156  1  0.93360848  0.32715377  0.28986344  1
  S  S157  1  0.93809456  0.33029945  0.62337332  1
  S  S158  1  0.92784134  0.32534369  0.95691944  1
  S  S159  1  0.93522820  0.83208778  0.29002506  1
  S  S160  1  0.92957210  0.83086732  0.62429429  1
  S  S161  1  0.93123362  0.82929516  0.95542651  1
  S  S162  1  0.16913653  0.06678720  0.21190674  1
  S  S163  1  0.17187675  0.06896948  0.54418184  1
  S  S164  1  0.16481461  0.06688489  0.87578808  1
  S  S165  1  0.16955376  0.56681153  0.21037505  1
  S  S166  1  0.15925750  0.56914714  0.53874748  1
  S  S167  1  0.16152832  0.56768737  0.87136062  1
  S  S168  1  0.67206455  0.07124525  0.20710737  1
  S  S169  1  0.67186336  0.06921733  0.53859808  1
  S  S170  1  0.66986272  0.06928296  0.87566595  1
  S  S171  1  0.66729138  0.55589794  0.21446088  1
  S  S172  1  0.67098850  0.56814248  0.54479633  1
  S  S173  1  0.67362463  0.55843574  0.86942137  1
  O  O174  1  0.36921945  0.22442236  0.07834196  1
  O  O175  1  0.36753501  0.22088475  0.40733542  1
  O  O176  1  0.35550754  0.21271453  0.74165604  1
  O  O177  1  0.37174459  0.71292583  0.08190304  1
  O  O178  1  0.36789355  0.72013453  0.41228426  1
  O  O179  1  0.37298217  0.72764750  0.74538027  1
  O  O180  1  0.86789322  0.21761860  0.07677672  1
  O  O181  1  0.87325668  0.21630996  0.40589623  1
  O  O182  1  0.87693826  0.21856579  0.73456285  1
  O  O183  1  0.87456256  0.71296734  0.07047574  1
  O  O184  1  0.86967543  0.71940109  0.40808655  1
  O  O185  1  0.86839985  0.72609968  0.74714217  1
  O  O186  1  0.27992138  0.13728801  0.09365084  1
  O  O187  1  0.28190310  0.13222003  0.42534520  1
  O  O188  1  0.28262919  0.11864645  0.76704449  1
  O  O189  1  0.28119888  0.62544184  0.09624688  1
  O  O190  1  0.27725494  0.63121165  0.42350914  1
  O  O191  1  0.27183741  0.64242020  0.74491428  1
  O  O192  1  0.78353411  0.12821232  0.09474110  1
  O  O193  1  0.78330107  0.13141796  0.42234641  1
  O  O194  1  0.78612341  0.13825892  0.75648432  1
  O  O195  1  0.78852409  0.63329742  0.10048439  1
  O  O196  1  0.78187073  0.62892984  0.42430293  1
  O  O197  1  0.77962843  0.63373010  0.75648748  1
  O  O198  1  0.12620536  0.28125081  0.25837976  1
  O  O199  1  0.13023983  0.28311867  0.59765588  1
  O  O200  1  0.12871835  0.28471754  0.92999020  1
  O  O201  1  0.13156816  0.78310699  0.25878284  1
  O  O202  1  0.12857397  0.78159547  0.59063043  1
  O  O203  1  0.12656656  0.78440394  0.92581068  1
  O  O204  1  0.63075149  0.27629362  0.25806638  1
  O  O205  1  0.63290751  0.27581605  0.58772539  1
  O  O206  1  0.63856802  0.27220734  0.91579695  1
  O  O207  1  0.63770897  0.78691641  0.26000361  1
  O  O208  1  0.63290645  0.77563149  0.58619177  1
  O  O209  1  0.64357852  0.78443381  0.92281811  1
  O  O210  1  0.21600721  0.36766014  0.24337158  1
  O  O211  1  0.21612339  0.36691397  0.57386800  1
  O  O212  1  0.21866903  0.36922448  0.91166792  1
  O  O213  1  0.21797330  0.87006429  0.23925427  1
  O  O214  1  0.21320846  0.86848925  0.56863917  1
  O  O215  1  0.21520789  0.87188092  0.90919998  1
  O  O216  1  0.72091487  0.36348856  0.24504783  1
  O  O217  1  0.71881643  0.36325274  0.56698566  1
  O  O218  1  0.73374810  0.36504572  0.91819747  1
  O  O219  1  0.72917326  0.87396665  0.24644555  1
  O  O220  1  0.72170247  0.86827437  0.57798092  1
  O  O221  1  0.71810136  0.87824003  0.89826554  1
  O  O222  1  0.41868219  0.13277968  0.14819357  1
  O  O223  1  0.42070927  0.13020590  0.47990866  1
  O  O224  1  0.42227662  0.12936890  0.81606760  1
  O  O225  1  0.41881932  0.61455291  0.14602348  1
  O  O226  1  0.41529581  0.62844269  0.48368755  1
  O  O227  1  0.40408247  0.64288599  0.82674865  1
  O  O228  1  0.92170385  0.13022360  0.15114775  1
  O  O229  1  0.92169529  0.12872530  0.48263129  1
  O  O230  1  0.92399320  0.13363852  0.81467794  1
  O  O231  1  0.92684958  0.63145250  0.15239924  1
  O  O232  1  0.91983576  0.63210025  0.48311126  1
  O  O233  1  0.91697581  0.63701435  0.82138108  1
  O  O234  1  0.36140816  0.08717376  0.01208066  1
  O  O235  1  0.36565731  0.08333474  0.34504365  1
  O  O236  1  0.36294964  0.07588826  0.68176041  1
  O  O237  1  0.36072211  0.57715938  0.01117019  1
  O  O238  1  0.36345418  0.58194591  0.34718888  1
  O  O239  1  0.37465939  0.58793333  0.69162542  1
  O  O240  1  0.86813887  0.08075928  0.01453918  1
  O  O241  1  0.87083394  0.07830797  0.34694555  1
  O  O242  1  0.87034168  0.07975663  0.67990226  1
  O  O243  1  0.86678384  0.57436503  0.01733004  1
  O  O244  1  0.87006989  0.58164813  0.34787905  1
  O  O245  1  0.87177498  0.58849154  0.68541420  1
  O  O246  1  0.07819984  0.36874606  0.18175761  1
  O  O247  1  0.07809896  0.36250608  0.51291488  1
  O  O248  1  0.08129131  0.36708781  0.84852706  1
  O  O249  1  0.07913658  0.87032670  0.18251740  1
  O  O250  1  0.07492952  0.86692807  0.51372116  1
  O  O251  1  0.07776648  0.86965192  0.84779521  1
  O  O252  1  0.58259742  0.36907737  0.18888921  1
  O  O253  1  0.58115356  0.36583929  0.51508208  1
  O  O254  1  0.59634264  0.36897310  0.85141436  1
  O  O255  1  0.59312007  0.86876731  0.17742738  1
  O  O256  1  0.58364666  0.86385895  0.51163721  1
  O  O257  1  0.57939005  0.86498730  0.84461200  1
  O  O258  1  0.12682606  0.41951669  0.31715312  1
  O  O259  1  0.12708785  0.42211394  0.64708834  1
  O  O260  1  0.12864598  0.42352123  0.98401130  1
  O  O261  1  0.13354970  0.92106375  0.31826761  1
  O  O262  1  0.13112250  0.91941522  0.65021824  1
  O  O263  1  0.12596684  0.92326203  0.98317929  1
  O  O264  1  0.63804477  0.41303548  0.32579316  1
  O  O265  1  0.64080152  0.41320832  0.65125023  1
  O  O266  1  0.64170461  0.40779668  0.98913457  1
  O  O267  1  0.63252739  0.92461926  0.31246416  1
  O  O268  1  0.62894359  0.91285812  0.64758918  1
  O  O269  1  0.63522345  0.92113427  0.98080662  1
  O  O270  1  0.03123837  0.20062335  0.10358528  1
  O  O271  1  0.03400956  0.19694656  0.43854521  1
  O  O272  1  0.03664771  0.20334360  0.77488651  1
  O  O273  1  0.03554005  0.70370746  0.10638521  1
  O  O274  1  0.03014292  0.70089695  0.43588965  1
  O  O275  1  0.02920467  0.70028659  0.77040602  1
  O  O276  1  0.53116735  0.20395308  0.10387182  1
  O  O277  1  0.53085513  0.20035558  0.43427527  1
  O  O278  1  0.52525495  0.20151625  0.76578186  1
  O  O279  1  0.54601874  0.68135659  0.10307694  1
  O  O280  1  0.52657895  0.69599018  0.44132659  1
  O  O281  1  0.52926610  0.70583009  0.76691484  1
  O  O282  1  0.29655916  0.46576305  0.06097514  1
  O  O283  1  0.29345542  0.46849778  0.38760755  1
  O  O284  1  0.28980088  0.47599917  0.73294470  1
  O  O285  1  0.28918074  0.97964117  0.06034738  1
  O  O286  1  0.30237822  0.97059783  0.39873404  1
  O  O287  1  0.29504356  0.95822581  0.72229286  1
  O  O288  1  0.81171647  0.46393935  0.06495192  1
  O  O289  1  0.80869567  0.46598734  0.39266041  1
  O  O290  1  0.81120747  0.47179857  0.74216355  1
  O  O291  1  0.80265837  0.96742089  0.05991457  1
  O  O292  1  0.80084726  0.97497277  0.39659340  1
  O  O293  1  0.81634756  0.97237333  0.73104695  1
  O  O294  1  0.47007276  0.30140034  0.23093297  1
  O  O295  1  0.46834366  0.29408443  0.55330736  1
  O  O296  1  0.46938423  0.29924472  0.90234585  1
  O  O297  1  0.45916211  0.81613389  0.23123701  1
  O  O298  1  0.47054272  0.80032482  0.56705253  1
  O  O299  1  0.46494416  0.81856815  0.89180036  1
  O  O300  1  0.96700402  0.29466684  0.22700868  1
  O  O301  1  0.97044364  0.29127465  0.55992907  1
  O  O302  1  0.96556909  0.30040327  0.89604599  1
  O  O303  1  0.97305790  0.80168920  0.22993432  1
  O  O304  1  0.96563339  0.80128888  0.56230681  1
  O  O305  1  0.96927359  0.79938621  0.89551339  1
  O  O306  1  0.20138822  0.02969646  0.27263433  1
  O  O307  1  0.19911748  0.03192738  0.60467157  1
  O  O308  1  0.19692772  0.03261350  0.93800757  1
  O  O309  1  0.19844054  0.52756574  0.26978702  1
  O  O310  1  0.18327580  0.53593110  0.59989059  1
  O  O311  1  0.19168461  0.53212039  0.93294025  1
  O  O312  1  0.70420442  0.03665445  0.26872180  1
  O  O313  1  0.69747096  0.03108677  0.59706392  1
  O  O314  1  0.70347514  0.04069646  0.94321978  1
  O  O315  1  0.70235967  0.52256320  0.28030862  1
  O  O316  1  0.69311010  0.53032232  0.60322108  1
  O  O317  1  0.70751582  0.52073291  0.92943083  1
  O  O318  1  0.08585137  0.08974529  0.03824197  1
  O  O319  1  0.08506713  0.08420882  0.37037151  1
  O  O320  1  0.08572882  0.08766225  0.71077661  1
  O  O321  1  0.08806264  0.59091656  0.03963480  1
  O  O322  1  0.08076777  0.58729068  0.36765589  1
  O  O323  1  0.08575724  0.59131570  0.70268378  1
  O  O324  1  0.58392553  0.09096261  0.04047468  1
  O  O325  1  0.58347289  0.08855932  0.36743559  1
  O  O326  1  0.56868549  0.08067285  0.70530265  1
  O  O327  1  0.58962467  0.58258098  0.01669273  1
  O  O328  1  0.56899041  0.57390422  0.37328821  1
  O  O329  1  0.59585057  0.59876542  0.71357036  1
  O  O330  1  0.40734846  0.41278846  0.13028851  1
  O  O331  1  0.40611500  0.41481720  0.45118899  1
  O  O332  1  0.40258819  0.41833857  0.78696035  1
  O  O333  1  0.40820678  0.93447779  0.12023351  1
  O  O334  1  0.41484411  0.91668089  0.46597443  1
  O  O335  1  0.40676797  0.90517743  0.78891084  1
  O  O336  1  0.91651147  0.40794272  0.13606865  1
  O  O337  1  0.92433115  0.41715615  0.45976762  1
  O  O338  1  0.91903161  0.41531918  0.80677497  1
  O  O339  1  0.91201565  0.91066043  0.12701159  1
  O  O340  1  0.91185486  0.92068034  0.46013228  1
  O  O341  1  0.92210475  0.91925023  0.80409825  1
  O  O342  1  0.41579211  0.41462503  0.29467097  1
  O  O343  1  0.41723560  0.40891743  0.61941386  1
  O  O344  1  0.41059384  0.40786241  0.96609386  1
  O  O345  1  0.41130220  0.92018198  0.31103999  1
  O  O346  1  0.41555850  0.91059462  0.63402186  1
  O  O347  1  0.40724251  0.92404184  0.96087288  1
  O  O348  1  0.91681567  0.40894348  0.29477449  1
  O  O349  1  0.93007802  0.41169156  0.62607481  1
  O  O350  1  0.90521891  0.40555943  0.96324548  1
  O  O351  1  0.92157115  0.91570959  0.29511782  1
  O  O352  1  0.90702487  0.91012719  0.62635434  1
  O  O353  1  0.91326136  0.91037126  0.95848806  1
  O  O354  1  0.08810418  0.08376082  0.21122824  1
  O  O355  1  0.08981254  0.08749343  0.53683724  1
  O  O356  1  0.08167786  0.08125755  0.87015339  1
  O  O357  1  0.08873829  0.58559654  0.20832415  1
  O  O358  1  0.07535021  0.58701297  0.52753705  1
  O  O359  1  0.07723223  0.58102376  0.86447141  1
  O  O360  1  0.58993199  0.08752022  0.20175526  1
  O  O361  1  0.58999376  0.08983891  0.53395371  1
  O  O362  1  0.59243726  0.09697182  0.87623082  1
  O  O363  1  0.58764844  0.57195852  0.21434077  1
  O  O364  1  0.58747475  0.58445068  0.53067407  1
  O  O365  1  0.59252461  0.56868902  0.86014634  1
  O  O366  1  0.13412269  0.22302976  0.05266726  1
  O  O367  1  0.13950040  0.21789936  0.39020160  1
  O  O368  1  0.14447392  0.21832176  0.72781158  1
  O  O369  1  0.14069377  0.72432419  0.05860806  1
  O  O370  1  0.13799323  0.72051826  0.39050710  1
  O  O371  1  0.13639500  0.72701922  0.72767199  1
  O  O372  1  0.64007337  0.22257724  0.05921494  1
  O  O373  1  0.64139967  0.22123792  0.39169438  1
  O  O374  1  0.63417415  0.20733005  0.71795225  1
  O  O375  1  0.64958250  0.71875935  0.06141007  1
  O  O376  1  0.62710570  0.70022021  0.38303454  1
  O  O377  1  0.63836947  0.73188542  0.72471162  1
  O  O378  1  0.27244795  0.36225977  0.10902468  1
  O  O379  1  0.27414954  0.36136090  0.43312575  1
  O  O380  1  0.27231940  0.36583096  0.77561987  1
  O  O381  1  0.27976794  0.87039401  0.10564675  1
  O  O382  1  0.28041975  0.86087211  0.44077645  1
  O  O383  1  0.27306994  0.85729198  0.77469760  1
  O  O384  1  0.78058452  0.35870940  0.10991236  1
  O  O385  1  0.79311744  0.36355733  0.44541630  1
  O  O386  1  0.78399071  0.35843923  0.77961289  1
  O  O387  1  0.77720808  0.86053903  0.10463145  1
  O  O388  1  0.77986140  0.86459187  0.43999634  1
  O  O389  1  0.78565633  0.86410696  0.77182291  1
  O  O390  1  0.36488046  0.28135690  0.27869804  1
  O  O391  1  0.36521561  0.27609565  0.60270794  1
  O  O392  1  0.36143904  0.27364674  0.94532061  1
  O  O393  1  0.35532711  0.78380475  0.27651505  1
  O  O394  1  0.35894338  0.77604188  0.60645896  1
  O  O395  1  0.36771515  0.78832941  0.94486458  1
  O  O396  1  0.86187592  0.27630479  0.27566668  1
  O  O397  1  0.86461838  0.28351794  0.61031284  1
  O  O398  1  0.86016621  0.26874190  0.94029682  1
  O  O399  1  0.86388557  0.78220436  0.27385404  1
  O  O400  1  0.86408716  0.77530021  0.61334691  1
  O  O401  1  0.86024681  0.77748440  0.93980025  1
  O  O402  1  0.21964263  0.13810068  0.22715083  1
  O  O403  1  0.22444187  0.13901191  0.55950210  1
  O  O404  1  0.21346300  0.13951928  0.89063949  1
  O  O405  1  0.22164590  0.63818655  0.22868405  1
  O  O406  1  0.21088586  0.64037386  0.55308289  1
  O  O407  1  0.20891986  0.64063499  0.88648183  1
  O  O408  1  0.72326696  0.14346924  0.22325380  1
  O  O409  1  0.72578877  0.14028226  0.55665341  1
  O  O410  1  0.72654595  0.13555947  0.88656897  1
  O  O411  1  0.71989045  0.62644083  0.23151663  1
  O  O412  1  0.72331912  0.63950602  0.56417437  1
  O  O413  1  0.72533913  0.63284467  0.89075381  1
  O  O414  1  0.49080650  0.33237044  0.03566100  1
  O  O415  1  0.49533090  0.33943951  0.36559534  1
  O  O416  1  0.49693326  0.32973662  0.68785399  1
  O  O417  1  0.49820639  0.85546663  0.02652919  1
  O  O418  1  0.48831664  0.82986941  0.36375588  1
  O  O419  1  0.48816852  0.82754628  0.69960950  1
  O  O420  1  0.98952650  0.32802682  0.02840611  1
  O  O421  1  0.99429815  0.32803867  0.36086693  1
  O  O422  1  0.99685145  0.32953511  0.69574448  1
  O  O423  1  0.99074777  0.83191035  0.02814956  1
  O  O424  1  0.99369898  0.83603860  0.36417265  1
  O  O425  1  0.99322445  0.83921257  0.69706320  1
  O  O426  1  0.16464722  0.00828620  0.13864048  1
  O  O427  1  0.16868312  0.00802200  0.47140004  1
  O  O428  1  0.16365036  0.00662469  0.80410468  1
  O  O429  1  0.16655995  0.50933035  0.13704528  1
  O  O430  1  0.15854715  0.50880771  0.46646243  1
  O  O431  1  0.16114565  0.50864243  0.79929764  1
  O  O432  1  0.66972712  0.01215494  0.13462471  1
  O  O433  1  0.66617596  0.01214649  0.46400414  1
  O  O434  1  0.66005360  0.00391171  0.80755840  1
  O  O435  1  0.66586366  0.49545463  0.14522452  1
  O  O436  1  0.67570456  0.51037807  0.47297287  1
  O  O437  1  0.68177085  0.50366574  0.79769587  1
  O  O438  1  0.00757997  0.16399874  0.30419470  1
  O  O439  1  0.01284208  0.16733534  0.64061861  1
  O  O440  1  0.00339980  0.16335404  0.96843334  1
  O  O441  1  0.00664882  0.66923523  0.30219048  1
  O  O442  1  0.00672841  0.67098491  0.63737971  1
  O  O443  1  0.00897843  0.66858435  0.97238250  1
  O  O444  1  0.50991520  0.17189587  0.30183102  1
  O  O445  1  0.50342163  0.15897932  0.63082196  1
  O  O446  1  0.50945537  0.17104868  0.97006101  1
  O  O447  1  0.48978455  0.65168273  0.30619537  1
  O  O448  1  0.51227485  0.66541481  0.63423774  1
  O  O449  1  0.51803970  0.68296175  0.97408898  1
  O  O450  1  0.32941996  0.49277191  0.19571960  1
  O  O451  1  0.32690600  0.49293042  0.52131668  1
  O  O452  1  0.32962069  0.49363259  0.86584559  1
  O  O453  1  0.32979233  0.99938429  0.19557065  1
  O  O454  1  0.33182667  0.99073355  0.53147530  1
  O  O455  1  0.32849643  0.98947236  0.85626272  1
  O  O456  1  0.83659600  0.48944434  0.19774766  1
  O  O457  1  0.84836960  0.49761214  0.52816149  1
  O  O458  1  0.83834831  0.48639701  0.87501567  1
  O  O459  1  0.83495989  0.99116724  0.19343399  1
  O  O460  1  0.83157637  0.99494676  0.52953825  1
  O  O461  1  0.83575852  0.99390669  0.86273375  1
