# generated using pymatgen
data_Na31Fe20(SO4)36
_symmetry_space_group_name_H-M   'P 1'
_cell_length_a   18.09986997
_cell_length_b   18.09158352
_cell_length_c   19.73550810
_cell_angle_alpha   107.55446211
_cell_angle_beta   107.56315266
_cell_angle_gamma   90.77092400
_symmetry_Int_Tables_number   1
_chemical_formula_structural   Na31Fe20(SO4)36
_chemical_formula_sum   'Na62 Fe40 S72 O288'
_cell_volume   5835.39757442
_cell_formula_units_Z   2
loop_
 _symmetry_equiv_pos_site_id
 _symmetry_equiv_pos_as_xyz
  1  'x, y, z'
loop_
 _atom_site_type_symbol
 _atom_site_label
 _atom_site_symmetry_multiplicity
 _atom_site_fract_x
 _atom_site_fract_y
 _atom_site_fract_z
 _atom_site_occupancy
  Na  Na0  1  0.15977733  0.38394695  0.11041115  1
  Na  Na1  1  0.11720825  0.36470930  0.40091979  1
  Na  Na2  1  0.13135177  0.37024798  0.75120717  1
  Na  Na3  1  0.13744932  0.87387760  0.09884453  1
  Na  Na4  1  0.12830516  0.87534578  0.41315683  1
  Na  Na5  1  0.13807375  0.86668060  0.75432205  1
  Na  Na6  1  0.63119788  0.36193454  0.08136083  1
  Na  Na7  1  0.62789820  0.34632581  0.40683973  1
  Na  Na8  1  0.63910349  0.35826710  0.75275766  1
  Na  Na9  1  0.63763469  0.86397915  0.08337300  1
  Na  Na10  1  0.62963969  0.86706998  0.41366121  1
  Na  Na11  1  0.63397612  0.86390785  0.74832113  1
  Na  Na12  1  0.36391452  0.14433841  0.25571694  1
  Na  Na13  1  0.35650237  0.13478665  0.57167276  1
  Na  Na14  1  0.36143939  0.13542869  0.91365100  1
  Na  Na15  1  0.34743096  0.62497185  0.23056142  1
  Na  Na16  1  0.36511742  0.62857542  0.58097686  1
  Na  Na17  1  0.36919561  0.63703805  0.92328659  1
  Na  Na18  1  0.88200988  0.13408440  0.25311916  1
  Na  Na19  1  0.85677855  0.13707475  0.57631644  1
  Na  Na20  1  0.86090017  0.13714953  0.91199884  1
  Na  Na21  1  0.87659336  0.62026727  0.24636098  1
  Na  Na22  1  0.86685945  0.62995477  0.58328366  1
  Na  Na23  1  0.87775080  0.63082539  0.92693976  1
  Na  Na24  1  0.42392343  0.49944348  0.39034337  1
  Na  Na25  1  0.98924141  0.01172467  0.10399339  1
  Na  Na26  1  0.49262260  0.50026497  0.75444487  1
  Na  Na27  1  0.43406948  0.01388235  0.39079410  1
  Na  Na28  1  0.48509133  0.01704057  0.74603584  1
  Na  Na29  1  1.04686964  0.48822454  0.03782158  1
  Na  Na30  1  0.98604793  0.01254309  0.74620660  1
  Na  Na31  1  0.48308218  0.51091131  0.07241027  1
  Na  Na32  1  0.48877474  0.03681554  0.09411446  1
  Na  Na33  1  0.00881274  0.99910643  0.56228167  1
  Na  Na34  1  0.50447601  0.48600108  0.25379617  1
  Na  Na35  1  0.47202145  0.32769120  0.46224187  1
  Na  Na36  1  0.48961933  1.01355476  0.25069262  1
  Na  Na37  1  0.09022109  1.01552959  0.29347615  1
  Na  Na38  1  0.00909512  0.48278206  0.58576000  1
  Na  Na39  1  0.51224078  0.99921562  0.57855693  1
  Na  Na40  1  0.51166111  0.98954131  0.91722030  1
  Na  Na41  1  0.01303368  0.99059592  0.92254375  1
  Na  Na42  1  0.75947045  0.25636758  0.66422095  1
  Na  Na43  1  0.24788140  0.25228317  0.00427440  1
  Na  Na44  1  0.23299771  0.23716642  0.34366562  1
  Na  Na45  1  0.76727432  0.76152348  -0.00332707  1
  Na  Na46  1  0.75838034  0.25533284  -0.00948289  1
  Na  Na47  1  0.74670254  0.74513622  0.66561325  1
  Na  Na48  1  0.25794956  0.77353297  0.32038965  1
  Na  Na49  1  0.75691155  0.75146055  0.32653368  1
  Na  Na50  1  0.24385292  0.74468137  0.67115057  1
  Na  Na51  1  0.74025405  0.23618408  0.34067074  1
  Na  Na52  1  0.25482675  0.75710057  0.14716885  1
  Na  Na53  1  0.75094065  0.75087799  0.49730264  1
  Na  Na54  1  0.74232354  0.24703909  0.16960813  1
  Na  Na55  1  0.75686007  0.74989763  0.83475326  1
  Na  Na56  1  0.23342696  0.23637394  0.51455277  1
  Na  Na57  1  0.25429666  0.76229354  0.49622506  1
  Na  Na58  1  0.24085946  0.74062555  0.84958045  1
  Na  Na59  1  0.25469081  0.26062880  0.81990397  1
  Na  Na60  1  0.24354558  0.25591008  0.18059739  1
  Na  Na61  1  0.76771920  0.75551435  0.15843353  1
  Fe  Fe62  1  0.97108220  0.30004237  0.12741366  1
  Fe  Fe63  1  0.96140963  0.30410640  0.45298420  1
  Fe  Fe64  1  0.96532596  0.80709468  0.78540961  1
  Fe  Fe65  1  0.46633293  0.81152565  0.11888767  1
  Fe  Fe66  1  0.46491611  0.80479587  0.44870045  1
  Fe  Fe67  1  0.96383167  0.80535532  0.45167741  1
  Fe  Fe68  1  0.96417633  0.31168856  0.79080562  1
  Fe  Fe69  1  0.46992308  0.29878130  0.12540804  1
  Fe  Fe70  1  0.46617945  0.80535376  0.78365313  1
  Fe  Fe71  1  0.46172878  0.31269407  0.79087266  1
  Fe  Fe72  1  0.69261283  0.53169813  0.38266739  1
  Fe  Fe73  1  0.19362439  0.53580942  0.71442595  1
  Fe  Fe74  1  0.69244819  0.03669722  0.05206431  1
  Fe  Fe75  1  0.18783689  0.53850733  0.37182100  1
  Fe  Fe76  1  0.19751955  0.03576671  0.05216555  1
  Fe  Fe77  1  0.68953709  0.03746719  0.71528313  1
  Fe  Fe78  1  0.19045678  0.03776399  0.71656538  1
  Fe  Fe79  1  0.68897047  0.03543273  0.38021082  1
  Fe  Fe80  1  0.69265846  0.53206987  0.71236856  1
  Fe  Fe81  1  0.69210446  0.53013109  0.04731906  1
  Fe  Fe82  1  0.03705209  0.69182725  0.88337827  1
  Fe  Fe83  1  0.53553845  0.19784909  0.54831015  1
  Fe  Fe84  1  0.03690022  0.18813794  0.54698865  1
  Fe  Fe85  1  0.53043965  0.68723904  0.54372729  1
  Fe  Fe86  1  0.53601625  0.19381616  0.88166246  1
  Fe  Fe87  1  0.03544524  0.68756725  0.53997797  1
  Fe  Fe88  1  0.03430905  0.19232643  0.88204375  1
  Fe  Fe89  1  0.53804161  0.69201502  0.21390653  1
  Fe  Fe90  1  0.53715004  0.69364053  0.88251676  1
  Fe  Fe91  1  0.02925507  0.70265118  0.20150426  1
  Fe  Fe92  1  0.29883267  0.46956033  0.95429297  1
  Fe  Fe93  1  0.81484837  0.46126709  0.62684955  1
  Fe  Fe94  1  0.80985234  0.96630127  0.28525012  1
  Fe  Fe95  1  0.81126394  0.46555698  0.28999891  1
  Fe  Fe96  1  0.30936987  0.96345858  0.95193827  1
  Fe  Fe97  1  0.30340411  0.96845414  0.61543622  1
  Fe  Fe98  1  0.80172551  0.96616684  0.61711219  1
  Fe  Fe99  1  0.30677428  0.46017329  0.61831151  1
  Fe  Fe100  1  0.80753219  0.96624999  0.95379870  1
  Fe  Fe101  1  0.81320254  0.45741975  0.95621243  1
  S  S102  1  0.35683588  0.14009252  0.07821701  1
  S  S103  1  0.36072814  0.15774650  0.42551894  1
  S  S104  1  0.36134983  0.14049113  0.75319573  1
  S  S105  1  0.36743526  0.64046622  0.08240000  1
  S  S106  1  0.35199988  0.64804463  0.41425668  1
  S  S107  1  0.36158444  0.63984648  0.74957644  1
  S  S108  1  0.85448624  0.13889102  0.07928739  1
  S  S109  1  0.85956286  0.13583877  0.41938033  1
  S  S110  1  0.85887465  0.13814877  0.74986433  1
  S  S111  1  0.85716525  0.63389141  0.08398596  1
  S  S112  1  0.85708007  0.64036730  0.41854526  1
  S  S113  1  0.85926423  0.64104210  0.74887069  1
  S  S114  1  0.14000574  0.36831752  0.25271088  1
  S  S115  1  0.13676925  0.36137947  0.58411696  1
  S  S116  1  0.13969745  0.35431003  0.91736809  1
  S  S117  1  0.14256999  0.85960109  0.25193979  1
  S  S118  1  0.13780339  0.86139372  0.58524231  1
  S  S119  1  0.13977772  0.86154127  0.91370945  1
  S  S120  1  0.64343632  0.36030219  0.24972898  1
  S  S121  1  0.65113585  0.35866229  0.59185543  1
  S  S122  1  0.63995035  0.35979020  0.91743936  1
  S  S123  1  0.64352190  0.85734281  0.24924951  1
  S  S124  1  0.63824271  0.85763526  0.58332372  1
  S  S125  1  0.64068973  0.86041445  0.91605621  1
  S  S126  1  0.06717443  0.16859109  0.04002619  1
  S  S127  1  0.06880997  0.17436464  0.38888091  1
  S  S128  1  0.06215219  0.16448881  0.70907340  1
  S  S129  1  0.06658759  0.68013572  0.04350999  1
  S  S130  1  0.07046608  0.68026515  0.37789796  1
  S  S131  1  0.06751664  0.67309840  0.70737378  1
  S  S132  1  0.56350106  0.16590023  0.03900721  1
  S  S133  1  0.56679446  0.16105228  0.37611057  1
  S  S134  1  0.56707206  0.16913550  0.71036994  1
  S  S135  1  0.57432994  0.67033122  0.04411044  1
  S  S136  1  0.56606268  0.66873967  0.37529552  1
  S  S137  1  0.56926512  0.67058990  0.71097289  1
  S  S138  1  0.34481304  0.43110675  0.12478478  1
  S  S139  1  0.31519151  0.43937440  0.45497994  1
  S  S140  1  0.32663909  0.43417406  0.79164357  1
  S  S141  1  0.33849127  0.93900390  0.12356250  1
  S  S142  1  0.33936853  0.93308154  0.46331445  1
  S  S143  1  0.33361577  0.93256101  0.78886505  1
  S  S144  1  0.82550982  0.42140923  0.12137082  1
  S  S145  1  0.82626549  0.42980080  0.45964062  1
  S  S146  1  0.83051026  0.43394504  0.79324244  1
  S  S147  1  0.82941059  0.93707120  0.12165053  1
  S  S148  1  0.82618128  0.92930020  0.45721714  1
  S  S149  1  0.82836653  0.93318544  0.78844519  1
  S  S150  1  0.43838043  0.32958263  0.28636236  1
  S  S151  1  0.43571681  0.33101049  0.63031788  1
  S  S152  1  0.43053976  0.32496821  0.95646547  1
  S  S153  1  0.43917536  0.83099437  0.28646522  1
  S  S154  1  0.43443479  0.83065293  0.62484267  1
  S  S155  1  0.43785619  0.83369443  0.95592287  1
  S  S156  1  0.92237418  0.32370185  0.29000706  1
  S  S157  1  0.93503309  0.32657183  0.62697281  1
  S  S158  1  0.93387856  0.32472314  0.95988971  1
  S  S159  1  0.92648249  0.82214757  0.28990744  1
  S  S160  1  0.93051086  0.83128506  0.62401305  1
  S  S161  1  0.93775250  0.84065703  0.95746064  1
  S  S162  1  0.17299262  0.07274113  0.20829902  1
  S  S163  1  0.17257454  0.06603830  0.55015586  1
  S  S164  1  0.16874677  0.06472128  0.87607122  1
  S  S165  1  0.16340230  0.58246088  0.20959383  1
  S  S166  1  0.17060876  0.56981115  0.54273805  1
  S  S167  1  0.17368181  0.56965329  0.87370259  1
  S  S168  1  0.66606563  0.05925440  0.20945048  1
  S  S169  1  0.66811307  0.06534715  0.54496350  1
  S  S170  1  0.66434408  0.06319346  0.87365061  1
  S  S171  1  0.66783875  0.56582839  0.20963149  1
  S  S172  1  0.67144298  0.56739661  0.54409924  1
  S  S173  1  0.67297825  0.57080000  0.87719573  1
  O  O174  1  0.37170930  0.21812902  0.06904502  1
  O  O175  1  0.37236997  0.23869116  0.42568242  1
  O  O176  1  0.37028966  0.22102687  0.75108467  1
  O  O177  1  0.38150877  0.71760547  0.07199368  1
  O  O178  1  0.36232479  0.73050614  0.41416243  1
  O  O179  1  0.37199366  0.71709171  0.73782752  1
  O  O180  1  0.86832797  0.21828499  0.07411722  1
  O  O181  1  0.86525456  0.21623617  0.41429871  1
  O  O182  1  0.86923719  0.21777015  0.74509689  1
  O  O183  1  0.85497772  0.70938395  0.07119689  1
  O  O184  1  0.86380370  0.72149530  0.41463348  1
  O  O185  1  0.86819468  0.71895280  0.73721062  1
  O  O186  1  0.27445890  0.13647875  0.07882035  1
  O  O187  1  0.28814461  0.14705119  0.44251486  1
  O  O188  1  0.28552905  0.12954454  0.76666134  1
  O  O189  1  0.29373369  0.63451051  0.09657428  1
  O  O190  1  0.27370891  0.63887313  0.42489748  1
  O  O191  1  0.28113340  0.63387886  0.75479204  1
  O  O192  1  0.77339709  0.13435359  0.08561557  1
  O  O193  1  0.78239510  0.12267801  0.42942174  1
  O  O194  1  0.78184290  0.12676358  0.75957058  1
  O  O195  1  0.78363358  0.61725102  0.10043858  1
  O  O196  1  0.77898617  0.62926612  0.42812305  1
  O  O197  1  0.77792988  0.63327301  0.75262524  1
  O  O198  1  0.13572895  0.29719988  0.27280782  1
  O  O199  1  0.12763557  0.28398361  0.59373385  1
  O  O200  1  0.13282480  0.27061434  0.91634120  1
  O  O201  1  0.11884936  0.77930138  0.25893634  1
  O  O202  1  0.12787159  0.78097003  0.58985072  1
  O  O203  1  0.13017025  0.78034174  0.91375586  1
  O  O204  1  0.64296731  0.28501062  0.26197086  1
  O  O205  1  0.63642598  0.28093199  0.60128793  1
  O  O206  1  0.63162262  0.28088918  0.92667292  1
  O  O207  1  0.63408544  0.77895949  0.25909525  1
  O  O208  1  0.62833756  0.77909802  0.59186965  1
  O  O209  1  0.63329624  0.78145526  0.92437033  1
  O  O210  1  0.21374471  0.38303609  0.23978867  1
  O  O211  1  0.21577664  0.36987207  0.57640841  1
  O  O212  1  0.21817453  0.36648387  0.90835241  1
  O  O213  1  0.21663316  0.84923611  0.23545020  1
  O  O214  1  0.21625835  0.87071304  0.57651631  1
  O  O215  1  0.21693338  0.87166812  0.90129628  1
  O  O216  1  0.71959161  0.37789585  0.23894940  1
  O  O217  1  0.73566164  0.36650982  0.59789651  1
  O  O218  1  0.71819414  0.37017351  0.90952000  1
  O  O219  1  0.72201717  0.86389265  0.23970269  1
  O  O220  1  0.71836788  0.86583970  0.57746849  1
  O  O221  1  0.72000689  0.86941389  0.90825137  1
  O  O222  1  0.41047309  0.12826293  0.14468634  1
  O  O223  1  0.42577249  0.13918120  0.48776345  1
  O  O224  1  0.42392794  0.12618206  0.81665464  1
  O  O225  1  0.43171113  0.62860098  0.14667167  1
  O  O226  1  0.41178928  0.63655054  0.48148514  1
  O  O227  1  0.41882457  0.63534859  0.82017015  1
  O  O228  1  0.91064668  0.12202465  0.14150109  1
  O  O229  1  0.92044090  0.12596011  0.48534365  1
  O  O230  1  0.91996241  0.12505328  0.81461200  1
  O  O231  1  0.92239985  0.63397243  0.15241095  1
  O  O232  1  0.91753273  0.63215333  0.48524272  1
  O  O233  1  0.91539638  0.63872842  0.81983712  1
  O  O234  1  0.36538252  0.08033121  0.00914652  1
  O  O235  1  0.36338192  0.10305906  0.35423251  1
  O  O236  1  0.36665717  0.08394315  0.68255592  1
  O  O237  1  0.37224924  0.57905863  0.01338872  1
  O  O238  1  0.35837944  0.59343931  0.34551571  1
  O  O239  1  0.37181547  0.57778076  0.68500963  1
  O  O240  1  0.85573422  0.08237571  0.00581011  1
  O  O241  1  0.86583333  0.08040323  0.34884089  1
  O  O242  1  0.86556247  0.08036663  0.67964427  1
  O  O243  1  0.86602580  0.57259279  0.01790881  1
  O  O244  1  0.86295363  0.58473458  0.34843295  1
  O  O245  1  0.86903292  0.58037926  0.68301578  1
  O  O246  1  0.07551606  0.36675292  0.18325612  1
  O  O247  1  0.07706259  0.37180804  0.51740259  1
  O  O248  1  0.08028006  0.36349312  0.84993752  1
  O  O249  1  0.08253169  0.87920409  0.19316779  1
  O  O250  1  0.07709690  0.87336530  0.52014433  1
  O  O251  1  0.07849564  0.87573519  0.84896150  1
  O  O252  1  0.58191776  0.36185635  0.17914432  1
  O  O253  1  0.60273055  0.36577832  0.52088850  1
  O  O254  1  0.58034786  0.36617890  0.84965276  1
  O  O255  1  0.58441438  0.86536075  0.18156004  1
  O  O256  1  0.58129642  0.86541826  0.51430601  1
  O  O257  1  0.58215898  0.86809693  0.84739892  1
  O  O258  1  0.12783455  0.43512158  0.31672143  1
  O  O259  1  0.12867172  0.42269318  0.65144417  1
  O  O260  1  0.13294553  0.40617802  0.98729572  1
  O  O261  1  0.15165617  0.91579969  0.32614321  1
  O  O262  1  0.13219640  0.91786866  0.65562616  1
  O  O263  1  0.13502194  0.91771416  0.98405257  1
  O  O264  1  0.63020988  0.42234179  0.31400395  1
  O  O265  1  0.63707584  0.41860532  0.65703828  1
  O  O266  1  0.63124100  0.41820147  0.98563667  1
  O  O267  1  0.63733610  0.91636065  0.31772377  1
  O  O268  1  0.62843330  0.91775126  0.64987999  1
  O  O269  1  0.63011765  0.91921512  0.98261545  1
  O  O270  1  0.03002213  0.19634561  0.09821444  1
  O  O271  1  0.02674172  0.20961414  0.44738517  1
  O  O272  1  0.02558722  0.19477555  0.76940201  1
  O  O273  1  0.02515739  0.70609871  0.10141220  1
  O  O274  1  0.02546343  0.70339531  0.43436936  1
  O  O275  1  0.02964526  0.70022196  0.76727249  1
  O  O276  1  0.52791170  0.19500909  0.09866161  1
  O  O277  1  0.54892340  0.19667512  0.44702635  1
  O  O278  1  0.53086189  0.19824382  0.77141426  1
  O  O279  1  0.54104377  0.70494110  0.10598417  1
  O  O280  1  0.52818348  0.69858335  0.43580015  1
  O  O281  1  0.53285079  0.70206626  0.77220325  1
  O  O282  1  0.32334365  0.45889431  0.05874025  1
  O  O283  1  0.28547069  0.48656417  0.40245267  1
  O  O284  1  0.29730798  0.47205570  0.73093500  1
  O  O285  1  0.30230291  0.96916645  0.05702150  1
  O  O286  1  0.32220377  0.96512945  0.40253333  1
  O  O287  1  0.30366680  0.96796966  0.72781205  1
  O  O288  1  0.79582208  0.45894802  0.06046215  1
  O  O289  1  0.80025519  0.47012817  0.40090451  1
  O  O290  1  0.80432718  0.47860495  0.73794017  1
  O  O291  1  0.79095343  0.97283886  0.05973573  1
  O  O292  1  0.79870649  0.96309986  0.39520579  1
  O  O293  1  0.79631773  0.96625689  0.72548392  1
  O  O294  1  0.47253782  0.29298451  0.22448070  1
  O  O295  1  0.47876608  0.30621674  0.57603601  1
  O  O296  1  0.47053439  0.29618104  0.89712070  1
  O  O297  1  0.47653378  0.79414575  0.22661428  1
  O  O298  1  0.47022484  0.79890086  0.56418299  1
  O  O299  1  0.47328520  0.80202499  0.89380677  1
  O  O300  1  0.95609187  0.29768268  0.22914339  1
  O  O301  1  0.96931338  0.29421185  0.56490289  1
  O  O302  1  0.96854021  0.29390942  0.89674636  1
  O  O303  1  0.96219071  0.79202290  0.23009895  1
  O  O304  1  0.96658971  0.80187256  0.56357972  1
  O  O305  1  0.96652061  0.80530841  0.89074018  1
  O  O306  1  0.20514833  0.04481220  0.27166813  1
  O  O307  1  0.20354446  0.03345839  0.61681440  1
  O  O308  1  0.19735688  0.02789655  0.93605117  1
  O  O309  1  0.18145465  0.55752226  0.27820259  1
  O  O310  1  0.20048247  0.52966729  0.60090732  1
  O  O311  1  0.20047217  0.53079589  0.93119356  1
  O  O312  1  0.70558536  0.02485247  0.27101556  1
  O  O313  1  0.69675421  0.02610484  0.60547547  1
  O  O314  1  0.69217782  0.02620368  0.93375736  1
  O  O315  1  0.69997513  0.53500977  0.27391182  1
  O  O316  1  0.70060554  0.52997299  0.60408516  1
  O  O317  1  0.69898655  0.53602775  0.93891665  1
  O  O318  1  0.08819727  0.08706844  0.03439187  1
  O  O319  1  0.10013089  0.10555337  0.40565782  1
  O  O320  1  0.07606107  0.08054877  0.70364340  1
  O  O321  1  0.08849865  0.60197687  0.03640107  1
  O  O322  1  0.09664300  0.60345504  0.38105053  1
  O  O323  1  0.08605194  0.59149321  0.69827607  1
  O  O324  1  0.58134875  0.08330728  0.03584678  1
  O  O325  1  0.58451074  0.07700896  0.37112818  1
  O  O326  1  0.57956417  0.08407225  0.70348306  1
  O  O327  1  0.58849580  0.58865279  0.04151496  1
  O  O328  1  0.58531578  0.58800840  0.37144666  1
  O  O329  1  0.58808974  0.59074585  0.70903812  1
  O  O330  1  0.42633756  0.40453916  0.13245431  1
  O  O331  1  0.39275881  0.42164773  0.45062393  1
  O  O332  1  0.40807475  0.41758103  0.79498736  1
  O  O333  1  0.41913373  0.91832083  0.12002031  1
  O  O334  1  0.42253993  0.91022285  0.47799269  1
  O  O335  1  0.41702734  0.91766254  0.79537630  1
  O  O336  1  0.90251307  0.39696958  0.12167116  1
  O  O337  1  0.90752088  0.40982951  0.46650868  1
  O  O338  1  0.90911828  0.41171814  0.79388207  1
  O  O339  1  0.90752884  0.92332464  0.11987366  1
  O  O340  1  0.90751599  0.90947624  0.46583532  1
  O  O341  1  0.91169317  0.92019294  0.79503539  1
  O  O342  1  0.42609570  0.41055791  0.28707646  1
  O  O343  1  0.41373631  0.41191923  0.63453757  1
  O  O344  1  0.41419661  0.40601475  0.96170462  1
  O  O345  1  0.43157239  0.91217069  0.28858587  1
  O  O346  1  0.41878952  0.91320969  0.63146459  1
  O  O347  1  0.42411696  0.91689205  0.96090970  1
  O  O348  1  0.90363647  0.40548812  0.30074912  1
  O  O349  1  0.91879591  0.40798088  0.62827942  1
  O  O350  1  0.91900228  0.40716446  0.96465748  1
  O  O351  1  0.89995302  0.89861356  0.28766912  1
  O  O352  1  0.91127576  0.91286269  0.62902875  1
  O  O353  1  0.91494765  0.92090291  0.95469000  1
  O  O354  1  0.08987692  0.08361089  0.19710750  1
  O  O355  1  0.09206595  0.08624827  0.55012632  1
  O  O356  1  0.08511178  0.07827586  0.86705691  1
  O  O357  1  0.08212601  0.60705586  0.19442160  1
  O  O358  1  0.09013086  0.58786960  0.54284386  1
  O  O359  1  0.09598860  0.59567425  0.87132589  1
  O  O360  1  0.58513799  0.06707192  0.20800217  1
  O  O361  1  0.58730946  0.08299928  0.54201493  1
  O  O362  1  0.58114492  0.07912311  0.86698087  1
  O  O363  1  0.58461569  0.58040523  0.20348677  1
  O  O364  1  0.59261674  0.59090483  0.54206368  1
  O  O365  1  0.59095302  0.59061618  0.86794776  1
  O  O366  1  0.13663442  0.22185635  0.05313499  1
  O  O367  1  0.13261206  0.23530933  0.40275578  1
  O  O368  1  0.13490517  0.21268044  0.72516561  1
  O  O369  1  0.13322673  0.73790720  0.06069691  1
  O  O370  1  0.13694991  0.73995824  0.40083427  1
  O  O371  1  0.13966145  0.72655122  0.72754207  1
  O  O372  1  0.63468624  0.21598255  0.05198109  1
  O  O373  1  0.63614138  0.20613628  0.37799384  1
  O  O374  1  0.64061333  0.21559589  0.72671177  1
  O  O375  1  0.64688535  0.71870606  0.05622898  1
  O  O376  1  0.63696867  0.72213890  0.39304416  1
  O  O377  1  0.64016438  0.72398295  0.72709484  1
  O  O378  1  0.28907302  0.36337655  0.11159569  1
  O  O379  1  0.26008388  0.37055815  0.43630510  1
  O  O380  1  0.27480269  0.36317586  0.77438059  1
  O  O381  1  0.28928595  0.86980368  0.11437152  1
  O  O382  1  0.28427670  0.86508095  0.45030162  1
  O  O383  1  0.28434925  0.85993288  0.77327998  1
  O  O384  1  0.76800557  0.35390954  0.10551732  1
  O  O385  1  0.77142999  0.36069696  0.44072062  1
  O  O386  1  0.77441520  0.36484001  0.77222243  1
  O  O387  1  0.77833466  0.86438167  0.10584510  1
  O  O388  1  0.77276357  0.85910968  0.44253551  1
  O  O389  1  0.78019798  0.85932543  0.77294791  1
  O  O390  1  0.36440274  0.28204951  0.27101385  1
  O  O391  1  0.36678068  0.27676440  0.61380948  1
  O  O392  1  0.35814386  0.27216653  0.93482329  1
  O  O393  1  0.36528834  0.78294516  0.26908423  1
  O  O394  1  0.36234493  0.78079995  0.61032330  1
  O  O395  1  0.36516303  0.78513159  0.93934088  1
  O  O396  1  0.85150336  0.27020042  0.27471086  1
  O  O397  1  0.86490980  0.27609797  0.61479762  1
  O  O398  1  0.86125586  0.27504402  0.94261550  1
  O  O399  1  0.85936470  0.76535054  0.27788602  1
  O  O400  1  0.85987281  0.77879893  0.60891544  1
  O  O401  1  0.86691767  0.78981345  0.94616951  1
  O  O402  1  0.21962570  0.14615340  0.21666852  1
  O  O403  1  0.22408511  0.13663764  0.56671188  1
  O  O404  1  0.21867438  0.13693009  0.89262831  1
  O  O405  1  0.22082671  0.64893902  0.22451779  1
  O  O406  1  0.22318885  0.64204785  0.56236290  1
  O  O407  1  0.23117277  0.63556135  0.88635885  1
  O  O408  1  0.71236131  0.13292330  0.22250050  1
  O  O409  1  0.72165440  0.13541922  0.56413767  1
  O  O410  1  0.71454636  0.13440987  0.88906197  1
  O  O411  1  0.71617988  0.63780425  0.22189736  1
  O  O412  1  0.72673515  0.63713288  0.56010696  1
  O  O413  1  0.72677284  0.64102806  0.89261740  1
  O  O414  1  0.48754694  0.32166697  0.02802000  1
  O  O415  1  0.49595590  0.33085513  0.35783848  1
  O  O416  1  0.49299647  0.33865964  0.70700562  1
  O  O417  1  0.49702570  0.83309499  0.02692756  1
  O  O418  1  0.49415555  0.82992562  0.36066932  1
  O  O419  1  0.49413793  0.83222410  0.69742809  1
  O  O420  1  0.99343579  0.32582201  0.03079762  1
  O  O421  1  0.98172711  0.32307178  0.36167660  1
  O  O422  1  0.99515213  0.33066267  0.69959699  1
  O  O423  1  1.00038761  0.85158343  0.02682992  1
  O  O424  1  0.98613346  0.83311409  0.36504681  1
  O  O425  1  0.98990200  0.83576244  0.69744252  1
  O  O426  1  0.17659369  0.01061390  0.13644986  1
  O  O427  1  0.17034345  0.00268513  0.48378313  1
  O  O428  1  0.16991734  0.00641277  0.80369182  1
  O  O429  1  0.16282973  0.51577449  0.14533978  1
  O  O430  1  0.16601504  0.51612639  0.46747796  1
  O  O431  1  0.16428349  0.50989142  0.79787482  1
  O  O432  1  0.66532026  0.00184334  0.13563927  1
  O  O433  1  0.66734074  0.00644839  0.47327272  1
  O  O434  1  0.66179347  0.00406701  0.80040289  1
  O  O435  1  0.66593231  0.50463172  0.13849229  1
  O  O436  1  0.66656860  0.50856176  0.47099189  1
  O  O437  1  0.67067952  0.51020001  0.80545338  1
  O  O438  1  0.01134310  0.15568944  0.31425143  1
  O  O439  1  0.00410777  0.16192002  0.63586890  1
  O  O440  1  0.00719048  0.16003141  0.96420079  1
  O  O441  1  0.01475963  0.67363744  0.30322211  1
  O  O442  1  0.00967368  0.67470124  0.63554820  1
  O  O443  1  0.00603845  0.68032647  0.97082644  1
  O  O444  1  0.49840908  0.15295816  0.31063665  1
  O  O445  1  0.50833315  0.16780736  0.63829788  1
  O  O446  1  0.50510448  0.15879507  0.96417029  1
  O  O447  1  0.50781290  0.66582151  0.30272481  1
  O  O448  1  0.50995109  0.66872280  0.63887680  1
  O  O449  1  0.51439946  0.66875473  0.97186021  1
  O  O450  1  0.35204315  0.49542171  0.19299297  1
  O  O451  1  0.32480856  0.49311175  0.53311723  1
  O  O452  1  0.32915922  0.49234112  0.86437948  1
  O  O453  1  0.35052242  1.00369075  0.19269771  1
  O  O454  1  0.34246791  0.99464994  0.53674889  1
  O  O455  1  0.33467552  0.99087304  0.86139908  1
  O  O456  1  0.83044227  0.48254879  0.19371521  1
  O  O457  1  0.82999640  0.48868167  0.53329821  1
  O  O458  1  0.83478146  0.48932122  0.86822283  1
  O  O459  1  0.82935776  0.99470526  0.19414273  1
  O  O460  1  0.82832369  0.99045129  0.52896120  1
  O  O461  1  0.82594789  0.99225741  0.85856686  1
