# generated using pymatgen
data_Na31Fe20(SO4)36
_symmetry_space_group_name_H-M   'P 1'
_cell_length_a   18.07846357
_cell_length_b   18.07441670
_cell_length_c   19.69856261
_cell_angle_alpha   107.59036967
_cell_angle_beta   107.60019667
_cell_angle_gamma   90.74651091
_symmetry_Int_Tables_number   1
_chemical_formula_structural   Na31Fe20(SO4)36
_chemical_formula_sum   'Na62 Fe40 S72 O288'
_cell_volume   5809.73398899
_cell_formula_units_Z   2
loop_
 _symmetry_equiv_pos_site_id
 _symmetry_equiv_pos_as_xyz
  1  'x, y, z'
loop_
 _atom_site_type_symbol
 _atom_site_label
 _atom_site_symmetry_multiplicity
 _atom_site_fract_x
 _atom_site_fract_y
 _atom_site_fract_z
 _atom_site_occupancy
  Na  Na0  1  0.14042026  0.36323938  0.09460665  1
  Na  Na1  1  0.11925796  0.35954518  0.39746928  1
  Na  Na2  1  0.13341434  0.36567120  0.74854113  1
  Na  Na3  1  0.13671216  0.86390248  0.07947280  1
  Na  Na4  1  0.13558456  0.86442584  0.41438439  1
  Na  Na5  1  0.13030384  0.85847412  0.74021672  1
  Na  Na6  1  0.63036640  0.35894124  0.08106621  1
  Na  Na7  1  0.62561243  0.36838810  0.41395031  1
  Na  Na8  1  0.64113209  0.36568794  0.75657610  1
  Na  Na9  1  0.65172729  0.87612295  0.09533196  1
  Na  Na10  1  0.64575405  0.86868187  0.41811356  1
  Na  Na11  1  0.62690255  0.86138352  0.75044821  1
  Na  Na12  1  0.36480487  0.12844578  0.24661746  1
  Na  Na13  1  0.36313515  0.13579169  0.58241500  1
  Na  Na14  1  0.36998078  0.13090664  0.91679749  1
  Na  Na15  1  0.35574190  0.64039696  0.25161840  1
  Na  Na16  1  0.36783747  0.63260679  0.58683484  1
  Na  Na17  1  0.36377436  0.64460843  0.92166095  1
  Na  Na18  1  0.85497197  0.13077022  0.23728855  1
  Na  Na19  1  0.85633675  0.12438797  0.57202281  1
  Na  Na20  1  0.87807563  0.14151379  0.93001718  1
  Na  Na21  1  0.87120916  0.62630509  0.24566010  1
  Na  Na22  1  0.86885239  0.64216857  0.58660123  1
  Na  Na23  1  0.85758703  0.63390418  0.91013205  1
  Na  Na24  1  0.52542009  -0.00557304  0.06925601  1
  Na  Na25  1  0.51309289  -0.00434908  0.41735657  1
  Na  Na26  1  0.49251646  0.50684592  0.09577237  1
  Na  Na27  1  0.93386901  0.00194995  0.39232728  1
  Na  Na28  1  0.99669255  0.53393834  0.40269975  1
  Na  Na29  1  0.99070170  0.50998230  0.74742087  1
  Na  Na30  1  1.00164956  0.05949866  0.08592146  1
  Na  Na31  1  0.49567434  0.52158860  0.73142739  1
  Na  Na32  1  1.01366732  0.45734663  0.14843086  1
  Na  Na33  1  -0.01132375  1.01971274  0.23991017  1
  Na  Na34  1  0.52817802  0.97446349  0.89462992  1
  Na  Na35  1  0.00849830  0.49083890  0.92845801  1
  Na  Na36  1  -0.00532055  0.51970652  0.56583478  1
  Na  Na37  1  0.00404752  0.97864728  0.60572357  1
  Na  Na38  1  0.56235312  1.00462075  0.26636844  1
  Na  Na39  1  0.51094186  0.49528290  0.91294968  1
  Na  Na40  1  0.50688207  0.98762978  0.59894642  1
  Na  Na41  1  0.45632162  0.51425387  0.31023570  1
  Na  Na42  1  0.77189414  0.25555730  -0.00458685  1
  Na  Na43  1  0.24857823  0.25068669  0.66614225  1
  Na  Na44  1  0.26189238  0.75618886  0.66281869  1
  Na  Na45  1  0.73932913  0.73858986  0.67849322  1
  Na  Na46  1  0.24717148  0.25167241  0.00376372  1
  Na  Na47  1  0.74076541  0.23821423  0.67987315  1
  Na  Na48  1  0.74480195  0.23999588  0.33509325  1
  Na  Na49  1  0.76005107  0.76218981  -0.01364242  1
  Na  Na50  1  0.23904888  0.25482235  0.32647189  1
  Na  Na51  1  0.76732354  0.76633501  0.32655996  1
  Na  Na52  1  0.24141265  0.24524705  0.17106011  1
  Na  Na53  1  0.75311745  0.75318281  0.50072612  1
  Na  Na54  1  0.25881425  0.75881917  0.48724615  1
  Na  Na55  1  0.25269158  0.75268644  0.16382680  1
  Na  Na56  1  0.24702910  0.24715369  0.83781006  1
  Na  Na57  1  0.76330447  0.76376059  0.16106302  1
  Na  Na58  1  0.74033349  0.23847947  0.50405077  1
  Na  Na59  1  0.24796195  0.25325713  0.49239889  1
  Na  Na60  1  0.24713155  0.74400237  0.83752064  1
  Na  Na61  1  0.75133228  0.24218739  0.16101390  1
  Fe  Fe62  1  0.46182504  0.80788735  0.45218086  1
  Fe  Fe63  1  0.96313731  0.30938846  0.78535209  1
  Fe  Fe64  1  0.46021379  0.30780355  0.11895797  1
  Fe  Fe65  1  0.96382025  0.81146664  0.79188464  1
  Fe  Fe66  1  0.46106647  0.31187740  0.45201047  1
  Fe  Fe67  1  0.46767400  0.81158771  0.11967860  1
  Fe  Fe68  1  0.97483749  0.79456623  0.45937748  1
  Fe  Fe69  1  0.46709168  0.30679451  0.78600329  1
  Fe  Fe70  1  0.96275717  0.30584580  0.44899227  1
  Fe  Fe71  1  0.96986260  0.80653870  0.12236984  1
  Fe  Fe72  1  0.19607757  0.03716114  0.71330714  1
  Fe  Fe73  1  0.19919324  0.52969451  0.37261997  1
  Fe  Fe74  1  0.69088905  0.53748806  0.04792901  1
  Fe  Fe75  1  0.18663801  0.03424146  0.37598728  1
  Fe  Fe76  1  0.69065538  0.53424739  0.71165909  1
  Fe  Fe77  1  0.19866103  0.53551034  0.05254256  1
  Fe  Fe78  1  0.69540508  0.03848585  0.72032216  1
  Fe  Fe79  1  0.68863360  0.53759296  0.37936328  1
  Fe  Fe80  1  0.19295271  0.03061672  0.04240841  1
  Fe  Fe81  1  0.19001842  0.53293563  0.71089760  1
  Fe  Fe82  1  0.04089367  0.68666994  0.21209177  1
  Fe  Fe83  1  0.03453153  0.19494932  0.87998324  1
  Fe  Fe84  1  0.53557957  0.69770115  0.21744490  1
  Fe  Fe85  1  0.53137037  0.70118407  0.87768575  1
  Fe  Fe86  1  0.53282376  0.19158734  0.54696803  1
  Fe  Fe87  1  0.54056542  0.18626781  0.87935123  1
  Fe  Fe88  1  0.03309137  0.18975089  0.54311913  1
  Fe  Fe89  1  0.03705013  0.69351057  0.88352839  1
  Fe  Fe90  1  0.53108619  0.69296784  0.54872964  1
  Fe  Fe91  1  0.53238755  0.19318552  0.21229891  1
  Fe  Fe92  1  0.30799523  0.46899146  0.95225526  1
  Fe  Fe93  1  0.30824933  0.96288535  0.95004763  1
  Fe  Fe94  1  0.81002644  0.46223909  0.95425485  1
  Fe  Fe95  1  0.80337494  0.46356156  0.28348986  1
  Fe  Fe96  1  0.30913518  0.96597900  0.28559204  1
  Fe  Fe97  1  0.81043470  0.96532199  0.62827398  1
  Fe  Fe98  1  0.80374999  0.46455214  0.61606478  1
  Fe  Fe99  1  0.31407534  0.96591418  0.62288616  1
  Fe  Fe100  1  0.30443170  0.46288595  0.61592593  1
  Fe  Fe101  1  0.80305039  0.96501923  0.95906759  1
  S  S102  1  0.35739381  0.13835231  0.08234576  1
  S  S103  1  0.35571202  0.14171289  0.41712332  1
  S  S104  1  0.36150016  0.14357571  0.74908404  1
  S  S105  1  0.36460032  0.64234822  0.08434870  1
  S  S106  1  0.35912987  0.64355058  0.41786673  1
  S  S107  1  0.35837757  0.63671798  0.75069662  1
  S  S108  1  0.85931834  0.13562338  0.07925563  1
  S  S109  1  0.85673794  0.14457375  0.42088735  1
  S  S110  1  0.86038512  0.14288354  0.75056855  1
  S  S111  1  0.85970521  0.63854920  0.08164228  1
  S  S112  1  0.85737573  0.63652961  0.41545623  1
  S  S113  1  0.86165862  0.63741196  0.75019018  1
  S  S114  1  0.13645200  0.35961216  0.25107257  1
  S  S115  1  0.13811593  0.35827637  0.58189098  1
  S  S116  1  0.14077482  0.36367211  0.91382760  1
  S  S117  1  0.14563994  0.85626525  0.24962376  1
  S  S118  1  0.14490275  0.86116998  0.58580456  1
  S  S119  1  0.14244813  0.85673021  0.91407702  1
  S  S120  1  0.63521137  0.36261362  0.24973099  1
  S  S121  1  0.63965109  0.35815382  0.58276634  1
  S  S122  1  0.63883743  0.36090503  0.91771165  1
  S  S123  1  0.64324993  0.85756870  0.25253244  1
  S  S124  1  0.63862828  0.86030105  0.58411130  1
  S  S125  1  0.64225721  0.85781469  0.92012507  1
  S  S126  1  0.07998069  0.17045372  0.03931247  1
  S  S127  1  0.06225439  0.16699524  0.37434763  1
  S  S128  1  0.06891049  0.17339056  0.70878368  1
  S  S129  1  0.06972212  0.66877403  0.04249569  1
  S  S130  1  0.07364647  0.66849322  0.37400556  1
  S  S131  1  0.06394423  0.66257361  0.70981891  1
  S  S132  1  0.55905825  0.17103576  0.03901492  1
  S  S133  1  0.55893433  0.17087264  0.37981266  1
  S  S134  1  0.56643095  0.17202671  0.70896944  1
  S  S135  1  0.56832184  0.67211075  0.04232092  1
  S  S136  1  0.56494765  0.67366294  0.37851619  1
  S  S137  1  0.56708754  0.66335297  0.70604785  1
  S  S138  1  0.33487926  0.43824136  0.12457324  1
  S  S139  1  0.32396682  0.43151796  0.45623691  1
  S  S140  1  0.33091876  0.43121522  0.79059969  1
  S  S141  1  0.33205474  0.93196717  0.12491339  1
  S  S142  1  0.33499902  0.93757950  0.46022380  1
  S  S143  1  0.33129234  0.93683992  0.78980312  1
  S  S144  1  0.81906646  0.42855621  0.11577418  1
  S  S145  1  0.82477784  0.43291199  0.45682623  1
  S  S146  1  0.82991174  0.43461571  0.78921845  1
  S  S147  1  0.83899399  0.93138888  0.12671999  1
  S  S148  1  0.83937503  0.92365693  0.46595112  1
  S  S149  1  0.82167499  0.92707588  0.79053183  1
  S  S150  1  0.42658635  0.32083305  0.28501907  1
  S  S151  1  0.43168477  0.32937211  0.62411724  1
  S  S152  1  0.43337329  0.33693414  0.95770457  1
  S  S153  1  0.43450323  0.83313623  0.29202269  1
  S  S154  1  0.43469849  0.82939703  0.62341218  1
  S  S155  1  0.43519918  0.83257662  0.95806800  1
  S  S156  1  0.91804998  0.33472211  0.29423175  1
  S  S157  1  0.93212754  0.33195594  0.62366921  1
  S  S158  1  0.94086180  0.33799840  0.95838837  1
  S  S159  1  0.94046267  0.82191944  0.28963822  1
  S  S160  1  0.93236111  0.82859252  0.62846653  1
  S  S161  1  0.93111484  0.82657399  0.95820737  1
  S  S162  1  0.16848185  0.06238589  0.20871332  1
  S  S163  1  0.17227615  0.06948204  0.54284339  1
  S  S164  1  0.17420231  0.07152346  0.87448131  1
  S  S165  1  0.17261377  0.56805727  0.20639911  1
  S  S166  1  0.17074537  0.56333198  0.53885887  1
  S  S167  1  0.16996654  0.56619799  0.87466700  1
  S  S168  1  0.66445684  0.07462961  0.20666699  1
  S  S169  1  0.66597912  0.06383927  0.54681896  1
  S  S170  1  0.67514477  0.06476338  0.87861446  1
  S  S171  1  0.66934973  0.57048238  0.20982610  1
  S  S172  1  0.67245292  0.57084381  0.54365113  1
  S  S173  1  0.66462728  0.56577144  0.87438598  1
  O  O174  1  0.36418345  0.21778923  0.07359502  1
  O  O175  1  0.35984097  0.22194535  0.41109468  1
  O  O176  1  0.37076786  0.22181165  0.73843213  1
  O  O177  1  0.37475275  0.72107419  0.07802421  1
  O  O178  1  0.36360155  0.72612369  0.41686414  1
  O  O179  1  0.36257441  0.71107127  0.73726034  1
  O  O180  1  0.87553139  0.20515968  0.05998274  1
  O  O181  1  0.86660599  0.22883631  0.42309794  1
  O  O182  1  0.87128507  0.22053384  0.73921240  1
  O  O183  1  0.87103996  0.71854561  0.07619228  1
  O  O184  1  0.87106872  0.71712195  0.41207532  1
  O  O185  1  0.87121985  0.71545758  0.74121122  1
  O  O186  1  0.27905733  0.12847904  0.09160146  1
  O  O187  1  0.27731788  0.12796632  0.42531750  1
  O  O188  1  0.28145275  0.13711745  0.75574653  1
  O  O189  1  0.28626975  0.63224458  0.09305322  1
  O  O190  1  0.27848322  0.62802543  0.42298035  1
  O  O191  1  0.27964448  0.62184329  0.75944079  1
  O  O192  1  0.78086484  0.13024087  0.08570370  1
  O  O193  1  0.78456297  0.13324411  0.43722057  1
  O  O194  1  0.78012101  0.13613996  0.75536723  1
  O  O195  1  0.78133681  0.63230741  0.09238878  1
  O  O196  1  0.77594692  0.63107903  0.42043748  1
  O  O197  1  0.78269681  0.62706280  0.75672437  1
  O  O198  1  0.11941702  0.29260236  0.27356585  1
  O  O199  1  0.12817137  0.28035364  0.59225556  1
  O  O200  1  0.13441135  0.28337001  0.91908077  1
  O  O201  1  0.13682278  0.77755982  0.25606646  1
  O  O202  1  0.14053950  0.78965409  0.60456012  1
  O  O203  1  0.13362662  0.77792405  0.92186336  1
  O  O204  1  0.62817457  0.28572636  0.26222653  1
  O  O205  1  0.63061307  0.27736898  0.58803609  1
  O  O206  1  0.62937942  0.28260163  0.92630447  1
  O  O207  1  0.63015953  0.77766838  0.26123783  1
  O  O208  1  0.63074667  0.78106455  0.59198697  1
  O  O209  1  0.63305457  0.77521658  0.92204037  1
  O  O210  1  0.21579864  0.36051767  0.24449969  1
  O  O211  1  0.21840921  0.36478548  0.57601494  1
  O  O212  1  0.21833620  0.37405595  0.90274167  1
  O  O213  1  0.22486947  0.86829338  0.24249508  1
  O  O214  1  0.22379352  0.87478073  0.57756652  1
  O  O215  1  0.22112642  0.86727989  0.90517245  1
  O  O216  1  0.71199921  0.37128434  0.23748220  1
  O  O217  1  0.71873184  0.36707062  0.57416324  1
  O  O218  1  0.71746766  0.37137949  0.91062603  1
  O  O219  1  0.72014398  0.86178531  0.24298720  1
  O  O220  1  0.71840782  0.87148933  0.57841819  1
  O  O221  1  0.72726114  0.86767354  0.92251141  1
  O  O222  1  0.41664619  0.13079713  0.14964509  1
  O  O223  1  0.41593259  0.13483169  0.48532706  1
  O  O224  1  0.41875947  0.13869354  0.81883049  1
  O  O225  1  0.42445494  0.63160981  0.15131658  1
  O  O226  1  0.41579805  0.63513249  0.48706691  1
  O  O227  1  0.41785679  0.63371433  0.82146209  1
  O  O228  1  0.91837022  0.12565615  0.14549405  1
  O  O229  1  0.92281699  0.13029349  0.48398521  1
  O  O230  1  0.91766942  0.13799472  0.82050450  1
  O  O231  1  0.91968298  0.62639708  0.14646793  1
  O  O232  1  0.91318286  0.62089545  0.47955341  1
  O  O233  1  0.92084815  0.62905780  0.81862186  1
  O  O234  1  0.36473183  0.08014927  0.01371342  1
  O  O235  1  0.36585622  0.08473367  0.34920069  1
  O  O236  1  0.36993738  0.08368925  0.68224955  1
  O  O237  1  0.37218026  0.58318497  0.01551270  1
  O  O238  1  0.37022584  0.59101502  0.35019806  1
  O  O239  1  0.37029703  0.57268614  0.68663630  1
  O  O240  1  0.86646108  0.06680928  0.01033466  1
  O  O241  1  0.86123739  0.09347543  0.34915414  1
  O  O242  1  0.86937886  0.08221913  0.68364970  1
  O  O243  1  0.86159411  0.58088232  0.01002832  1
  O  O244  1  0.86232011  0.58030591  0.34373144  1
  O  O245  1  0.87186469  0.57714870  0.68304245  1
  O  O246  1  0.07934862  0.36544457  0.18259680  1
  O  O247  1  0.08068920  0.36601728  0.51332409  1
  O  O248  1  0.07939659  0.37332497  0.84753726  1
  O  O249  1  0.08693001  0.86480908  0.18134989  1
  O  O250  1  0.08638645  0.85924565  0.51297419  1
  O  O251  1  0.08305432  0.86401327  0.84614975  1
  O  O252  1  0.57423673  0.36836028  0.18188020  1
  O  O253  1  0.58056959  0.36809567  0.51637071  1
  O  O254  1  0.57997291  0.36874324  0.84837690  1
  O  O255  1  0.58280063  0.86466957  0.18278479  1
  O  O256  1  0.58038080  0.86670255  0.51440105  1
  O  O257  1  0.59120781  0.86687968  0.85051261  1
  O  O258  1  0.13234235  0.43200613  0.31679421  1
  O  O259  1  0.13066620  0.41845040  0.64983191  1
  O  O260  1  0.13441999  0.42164349  0.98301720  1
  O  O261  1  0.13787607  0.91555775  0.31817425  1
  O  O262  1  0.13002499  0.92770307  0.64640756  1
  O  O263  1  0.13666305  0.91557370  0.98307128  1
  O  O264  1  0.62914535  0.42381440  0.31768582  1
  O  O265  1  0.63523720  0.41476076  0.65345418  1
  O  O266  1  0.62623178  0.42080555  0.98342537  1
  O  O267  1  0.63393597  0.91666849  0.31838844  1
  O  O268  1  0.62719224  0.91991981  0.65023728  1
  O  O269  1  0.62807199  0.91222669  0.98611685  1
  O  O270  1  0.05534254  0.18967004  0.10520806  1
  O  O271  1  0.03183718  0.20216029  0.44025722  1
  O  O272  1  0.03336461  0.20257836  0.77026443  1
  O  O273  1  0.03131688  0.69688140  0.10202933  1
  O  O274  1  0.03207940  0.68959049  0.43036056  1
  O  O275  1  0.03218472  0.69382599  0.77445980  1
  O  O276  1  0.52265648  0.20590494  0.10033344  1
  O  O277  1  0.52053253  0.20931305  0.43901654  1
  O  O278  1  0.53226456  0.20147646  0.77225396  1
  O  O279  1  0.53254763  0.70158453  0.10362742  1
  O  O280  1  0.52692180  0.70266166  0.43849503  1
  O  O281  1  0.53164100  0.68111240  0.76653890  1
  O  O282  1  0.30083487  0.46976191  0.05870522  1
  O  O283  1  0.29527863  0.47133591  0.39883981  1
  O  O284  1  0.29721495  0.46142987  0.72635565  1
  O  O285  1  0.30068692  0.96658536  0.06231665  1
  O  O286  1  0.30501857  0.97169097  0.39794159  1
  O  O287  1  0.29786125  0.97589755  0.72943883  1
  O  O288  1  0.78762294  0.47207453  0.05878323  1
  O  O289  1  0.79453544  0.46942317  0.39613908  1
  O  O290  1  0.79893931  0.46933309  0.72694757  1
  O  O291  1  0.81343276  0.96011508  0.06094446  1
  O  O292  1  0.82052402  0.95568529  0.40444188  1
  O  O293  1  0.79786889  0.97336983  0.73584920  1
  O  O294  1  0.46658708  0.28952438  0.22534516  1
  O  O295  1  0.46799102  0.30008432  0.56320921  1
  O  O296  1  0.46669162  0.30561924  0.89527616  1
  O  O297  1  0.47060355  0.80320995  0.23083270  1
  O  O298  1  0.46970705  0.79852506  0.55958901  1
  O  O299  1  0.47114276  0.80334420  0.89868766  1
  O  O300  1  0.93644458  0.30872942  0.22554818  1
  O  O301  1  0.97117287  0.30370467  0.56528540  1
  O  O302  1  0.97220406  0.30246633  0.89245820  1
  O  O303  1  0.97864036  0.78687108  0.22969413  1
  O  O304  1  0.97021597  0.80508030  0.57002138  1
  O  O305  1  0.96933306  0.79920426  0.89721589  1
  O  O306  1  0.20569337  0.02684256  0.27037850  1
  O  O307  1  0.20660997  0.03581063  0.60515470  1
  O  O308  1  0.20300063  0.03148798  0.93286236  1
  O  O309  1  0.20098452  0.54120505  0.27270752  1
  O  O310  1  0.20238090  0.52481093  0.59959476  1
  O  O311  1  0.20338881  0.53459896  0.93892966  1
  O  O312  1  0.68424265  0.05642374  0.27673101  1
  O  O313  1  0.69945649  0.03275123  0.61185842  1
  O  O314  1  0.70267495  0.02056066  0.93251419  1
  O  O315  1  0.69798779  0.53253868  0.26967420  1
  O  O316  1  0.70146212  0.53077348  0.60274497  1
  O  O317  1  0.69332057  0.52869420  0.93502604  1
  O  O318  1  0.09584887  0.08592311  0.01995430  1
  O  O319  1  0.08277845  0.08597406  0.37443767  1
  O  O320  1  0.08895677  0.09252473  0.70234385  1
  O  O321  1  0.09113669  0.58815680  0.03803104  1
  O  O322  1  0.10210058  0.58997777  0.37323943  1
  O  O323  1  0.08219060  0.57945571  0.70667352  1
  O  O324  1  0.56437242  0.08789808  0.02799322  1
  O  O325  1  0.57046763  0.09161837  0.38327674  1
  O  O326  1  0.58699401  0.09173611  0.70458255  1
  O  O327  1  0.58186099  0.58791807  0.03542074  1
  O  O328  1  0.58220526  0.59181793  0.37308860  1
  O  O329  1  0.58676866  0.58004600  0.69278448  1
  O  O330  1  0.41361001  0.41453578  0.12080050  1
  O  O331  1  0.40132771  0.40660545  0.45441392  1
  O  O332  1  0.41355647  0.41586095  0.79618917  1
  O  O333  1  0.41431537  0.91672008  0.13053122  1
  O  O334  1  0.41794182  0.92046285  0.46530739  1
  O  O335  1  0.41117182  0.92360711  0.79388296  1
  O  O336  1  0.89297636  0.40409472  0.10929850  1
  O  O337  1  0.90623468  0.41392119  0.46349825  1
  O  O338  1  0.91390337  0.42224464  0.79635165  1
  O  O339  1  0.92087784  0.90833942  0.13445768  1
  O  O340  1  0.92251553  0.90317509  0.48189930  1
  O  O341  1  0.90112093  0.90656957  0.79455950  1
  O  O342  1  0.40142083  0.39551380  0.28131693  1
  O  O343  1  0.41314936  0.41074610  0.63109895  1
  O  O344  1  0.41892529  0.42057031  0.96348437  1
  O  O345  1  0.41812092  0.91568332  0.29829470  1
  O  O346  1  0.41434866  0.91003403  0.62206577  1
  O  O347  1  0.41643360  0.91485808  0.96289578  1
  O  O348  1  0.90704740  0.42167503  0.31468312  1
  O  O349  1  0.91321550  0.41381988  0.62832788  1
  O  O350  1  0.91398561  0.41522236  0.95074655  1
  O  O351  1  0.92791324  0.90174658  0.29017216  1
  O  O352  1  0.91512316  0.91182516  0.64116504  1
  O  O353  1  0.90594840  0.90508847  0.96074475  1
  O  O354  1  0.08735435  0.07087182  0.20592249  1
  O  O355  1  0.09119615  0.08556699  0.54017199  1
  O  O356  1  0.09645230  0.09606273  0.87169515  1
  O  O357  1  0.08830116  0.58152669  0.19366149  1
  O  O358  1  0.08754927  0.56988964  0.52926553  1
  O  O359  1  0.08707383  0.58066955  0.87051033  1
  O  O360  1  0.57753560  0.09209002  0.18905419  1
  O  O361  1  0.58434499  0.08419569  0.54558523  1
  O  O362  1  0.59527565  0.08597227  0.88028071  1
  O  O363  1  0.58913165  0.59178625  0.20705801  1
  O  O364  1  0.59467014  0.59443349  0.54220436  1
  O  O365  1  0.58189353  0.58199550  0.86839287  1
  O  O366  1  0.15122719  0.22235801  0.05105283  1
  O  O367  1  0.13390129  0.21734700  0.38775870  1
  O  O368  1  0.14009977  0.22690081  0.72570009  1
  O  O369  1  0.13827648  0.72309966  0.05797814  1
  O  O370  1  0.13931032  0.72678397  0.39033406  1
  O  O371  1  0.13616942  0.71212037  0.72411061  1
  O  O372  1  0.63408803  0.21830781  0.05811256  1
  O  O373  1  0.63239878  0.22035000  0.39659868  1
  O  O374  1  0.63413226  0.22618726  0.72169669  1
  O  O375  1  0.64164474  0.72033076  0.05876499  1
  O  O376  1  0.63636727  0.72540180  0.39586762  1
  O  O377  1  0.63662017  0.71710858  0.72306522  1
  O  O378  1  0.28261861  0.36889489  0.11269652  1
  O  O379  1  0.26818435  0.36301068  0.44201896  1
  O  O380  1  0.28220230  0.35923579  0.77921712  1
  O  O381  1  0.28166596  0.86137699  0.11192569  1
  O  O382  1  0.28412037  0.86781274  0.44771865  1
  O  O383  1  0.27827478  0.86503048  0.77128991  1
  O  O384  1  0.76114656  0.36107407  0.09865280  1
  O  O385  1  0.77095956  0.36384500  0.44278770  1
  O  O386  1  0.78185902  0.36141785  0.77291442  1
  O  O387  1  0.78515426  0.86064235  0.11091179  1
  O  O388  1  0.78429993  0.85329502  0.44945501  1
  O  O389  1  0.76433886  0.85827007  0.76582921  1
  O  O390  1  0.36040575  0.26255113  0.27075186  1
  O  O391  1  0.36008382  0.27696661  0.60726002  1
  O  O392  1  0.36036929  0.28846373  0.94362167  1
  O  O393  1  0.36379348  0.78148782  0.27597161  1
  O  O394  1  0.36169034  0.77780665  0.60453997  1
  O  O395  1  0.36434864  0.78153941  0.94467029  1
  O  O396  1  0.84637813  0.28925476  0.29066457  1
  O  O397  1  0.86186306  0.27939737  0.60826504  1
  O  O398  1  0.87456004  0.28521266  0.95019852  1
  O  O399  1  0.86678589  0.77048825  0.26999659  1
  O  O400  1  0.85928850  0.77708717  0.60891010  1
  O  O401  1  0.86505244  0.76899972  0.94260256  1
  O  O402  1  0.21639589  0.13689478  0.22575592  1
  O  O403  1  0.22209347  0.14229557  0.55716218  1
  O  O404  1  0.23149291  0.14067873  0.89212506  1
  O  O405  1  0.22034211  0.63839873  0.21432814  1
  O  O406  1  0.21920178  0.63804724  0.56037620  1
  O  O407  1  0.21845400  0.63698489  0.88558075  1
  O  O408  1  0.71370993  0.14585526  0.21511017  1
  O  O409  1  0.71686457  0.13564137  0.56094750  1
  O  O410  1  0.72861689  0.13446989  0.89535038  1
  O  O411  1  0.72422554  0.63873134  0.22426777  1
  O  O412  1  0.72938681  0.63941780  0.56129733  1
  O  O413  1  0.71680157  0.63589179  0.89023914  1
  O  O414  1  0.49231115  0.33883815  0.02989355  1
  O  O415  1  0.48712249  0.32834433  0.35913958  1
  O  O416  1  0.49146867  0.33078107  0.69628389  1
  O  O417  1  0.49474441  0.83934008  0.03324235  1
  O  O418  1  0.49405256  0.83644703  0.36527113  1
  O  O419  1  0.49294780  0.83308141  0.69341031  1
  O  O420  1  1.00612553  0.35463680  0.02809647  1
  O  O421  1  0.98432604  0.33023523  0.36177816  1
  O  O422  1  0.99095128  0.33760049  0.69838883  1
  O  O423  1  0.99346255  0.83158347  0.02997414  1
  O  O424  1  0.99415946  0.82166057  0.36398035  1
  O  O425  1  0.98949524  0.82453564  0.70016951  1
  O  O426  1  0.17013515  0.00655478  0.13544834  1
  O  O427  1  0.17144023  0.00989559  0.47110853  1
  O  O428  1  0.16919739  0.01284332  0.80061658  1
  O  O429  1  0.17417207  0.50288322  0.13791079  1
  O  O430  1  0.17762395  0.50907049  0.46658591  1
  O  O431  1  0.16677253  0.50353840  0.80333282  1
  O  O432  1  0.66347313  0.00867368  0.14080310  1
  O  O433  1  0.65892482  0.00252682  0.47646720  1
  O  O434  1  0.66461835  0.00948592  0.80115764  1
  O  O435  1  0.66139195  0.51011621  0.13569679  1
  O  O436  1  0.66764265  0.51176992  0.47017856  1
  O  O437  1  0.66187962  0.50639075  0.80096417  1
  O  O438  1  -0.00028924  0.15929409  0.30486967  1
  O  O439  1  0.00920723  0.17200821  0.63702702  1
  O  O440  1  0.01661985  0.17727669  0.97184263  1
  O  O441  1  0.01489663  0.65710058  0.29802859  1
  O  O442  1  0.00325082  0.65576487  0.63892767  1
  O  O443  1  0.00917425  0.66266062  0.96879859  1
  O  O444  1  0.50472948  0.16605547  0.30415801  1
  O  O445  1  0.50344094  0.16750293  0.63738645  1
  O  O446  1  0.50351441  0.17938355  0.96762814  1
  O  O447  1  0.50579066  0.67121216  0.30564771  1
  O  O448  1  0.50585720  0.66461917  0.63546927  1
  O  O449  1  0.50963224  0.67133535  0.97009008  1
  O  O450  1  0.34613962  0.50177316  0.19455034  1
  O  O451  1  0.33451639  0.48945302  0.53229447  1
  O  O452  1  0.33325683  0.49329267  0.86179006  1
  O  O453  1  0.33393214  0.99310704  0.19687422  1
  O  O454  1  0.33996328  0.99854241  0.53321656  1
  O  O455  1  0.32875313  0.99410673  0.86247276  1
  O  O456  1  0.82671117  0.48609697  0.19130240  1
  O  O457  1  0.83024730  0.49432257  0.53019754  1
  O  O458  1  0.82820075  0.49331749  0.86044757  1
  O  O459  1  0.84349897  0.99366545  0.19565646  1
  O  O460  1  0.83671682  0.98431224  0.53753269  1
  O  O461  1  0.82268559  0.98123320  0.86534097  1
