# generated using pymatgen
data_Na31Fe20(SO4)36
_symmetry_space_group_name_H-M   'P 1'
_cell_length_a   18.07505488
_cell_length_b   18.08022199
_cell_length_c   19.71167283
_cell_angle_alpha   107.57484956
_cell_angle_beta   107.58039160
_cell_angle_gamma   90.72151907
_symmetry_Int_Tables_number   1
_chemical_formula_structural   Na31Fe20(SO4)36
_chemical_formula_sum   'Na62 Fe40 S72 O288'
_cell_volume   5815.97881685
_cell_formula_units_Z   2
loop_
 _symmetry_equiv_pos_site_id
 _symmetry_equiv_pos_as_xyz
  1  'x, y, z'
loop_
 _atom_site_type_symbol
 _atom_site_label
 _atom_site_symmetry_multiplicity
 _atom_site_fract_x
 _atom_site_fract_y
 _atom_site_fract_z
 _atom_site_occupancy
  Na  Na0  1  0.13896310  0.36631120  0.08530391  1
  Na  Na1  1  0.13880484  0.35211098  0.40572856  1
  Na  Na2  1  0.13545776  0.37614305  0.75163348  1
  Na  Na3  1  0.13544303  0.86441491  0.08064609  1
  Na  Na4  1  0.17533665  0.85491917  0.44299935  1
  Na  Na5  1  0.13652924  0.86735853  0.74998155  1
  Na  Na6  1  0.63073145  0.36423206  0.07914690  1
  Na  Na7  1  0.63427061  0.37162450  0.42611825  1
  Na  Na8  1  0.63397481  0.36451156  0.74842204  1
  Na  Na9  1  0.63152742  0.85100181  0.07840040  1
  Na  Na10  1  0.62462672  0.86048163  0.40635316  1
  Na  Na11  1  0.63519926  0.87082992  0.74797638  1
  Na  Na12  1  0.36745071  0.13781955  0.25491343  1
  Na  Na13  1  0.36233739  0.13335507  0.58380908  1
  Na  Na14  1  0.36162328  0.13401907  0.91506447  1
  Na  Na15  1  0.36685236  0.65194461  0.26128428  1
  Na  Na16  1  0.36028782  0.64071687  0.58024481  1
  Na  Na17  1  0.36647728  0.64298265  0.92553117  1
  Na  Na18  1  0.87284901  0.13272592  0.25747635  1
  Na  Na19  1  0.86362695  0.13048120  0.58024058  1
  Na  Na20  1  0.83906825  0.12730505  0.88578630  1
  Na  Na21  1  0.86328417  0.63553071  0.25064772  1
  Na  Na22  1  0.87063631  0.62358011  0.58423123  1
  Na  Na23  1  0.87931065  0.62209681  0.91493053  1
  Na  Na24  1  0.48941441  0.01591249  0.42060659  1
  Na  Na25  1  1.01740409  0.45391903  0.47251509  1
  Na  Na26  1  0.45890466  0.01251774  0.73373549  1
  Na  Na27  1  0.50886959  -0.02406913  0.09031733  1
  Na  Na28  1  0.49278143  0.56886605  0.10696879  1
  Na  Na29  1  0.99603054  0.51278264  0.06842286  1
  Na  Na30  1  0.99461847  -0.00375306  0.10978786  1
  Na  Na31  1  1.01737534  -0.00965550  0.40602811  1
  Na  Na32  1  0.99746923  0.01343077  0.71894268  1
  Na  Na33  1  0.53101030  0.98737524  0.59499662  1
  Na  Na34  1  0.00909226  0.49256403  0.25612058  1
  Na  Na35  1  0.01934853  0.49502671  0.69522595  1
  Na  Na36  1  0.49381915  0.50797069  0.26265573  1
  Na  Na37  1  0.50827889  0.98848214  0.91476439  1
  Na  Na38  1  0.51311173  0.49676548  0.58159867  1
  Na  Na39  1  0.00833193  0.98749731  0.91800053  1
  Na  Na40  1  0.51225016  0.50556898  0.89166507  1
  Na  Na41  1  0.49904633  0.94492336  0.23823140  1
  Na  Na42  1  0.25501939  0.76057548  0.65295672  1
  Na  Na43  1  0.74923821  0.74367170  0.66682317  1
  Na  Na44  1  0.74058998  0.23502205  0.68474818  1
  Na  Na45  1  0.73289580  0.73934290  0.33484379  1
  Na  Na46  1  0.75341270  0.74908243  -0.00079656  1
  Na  Na47  1  0.22898967  0.73434058  0.00207421  1
  Na  Na48  1  0.75781751  0.25556901  -0.01686302  1
  Na  Na49  1  0.77038281  0.26600819  0.33269845  1
  Na  Na50  1  0.25083873  0.25992822  0.66291207  1
  Na  Na51  1  0.25315580  0.25378258  0.00037573  1
  Na  Na52  1  0.73932721  0.74156913  0.50133609  1
  Na  Na53  1  0.77224205  0.27443782  0.50131463  1
  Na  Na54  1  0.24372091  0.24426022  0.18018283  1
  Na  Na55  1  0.25104495  0.25473978  0.49539563  1
  Na  Na56  1  0.24124321  0.74283061  0.17901770  1
  Na  Na57  1  0.75768462  0.25382325  0.16088930  1
  Na  Na58  1  0.25619505  0.26040168  0.82970303  1
  Na  Na59  1  0.22582353  0.72278902  0.83261380  1
  Na  Na60  1  0.73071947  0.73822868  0.17219659  1
  Na  Na61  1  0.75934037  0.75069739  0.83247749  1
  Fe  Fe62  1  0.46175198  0.30775391  0.45320021  1
  Fe  Fe63  1  0.46600310  0.30982366  0.12264218  1
  Fe  Fe64  1  0.96301335  0.80957382  0.45691506  1
  Fe  Fe65  1  0.45693284  0.81316244  0.45291563  1
  Fe  Fe66  1  0.96691460  0.30470839  0.11528937  1
  Fe  Fe67  1  0.46348597  0.30833613  0.78685936  1
  Fe  Fe68  1  0.96772090  0.80215542  0.79047349  1
  Fe  Fe69  1  0.46502799  0.80780690  0.77912226  1
  Fe  Fe70  1  0.96658364  0.30910030  0.78230189  1
  Fe  Fe71  1  0.96603639  0.80731631  0.12236438  1
  Fe  Fe72  1  0.19657479  0.03312558  0.38177773  1
  Fe  Fe73  1  0.69536541  0.53192736  0.04490681  1
  Fe  Fe74  1  0.19690556  0.03026291  0.70658868  1
  Fe  Fe75  1  0.70499611  0.53150098  0.70899389  1
  Fe  Fe76  1  0.69313302  0.53353572  0.37918603  1
  Fe  Fe77  1  0.69059191  0.03374226  0.38201572  1
  Fe  Fe78  1  0.18302213  0.53789826  0.04127413  1
  Fe  Fe79  1  0.69309403  0.03503404  0.05021509  1
  Fe  Fe80  1  0.19386445  0.03721018  0.04830538  1
  Fe  Fe81  1  0.19440861  0.53847098  0.38399470  1
  Fe  Fe82  1  0.03583415  0.19377299  0.87751445  1
  Fe  Fe83  1  0.53319695  0.68798237  0.54066835  1
  Fe  Fe84  1  0.03180388  0.19624440  0.53808149  1
  Fe  Fe85  1  0.53232730  0.19483788  0.55316680  1
  Fe  Fe86  1  0.03768435  0.19454493  0.21662574  1
  Fe  Fe87  1  0.03836389  0.69411431  0.22116771  1
  Fe  Fe88  1  0.53423259  0.19046367  0.88098177  1
  Fe  Fe89  1  0.03613355  0.68840345  0.54541370  1
  Fe  Fe90  1  0.53343950  0.69235189  0.87324679  1
  Fe  Fe91  1  0.53528531  0.19368190  0.21736713  1
  Fe  Fe92  1  0.30676036  0.96364043  0.28465871  1
  Fe  Fe93  1  0.80416686  0.96797324  0.95166953  1
  Fe  Fe94  1  0.80640254  0.46009396  0.94655981  1
  Fe  Fe95  1  0.79769247  0.96707162  0.62139894  1
  Fe  Fe96  1  0.30729734  0.46939864  0.95599832  1
  Fe  Fe97  1  0.80836213  0.96454274  0.28889644  1
  Fe  Fe98  1  0.31177795  0.96403487  0.95315791  1
  Fe  Fe99  1  0.30249664  0.47150917  0.62565019  1
  Fe  Fe100  1  0.31026137  0.46672645  0.29166561  1
  Fe  Fe101  1  0.81408771  0.46303651  0.28895627  1
  S  S102  1  0.36057385  0.14219030  0.08464707  1
  S  S103  1  0.36093090  0.14064354  0.41548779  1
  S  S104  1  0.35624867  0.14620239  0.75426424  1
  S  S105  1  0.35124079  0.64476910  0.08430636  1
  S  S106  1  0.35928062  0.64021090  0.41571596  1
  S  S107  1  0.35925551  0.64487801  0.74649901  1
  S  S108  1  0.86027080  0.13926986  0.08194898  1
  S  S109  1  0.85752639  0.13651940  0.41887361  1
  S  S110  1  0.86554126  0.13771205  0.74661516  1
  S  S111  1  0.86238672  0.63752115  0.08518279  1
  S  S112  1  0.85957194  0.64193231  0.41367317  1
  S  S113  1  0.86370383  0.64514220  0.75310699  1
  S  S114  1  0.14059775  0.36277911  0.24879474  1
  S  S115  1  0.14029523  0.35708098  0.57970449  1
  S  S116  1  0.14083135  0.35889128  0.91944631  1
  S  S117  1  0.13851064  0.86261737  0.25231155  1
  S  S118  1  0.13508526  0.86096768  0.58319957  1
  S  S119  1  0.14085893  0.86504455  0.91503988  1
  S  S120  1  0.64233757  0.35546561  0.24954716  1
  S  S121  1  0.63685751  0.35788380  0.58536548  1
  S  S122  1  0.63963292  0.35856004  0.91646594  1
  S  S123  1  0.64134360  0.86285122  0.24476419  1
  S  S124  1  0.63805674  0.85491687  0.57947199  1
  S  S125  1  0.63908799  0.86040050  0.91693748  1
  S  S126  1  0.06830473  0.17011319  0.04140814  1
  S  S127  1  0.06673270  0.16238474  0.37331670  1
  S  S128  1  0.07565626  0.17486692  0.70654722  1
  S  S129  1  0.06315121  0.67640109  0.04926029  1
  S  S130  1  0.06613660  0.66908680  0.37549375  1
  S  S131  1  0.06736268  0.67899825  0.70880483  1
  S  S132  1  0.56562476  0.16772534  0.04431475  1
  S  S133  1  0.56896741  0.17028130  0.37872582  1
  S  S134  1  0.55691192  0.16718360  0.71135169  1
  S  S135  1  0.57188114  0.66120841  0.03328274  1
  S  S136  1  0.56492972  0.66729224  0.37239875  1
  S  S137  1  0.57401120  0.67076849  0.70712802  1
  S  S138  1  0.33117642  0.43290520  0.12762474  1
  S  S139  1  0.32883542  0.43219664  0.46106552  1
  S  S140  1  0.33253671  0.43587495  0.79539225  1
  S  S141  1  0.32861827  0.93661776  0.12026008  1
  S  S142  1  0.34182657  0.94261453  0.46202617  1
  S  S143  1  0.33290474  0.93646990  0.79030725  1
  S  S144  1  0.83197522  0.43110126  0.12215686  1
  S  S145  1  0.82567162  0.43330761  0.44995826  1
  S  S146  1  0.82889856  0.42880878  0.78903930  1
  S  S147  1  0.82622002  0.93141712  0.12335254  1
  S  S148  1  0.82287190  0.92716057  0.45578691  1
  S  S149  1  0.83135159  0.92775396  0.79142908  1
  S  S150  1  0.43488290  0.33201713  0.29144999  1
  S  S151  1  0.42784730  0.33075739  0.62487877  1
  S  S152  1  0.43151703  0.33045200  0.95994243  1
  S  S153  1  0.43040729  0.83549581  0.29166568  1
  S  S154  1  0.43907116  0.83201005  0.62170101  1
  S  S155  1  0.43567536  0.83185020  0.95219258  1
  S  S156  1  0.93886751  0.32926334  0.28638601  1
  S  S157  1  0.93719133  0.32332834  0.62011715  1
  S  S158  1  0.93331951  0.32574017  0.95679250  1
  S  S159  1  0.92803632  0.82668510  0.28953165  1
  S  S160  1  0.92386024  0.82791597  0.62444641  1
  S  S161  1  0.93436527  0.84302418  0.96450175  1
  S  S162  1  0.17228549  0.06858390  0.20817532  1
  S  S163  1  0.16884297  0.07450747  0.54115896  1
  S  S164  1  0.16959110  0.07046092  0.87333748  1
  S  S165  1  0.16756789  0.56627472  0.20817076  1
  S  S166  1  0.17018136  0.56498214  0.54052645  1
  S  S167  1  0.16771850  0.56597928  0.88191004  1
  S  S168  1  0.67041047  0.07126756  0.21066814  1
  S  S169  1  0.66498574  0.06613131  0.54339885  1
  S  S170  1  0.66215342  0.06286911  0.87769106  1
  S  S171  1  0.67031528  0.55737256  0.20860353  1
  S  S172  1  0.66699543  0.56530695  0.53925778  1
  S  S173  1  0.67869842  0.56951012  0.87407508  1
  O  O174  1  0.37143124  0.22086917  0.07607032  1
  O  O175  1  0.37087467  0.21898904  0.40730728  1
  O  O176  1  0.36113425  0.22937875  0.75401757  1
  O  O177  1  0.35661026  0.71729970  0.06720894  1
  O  O178  1  0.37164932  0.71698868  0.40582639  1
  O  O179  1  0.37398472  0.72132083  0.73280570  1
  O  O180  1  0.86781316  0.22018559  0.07761874  1
  O  O181  1  0.86002453  0.21285207  0.40847048  1
  O  O182  1  0.87755216  0.21484094  0.73560438  1
  O  O183  1  0.86968550  0.71598233  0.07583717  1
  O  O184  1  0.86956163  0.72009739  0.40327140  1
  O  O185  1  0.86824381  0.72928954  0.74898032  1
  O  O186  1  0.28066931  0.13560158  0.09158624  1
  O  O187  1  0.28238461  0.13140746  0.42379996  1
  O  O188  1  0.27890449  0.13254037  0.76411578  1
  O  O189  1  0.26854319  0.63017703  0.08604324  1
  O  O190  1  0.28025946  0.63057515  0.42223686  1
  O  O191  1  0.28319092  0.64084386  0.75618458  1
  O  O192  1  0.78381354  0.13019960  0.09534331  1
  O  O193  1  0.78280366  0.12172963  0.43370319  1
  O  O194  1  0.79015437  0.13012437  0.75747294  1
  O  O195  1  0.78344089  0.62766359  0.09375074  1
  O  O196  1  0.77827412  0.63488887  0.41757394  1
  O  O197  1  0.77863413  0.63394347  0.74997010  1
  O  O198  1  0.13234993  0.28388434  0.25642493  1
  O  O199  1  0.12961954  0.27136838  0.57752607  1
  O  O200  1  0.12933083  0.28040225  0.92961824  1
  O  O201  1  0.13067628  0.78258895  0.25695459  1
  O  O202  1  0.12298691  0.78284765  0.59337761  1
  O  O203  1  0.13755392  0.78871726  0.92513541  1
  O  O204  1  0.63331594  0.27760163  0.26034138  1
  O  O205  1  0.62324097  0.28246063  0.60066180  1
  O  O206  1  0.62705768  0.28036354  0.92534103  1
  O  O207  1  0.63671912  0.78508219  0.25215869  1
  O  O208  1  0.63303431  0.77329748  0.58355589  1
  O  O209  1  0.63070202  0.78063545  0.92362254  1
  O  O210  1  0.21927837  0.37281300  0.24038585  1
  O  O211  1  0.22639961  0.36700319  0.58910060  1
  O  O212  1  0.22206880  0.36506984  0.91583934  1
  O  O213  1  0.21460764  0.87256594  0.23810995  1
  O  O214  1  0.21175710  0.86997264  0.57523524  1
  O  O215  1  0.21653053  0.88006180  0.90201538  1
  O  O216  1  0.72274341  0.36267025  0.24338526  1
  O  O217  1  0.71044747  0.36045719  0.57058844  1
  O  O218  1  0.71961947  0.36482127  0.91124060  1
  O  O219  1  0.72158517  0.87672531  0.23781789  1
  O  O220  1  0.71704947  0.86661415  0.57142858  1
  O  O221  1  0.71902311  0.87041319  0.91099250  1
  O  O222  1  0.41815100  0.13465645  0.15351888  1
  O  O223  1  0.42047194  0.13190797  0.48335648  1
  O  O224  1  0.41724706  0.13663352  0.82181778  1
  O  O225  1  0.40545017  0.64265169  0.15587379  1
  O  O226  1  0.41676405  0.63159305  0.48444235  1
  O  O227  1  0.42076382  0.63879057  0.81506368  1
  O  O228  1  0.92299254  0.12682364  0.14569646  1
  O  O229  1  0.92202655  0.13061974  0.48576393  1
  O  O230  1  0.92903244  0.12910850  0.81324481  1
  O  O231  1  0.92154040  0.62996396  0.15327601  1
  O  O232  1  0.91540968  0.63633628  0.48368838  1
  O  O233  1  0.91512033  0.64360562  0.82479409  1
  O  O234  1  0.36813129  0.08265840  0.01678693  1
  O  O235  1  0.36960142  0.08111430  0.34796614  1
  O  O236  1  0.36585635  0.09335305  0.68616539  1
  O  O237  1  0.36742395  0.57988978  0.02199521  1
  O  O238  1  0.36749791  0.57935579  0.34794418  1
  O  O239  1  0.36644987  0.58312549  0.67932735  1
  O  O240  1  0.86250979  0.08365481  0.01002078  1
  O  O241  1  0.86533369  0.07562727  0.35092549  1
  O  O242  1  0.87343625  0.07586953  0.67867666  1
  O  O243  1  0.87129161  0.57714753  0.01809912  1
  O  O244  1  0.86958294  0.58189319  0.34725925  1
  O  O245  1  0.87817705  0.59155431  0.68797830  1
  O  O246  1  0.08100485  0.37060510  0.18040616  1
  O  O247  1  0.09463859  0.36504608  0.50766230  1
  O  O248  1  0.08501017  0.36381206  0.84935134  1
  O  O249  1  0.07631071  0.87503607  0.18804880  1
  O  O250  1  0.07367229  0.86727543  0.51478268  1
  O  O251  1  0.07715960  0.87200786  0.84792245  1
  O  O252  1  0.58578686  0.35924418  0.17813998  1
  O  O253  1  0.57217398  0.36558224  0.51908595  1
  O  O254  1  0.58210707  0.36912276  0.84880914  1
  O  O255  1  0.58346856  0.87396897  0.17887426  1
  O  O256  1  0.57881836  0.86268615  0.51073981  1
  O  O257  1  0.58107930  0.86985719  0.84916610  1
  O  O258  1  0.13108341  0.42239628  0.31565424  1
  O  O259  1  0.12099227  0.40775375  0.64354832  1
  O  O260  1  0.13126728  0.41830551  0.98637347  1
  O  O261  1  0.13660977  0.91910073  0.32426175  1
  O  O262  1  0.12612207  0.92122515  0.65142282  1
  O  O263  1  0.13106261  0.92631104  0.98214769  1
  O  O264  1  0.63006823  0.41633760  0.31350669  1
  O  O265  1  0.63232866  0.42179020  0.65250047  1
  O  O266  1  0.63193021  0.41849306  0.98426426  1
  O  O267  1  0.63202177  0.92200026  0.31425499  1
  O  O268  1  0.62835277  0.91072334  0.64631358  1
  O  O269  1  0.62938640  0.91814663  0.98524075  1
  O  O270  1  0.03167944  0.20036367  0.10235206  1
  O  O271  1  0.02623772  0.18584251  0.43084488  1
  O  O272  1  0.03740384  0.20434148  0.76627465  1
  O  O273  1  0.03131214  0.70675712  0.11549066  1
  O  O274  1  0.02996335  0.69742406  0.43681144  1
  O  O275  1  0.02748826  0.71058866  0.76675117  1
  O  O276  1  0.53085265  0.19805825  0.10615486  1
  O  O277  1  0.53276072  0.19962981  0.43992284  1
  O  O278  1  0.52331599  0.20798453  0.77419546  1
  O  O279  1  0.54181682  0.68214685  0.09587387  1
  O  O280  1  0.53288233  0.69757681  0.43639913  1
  O  O281  1  0.53749133  0.70076337  0.76808865  1
  O  O282  1  0.30130282  0.46665436  0.06583551  1
  O  O283  1  0.29823633  0.46615982  0.39770071  1
  O  O284  1  0.31164486  0.47092730  0.73548748  1
  O  O285  1  0.29405696  0.97522467  0.06018599  1
  O  O286  1  0.30371400  0.97049518  0.39412165  1
  O  O287  1  0.30385388  0.97483208  0.73251103  1
  O  O288  1  0.80101359  0.46617638  0.06042838  1
  O  O289  1  0.79007172  0.47116892  0.38752379  1
  O  O290  1  0.80274651  0.46893249  0.73258174  1
  O  O291  1  0.79824296  0.96971152  0.06311645  1
  O  O292  1  0.79223011  0.96345282  0.39444919  1
  O  O293  1  0.80896012  0.96115389  0.73011581  1
  O  O294  1  0.47396170  0.30142770  0.23167071  1
  O  O295  1  0.46212072  0.29679340  0.56249675  1
  O  O296  1  0.46971817  0.30176482  0.90049466  1
  O  O297  1  0.46645788  0.81765608  0.23336550  1
  O  O298  1  0.47173069  0.79239554  0.55865383  1
  O  O299  1  0.46744703  0.80223790  0.88685802  1
  O  O300  1  0.97078823  0.29506974  0.22121127  1
  O  O301  1  0.97674083  0.28860452  0.56191780  1
  O  O302  1  0.96787504  0.29822691  0.89452477  1
  O  O303  1  0.96614963  0.79617928  0.22985172  1
  O  O304  1  0.96084558  0.79981924  0.56409165  1
  O  O305  1  0.96912831  0.82002711  0.90385240  1
  O  O306  1  0.20189436  0.03372518  0.26991533  1
  O  O307  1  0.18960474  0.04330440  0.60383231  1
  O  O308  1  0.19952354  0.03809442  0.93676208  1
  O  O309  1  0.19880426  0.53045016  0.26922750  1
  O  O310  1  0.19878895  0.52710349  0.59844930  1
  O  O311  1  0.20554424  0.52364771  0.94047854  1
  O  O312  1  0.70068683  0.03839126  0.27337171  1
  O  O313  1  0.69428309  0.02783510  0.60112677  1
  O  O314  1  0.69626459  0.03258450  0.94449895  1
  O  O315  1  0.70997257  0.52216356  0.26878983  1
  O  O316  1  0.69328888  0.53013932  0.59936093  1
  O  O317  1  0.70528608  0.53026913  0.93418129  1
  O  O318  1  0.08532437  0.08803722  0.03698254  1
  O  O319  1  0.08585350  0.08036555  0.36426661  1
  O  O320  1  0.09415401  0.09444219  0.70518032  1
  O  O321  1  0.08252171  0.59535885  0.04792541  1
  O  O322  1  0.08583042  0.58757939  0.36956325  1
  O  O323  1  0.09102412  0.60328761  0.71123153  1
  O  O324  1  0.58163503  0.08492998  0.03819597  1
  O  O325  1  0.58171582  0.08654083  0.37008886  1
  O  O326  1  0.56023412  0.08561203  0.70968103  1
  O  O327  1  0.58964070  0.57646871  0.01720783  1
  O  O328  1  0.59330606  0.58916377  0.37289551  1
  O  O329  1  0.59614497  0.59118487  0.70313815  1
  O  O330  1  0.41441704  0.41672606  0.13592773  1
  O  O331  1  0.41091649  0.41488699  0.46645904  1
  O  O332  1  0.41377021  0.41097088  0.80570608  1
  O  O333  1  0.40915815  0.92514194  0.12147470  1
  O  O334  1  0.42675200  0.93233502  0.46663226  1
  O  O335  1  0.41608238  0.92006928  0.79424274  1
  O  O336  1  0.91422078  0.41464588  0.12687432  1
  O  O337  1  0.89519158  0.40132911  0.43510441  1
  O  O338  1  0.90772932  0.40512457  0.79226556  1
  O  O339  1  0.90674341  0.91112748  0.12737903  1
  O  O340  1  0.90400058  0.91085037  0.45957796  1
  O  O341  1  0.91385078  0.90699935  0.80457744  1
  O  O342  1  0.41665377  0.41260379  0.29312275  1
  O  O343  1  0.40793351  0.40976060  0.62477027  1
  O  O344  1  0.41117374  0.41067882  0.96494213  1
  O  O345  1  0.41464925  0.92183020  0.30772102  1
  O  O346  1  0.43374642  0.91363410  0.62403977  1
  O  O347  1  0.41982592  0.91621214  0.95886282  1
  O  O348  1  0.91559275  0.40796490  0.28252504  1
  O  O349  1  0.91606392  0.39928382  0.61544015  1
  O  O350  1  0.91283836  0.40692621  0.96474915  1
  O  O351  1  0.91206358  0.90876249  0.29446952  1
  O  O352  1  0.90313527  0.90844593  0.62858170  1
  O  O353  1  0.91741853  0.92748412  0.97683204  1
  O  O354  1  0.09219168  0.09110958  0.20484098  1
  O  O355  1  0.08600974  0.09625370  0.52623041  1
  O  O356  1  0.08534127  0.08326186  0.86369958  1
  O  O357  1  0.08416991  0.58086516  0.20376889  1
  O  O358  1  0.08793312  0.58280370  0.53472200  1
  O  O359  1  0.10020923  0.59741509  0.89993908  1
  O  O360  1  0.58769735  0.08754644  0.20353315  1
  O  O361  1  0.58261186  0.08468926  0.54083331  1
  O  O362  1  0.57963280  0.08013277  0.87571694  1
  O  O363  1  0.58956304  0.56469155  0.20830556  1
  O  O364  1  0.58432774  0.58293729  0.53148450  1
  O  O365  1  0.59843632  0.59052803  0.86977221  1
  O  O366  1  0.14099616  0.22135931  0.05982477  1
  O  O367  1  0.13723187  0.21601336  0.39255506  1
  O  O368  1  0.14609843  0.22816446  0.72288370  1
  O  O369  1  0.13580891  0.72817293  0.06729113  1
  O  O370  1  0.13339340  0.72182388  0.38695378  1
  O  O371  1  0.13556158  0.73542973  0.72396925  1
  O  O372  1  0.63772661  0.21791704  0.05919670  1
  O  O373  1  0.64184747  0.21926636  0.39507470  1
  O  O374  1  0.63177276  0.21064127  0.72510812  1
  O  O375  1  0.64412733  0.71247048  0.04779483  1
  O  O376  1  0.63269123  0.72318951  0.38490912  1
  O  O377  1  0.64245177  0.72669733  0.72266325  1
  O  O378  1  0.28112620  0.36012379  0.11237285  1
  O  O379  1  0.27798970  0.36137016  0.44689334  1
  O  O380  1  0.27620429  0.36710319  0.77913649  1
  O  O381  1  0.27781058  0.86479273  0.10334031  1
  O  O382  1  0.30187654  0.86646457  0.44909542  1
  O  O383  1  0.28341134  0.86406400  0.77434937  1
  O  O384  1  0.78068767  0.35893302  0.10569468  1
  O  O385  1  0.76615789  0.36792688  0.43680925  1
  O  O386  1  0.77259075  0.36104175  0.77445186  1
  O  O387  1  0.77281751  0.86049554  0.10491233  1
  O  O388  1  0.77110370  0.85522670  0.43876366  1
  O  O389  1  0.77641523  0.85896854  0.77687322  1
  O  O390  1  0.36398496  0.27943482  0.27337383  1
  O  O391  1  0.35877283  0.27690554  0.61238985  1
  O  O392  1  0.36123081  0.27596669  0.94309980  1
  O  O393  1  0.35697897  0.78652835  0.27415267  1
  O  O394  1  0.36548351  0.78755991  0.61023176  1
  O  O395  1  0.36293370  0.78343954  0.93697404  1
  O  O396  1  0.86887548  0.27612477  0.27291747  1
  O  O397  1  0.86905508  0.26787257  0.60672940  1
  O  O398  1  0.86546430  0.27155809  0.94387223  1
  O  O399  1  0.85546867  0.77532445  0.27102089  1
  O  O400  1  0.85436389  0.77330384  0.60836444  1
  O  O401  1  0.86276639  0.79170735  0.94877660  1
  O  O402  1  0.22616311  0.13590586  0.21933950  1
  O  O403  1  0.22390151  0.14280862  0.55520706  1
  O  O404  1  0.21803580  0.14437023  0.88986634  1
  O  O405  1  0.21650960  0.63796732  0.22265690  1
  O  O406  1  0.22081473  0.63633584  0.55467095  1
  O  O407  1  0.22901206  0.62987482  0.89450039  1
  O  O408  1  0.72195701  0.14128155  0.22281849  1
  O  O409  1  0.71545048  0.13807820  0.55909670  1
  O  O410  1  0.71049824  0.13574312  0.89223530  1
  O  O411  1  0.71628976  0.63310903  0.22455541  1
  O  O412  1  0.71895214  0.63709800  0.55483524  1
  O  O413  1  0.73383517  0.63991852  0.89381729  1
  O  O414  1  0.49054139  0.33234452  0.03277924  1
  O  O415  1  0.49226842  0.33470933  0.36468604  1
  O  O416  1  0.48902845  0.33577926  0.69738667  1
  O  O417  1  0.49744598  0.83469720  0.02128121  1
  O  O418  1  0.48697955  0.83148134  0.36435914  1
  O  O419  1  0.49846888  0.83081824  0.69435166  1
  O  O420  1  0.99624930  0.33006684  0.02891892  1
  O  O421  1  1.00113291  0.33809063  0.35620361  1
  O  O422  1  0.99630246  0.33232749  0.69617401  1
  O  O423  1  0.99402662  0.84328866  0.03694677  1
  O  O424  1  0.98571604  0.82939610  0.36260026  1
  O  O425  1  0.98331722  0.83327105  0.69829333  1
  O  O426  1  0.16326731  0.00622517  0.13481265  1
  O  O427  1  0.16736422  0.01062804  0.47092855  1
  O  O428  1  0.17200343  0.01157351  0.80255689  1
  O  O429  1  0.16349548  0.50696369  0.13455917  1
  O  O430  1  0.16490074  0.50597663  0.46534236  1
  O  O431  1  0.15054142  0.50721201  0.80756791  1
  O  O432  1  0.66618117  0.00913751  0.13806149  1
  O  O433  1  0.65734418  0.00858179  0.46745964  1
  O  O434  1  0.66064136  0.00180303  0.80986980  1
  O  O435  1  0.67079917  0.50310790  0.13425981  1
  O  O436  1  0.66730007  0.50679370  0.46726106  1
  O  O437  1  0.67696381  0.51144355  0.80203027  1
  O  O438  1  0.00871525  0.16447250  0.30099984  1
  O  O439  1  0.01796581  0.17069228  0.63224255  1
  O  O440  1  0.01048346  0.16712218  0.96857299  1
  O  O441  1  0.00310499  0.66243981  0.30236319  1
  O  O442  1  0.00841219  0.67215765  0.63343737  1
  O  O443  1  0.00296569  0.67674791  0.98198423  1
  O  O444  1  0.50973476  0.17195296  0.30702085  1
  O  O445  1  0.49922526  0.16987772  0.63901119  1
  O  O446  1  0.50589028  0.16682480  0.97250883  1
  O  O447  1  0.50248386  0.65470247  0.30134083  1
  O  O448  1  0.51274753  0.66537424  0.63447596  1
  O  O449  1  0.51120084  0.66249794  0.96162326  1
  O  O450  1  0.33207499  0.49229156  0.19963716  1
  O  O451  1  0.33136682  0.49373679  0.53211075  1
  O  O452  1  0.33646517  0.49571448  0.86832309  1
  O  O453  1  0.33025046  0.99338203  0.19460321  1
  O  O454  1  0.34007986  1.00388977  0.52891556  1
  O  O455  1  0.33819639  0.99371137  0.86593061  1
  O  O456  1  0.83430786  0.49001432  0.19458667  1
  O  O457  1  0.84006042  0.49392020  0.52155195  1
  O  O458  1  0.83635409  0.48714918  0.86537456  1
  O  O459  1  0.82882380  0.99030425  0.19567960  1
  O  O460  1  0.82263024  0.98599319  0.52738017  1
  O  O461  1  0.83189521  0.98980573  0.86279375  1
