# generated using pymatgen
data_Na31Fe20(SO4)36
_symmetry_space_group_name_H-M   'P 1'
_cell_length_a   18.07930045
_cell_length_b   18.07264584
_cell_length_c   19.72170780
_cell_angle_alpha   107.57647459
_cell_angle_beta   107.56748412
_cell_angle_gamma   90.72944252
_symmetry_Int_Tables_number   1
_chemical_formula_structural   Na31Fe20(SO4)36
_chemical_formula_sum   'Na62 Fe40 S72 O288'
_cell_volume   5818.17474253
_cell_formula_units_Z   2
loop_
 _symmetry_equiv_pos_site_id
 _symmetry_equiv_pos_as_xyz
  1  'x, y, z'
loop_
 _atom_site_type_symbol
 _atom_site_label
 _atom_site_symmetry_multiplicity
 _atom_site_fract_x
 _atom_site_fract_y
 _atom_site_fract_z
 _atom_site_occupancy
  Na  Na0  1  0.14021436  0.36946206  0.08705255  1
  Na  Na1  1  0.12415073  0.36271506  0.40392703  1
  Na  Na2  1  0.13557129  0.36945270  0.75240935  1
  Na  Na3  1  0.13241482  0.87003931  0.08769920  1
  Na  Na4  1  0.13516239  0.86452156  0.42058972  1
  Na  Na5  1  0.13694885  0.87552318  0.76272715  1
  Na  Na6  1  0.63329330  0.36787341  0.08782326  1
  Na  Na7  1  0.62878333  0.36378995  0.41478953  1
  Na  Na8  1  0.62991726  0.35773297  0.75560148  1
  Na  Na9  1  0.65134326  0.84131771  0.08389616  1
  Na  Na10  1  0.63618070  0.84632577  0.39114497  1
  Na  Na11  1  0.64046680  0.87010668  0.75142045  1
  Na  Na12  1  0.36368932  0.13056903  0.25033463  1
  Na  Na13  1  0.36973470  0.13815318  0.59486526  1
  Na  Na14  1  0.36308407  0.13208372  0.91788686  1
  Na  Na15  1  0.37190903  0.63346809  0.24508196  1
  Na  Na16  1  0.36832252  0.63408250  0.58351749  1
  Na  Na17  1  0.36455454  0.63616765  0.91740564  1
  Na  Na18  1  0.88142731  0.13152595  0.24563134  1
  Na  Na19  1  0.86992740  0.13587409  0.58630325  1
  Na  Na20  1  0.83786741  0.12931375  0.88726906  1
  Na  Na21  1  0.83388113  0.65785639  0.25516698  1
  Na  Na22  1  0.86059096  0.63273916  0.57630451  1
  Na  Na23  1  0.86515405  0.64149421  0.93054091  1
  Na  Na24  1  0.99682463  -0.00283785  0.41135214  1
  Na  Na25  1  0.98909944  0.02980605  0.10422219  1
  Na  Na26  1  0.48641516  0.54325843  0.08818074  1
  Na  Na27  1  0.49076608  0.01245696  0.42108505  1
  Na  Na28  1  0.98899081  0.50412222  0.76519664  1
  Na  Na29  1  0.95269660  0.51862181  0.30122269  1
  Na  Na30  1  0.45312760  0.00260665  0.06932646  1
  Na  Na31  1  0.49942845  0.01796146  0.74911644  1
  Na  Na32  1  1.02182600  0.49536709  0.06292355  1
  Na  Na33  1  0.51002114  0.48771885  0.58633411  1
  Na  Na34  1  0.50457676  0.99175761  0.91472550  1
  Na  Na35  1  0.50859423  0.97474201  0.24390461  1
  Na  Na36  1  0.55106304  0.98711499  0.59216849  1
  Na  Na37  1  0.51169602  0.49633593  0.26125210  1
  Na  Na38  1  0.00015879  0.51304549  0.55696463  1
  Na  Na39  1  0.01708616  1.00688793  0.90311426  1
  Na  Na40  1  0.00136200  0.95647714  0.58014512  1
  Na  Na41  1  0.51673573  0.47625296  0.89293315  1
  Na  Na42  1  0.23838657  0.24255360  0.33620335  1
  Na  Na43  1  0.24555672  0.75167764  0.67342566  1
  Na  Na44  1  0.24969311  0.25451429  0.00119600  1
  Na  Na45  1  0.23772673  0.73966145  0.00618258  1
  Na  Na46  1  0.75875522  0.75402683  0.65994482  1
  Na  Na47  1  0.75941405  0.25984411  -0.01402887  1
  Na  Na48  1  0.25977133  0.25890886  0.66666722  1
  Na  Na49  1  0.24650656  0.74335136  0.33500761  1
  Na  Na50  1  0.76230459  0.26339208  0.32413442  1
  Na  Na51  1  0.73950655  0.23000245  0.68891885  1
  Na  Na52  1  0.23875272  0.73580986  0.16813127  1
  Na  Na53  1  0.25293191  0.75671676  0.83928420  1
  Na  Na54  1  0.23668745  0.24340599  0.17230376  1
  Na  Na55  1  0.74910666  0.24829750  0.50312380  1
  Na  Na56  1  0.76618315  0.76112402  0.47606537  1
  Na  Na57  1  0.26022200  0.25972467  0.83165329  1
  Na  Na58  1  0.25178323  0.25180197  0.50140464  1
  Na  Na59  1  0.76183084  0.26548450  0.16139636  1
  Na  Na60  1  0.24778295  0.74627593  0.50562151  1
  Na  Na61  1  0.74201565  0.74177944  0.84617248  1
  Fe  Fe62  1  0.96694542  0.30809363  0.78775044  1
  Fe  Fe63  1  0.96769879  0.30539980  0.44939046  1
  Fe  Fe64  1  0.96214643  0.81052551  0.79069473  1
  Fe  Fe65  1  0.46238146  0.30551868  0.45374265  1
  Fe  Fe66  1  0.47415057  0.79346268  0.11572559  1
  Fe  Fe67  1  0.95555642  0.81605587  0.12158313  1
  Fe  Fe68  1  0.47239059  0.80028818  0.45027473  1
  Fe  Fe69  1  0.96964097  0.30173960  0.12333197  1
  Fe  Fe70  1  0.46214406  0.30905903  0.12315259  1
  Fe  Fe71  1  0.46870501  0.80430642  0.78519619  1
  Fe  Fe72  1  0.19930129  0.03036980  0.04676318  1
  Fe  Fe73  1  0.69755222  0.53363362  0.05824170  1
  Fe  Fe74  1  0.70170810  0.52978184  0.37885714  1
  Fe  Fe75  1  0.69127172  0.03676276  0.37770138  1
  Fe  Fe76  1  0.68869713  0.03659391  0.04911846  1
  Fe  Fe77  1  0.18823218  0.53819170  0.37724106  1
  Fe  Fe78  1  0.19702454  0.03206167  0.71675786  1
  Fe  Fe79  1  0.19018204  0.03325438  0.37769206  1
  Fe  Fe80  1  0.18954023  0.53907501  0.71149514  1
  Fe  Fe81  1  0.69583381  0.53170351  0.71731162  1
  Fe  Fe82  1  0.03656902  0.19177636  0.87676008  1
  Fe  Fe83  1  0.02761260  0.69837606  0.21348559  1
  Fe  Fe84  1  0.53961262  0.68449795  0.88082349  1
  Fe  Fe85  1  0.03800974  0.19225749  0.54605178  1
  Fe  Fe86  1  0.53000209  0.20426737  0.88269554  1
  Fe  Fe87  1  0.53009245  0.19181342  0.21630458  1
  Fe  Fe88  1  0.02687533  0.70176750  0.54037037  1
  Fe  Fe89  1  0.03162780  0.69790884  0.88615360  1
  Fe  Fe90  1  0.54186155  0.68159230  0.54310115  1
  Fe  Fe91  1  0.53246497  0.19452180  0.55619634  1
  Fe  Fe92  1  0.80086359  0.96951580  0.95022178  1
  Fe  Fe93  1  0.30605628  0.46947571  0.28697425  1
  Fe  Fe94  1  0.80766118  0.96621073  0.28293507  1
  Fe  Fe95  1  0.80295373  0.96942718  0.62047464  1
  Fe  Fe96  1  0.81106805  0.46350554  0.95703104  1
  Fe  Fe97  1  0.30932254  0.96042085  0.28663712  1
  Fe  Fe98  1  0.31192750  0.46490631  0.62420834  1
  Fe  Fe99  1  0.29842072  0.47183823  0.95575298  1
  Fe  Fe100  1  0.31305165  0.96281148  0.62174657  1
  Fe  Fe101  1  0.80921288  0.46173753  0.62232206  1
  S  S102  1  0.35754362  0.14267364  0.08561793  1
  S  S103  1  0.35937825  0.13744994  0.41880154  1
  S  S104  1  0.35916657  0.13936376  0.75321779  1
  S  S105  1  0.35503329  0.64571408  0.07779471  1
  S  S106  1  0.36227636  0.64000125  0.41935204  1
  S  S107  1  0.35816223  0.64184086  0.74671081  1
  S  S108  1  0.85195182  0.14147970  0.07639489  1
  S  S109  1  0.85917074  0.14217802  0.41614437  1
  S  S110  1  0.86423702  0.14063106  0.74700462  1
  S  S111  1  0.85736312  0.64165786  0.08609321  1
  S  S112  1  0.86267028  0.63986683  0.42162137  1
  S  S113  1  0.86059020  0.63975134  0.75138509  1
  S  S114  1  0.14265366  0.36253524  0.24886651  1
  S  S115  1  0.14106163  0.36230324  0.58215551  1
  S  S116  1  0.13741502  0.36045941  0.91720914  1
  S  S117  1  0.14143666  0.85977937  0.25034959  1
  S  S118  1  0.14454747  0.86154286  0.58530682  1
  S  S119  1  0.13921833  0.86072209  0.91869607  1
  S  S120  1  0.63659073  0.35535014  0.25605643  1
  S  S121  1  0.64020576  0.35690270  0.58569076  1
  S  S122  1  0.64366960  0.36180882  0.92180891  1
  S  S123  1  0.63964080  0.86387438  0.24634560  1
  S  S124  1  0.64500612  0.85082956  0.57839616  1
  S  S125  1  0.64038677  0.85813778  0.91607564  1
  S  S126  1  0.06871573  0.16713527  0.03950385  1
  S  S127  1  0.06884986  0.16739885  0.37839244  1
  S  S128  1  0.07458865  0.16901433  0.70631640  1
  S  S129  1  0.06036926  0.67833695  0.04740443  1
  S  S130  1  0.07020072  0.67502916  0.37703080  1
  S  S131  1  0.06594276  0.67634689  0.70783656  1
  S  S132  1  0.56334975  0.17324603  0.04548586  1
  S  S133  1  0.56133935  0.16682768  0.37817225  1
  S  S134  1  0.56236378  0.16639246  0.71152703  1
  S  S135  1  0.56526622  0.65632511  0.03093263  1
  S  S136  1  0.56992340  0.66122923  0.37671438  1
  S  S137  1  0.57043186  0.66762419  0.70855078  1
  S  S138  1  0.33255068  0.43522497  0.12779795  1
  S  S139  1  0.32701587  0.43128531  0.45794267  1
  S  S140  1  0.32480263  0.43860186  0.79031151  1
  S  S141  1  0.33420840  0.92876728  0.12479240  1
  S  S142  1  0.33842762  0.93027500  0.46079740  1
  S  S143  1  0.33852501  0.93357923  0.79311285  1
  S  S144  1  0.83469830  0.43196432  0.12466099  1
  S  S145  1  0.82799070  0.42774013  0.46146882  1
  S  S146  1  0.83042643  0.43013965  0.79129755  1
  S  S147  1  0.82948317  0.93954151  0.12222257  1
  S  S148  1  0.82935075  0.94223251  0.45607374  1
  S  S149  1  0.82796268  0.93055187  0.78947189  1
  S  S150  1  0.42597101  0.32919280  0.29257142  1
  S  S151  1  0.43509840  0.33277987  0.62492332  1
  S  S152  1  0.42888979  0.33519535  0.96324696  1
  S  S153  1  0.43191783  0.82945352  0.29012364  1
  S  S154  1  0.43925415  0.82901571  0.62374885  1
  S  S155  1  0.44400692  0.82496610  0.95365780  1
  S  S156  1  0.93026953  0.32490311  0.28784319  1
  S  S157  1  0.93706786  0.33115818  0.62431458  1
  S  S158  1  0.93407261  0.32412743  0.95717173  1
  S  S159  1  0.93768643  0.84028502  0.29377456  1
  S  S160  1  0.93129359  0.83181030  0.62787593  1
  S  S161  1  0.92912244  0.83654623  0.96060707  1
  S  S162  1  0.17611297  0.06388419  0.21198435  1
  S  S163  1  0.17493333  0.06748174  0.54446526  1
  S  S164  1  0.17107437  0.06957257  0.87746667  1
  S  S165  1  0.16954411  0.57121602  0.21055142  1
  S  S166  1  0.17109142  0.57341312  0.54363626  1
  S  S167  1  0.16542273  0.57070114  0.87131791  1
  S  S168  1  0.66170221  0.07258017  0.20710927  1
  S  S169  1  0.66837261  0.06653115  0.53962097  1
  S  S170  1  0.65534038  0.06442426  0.87714525  1
  S  S171  1  0.66138726  0.55570017  0.21094262  1
  S  S172  1  0.67393605  0.56033999  0.54522580  1
  S  S173  1  0.67383828  0.56219976  0.87412303  1
  O  O174  1  0.36581599  0.22393692  0.08196355  1
  O  O175  1  0.36572932  0.21639392  0.40994210  1
  O  O176  1  0.36152863  0.21480377  0.74095168  1
  O  O177  1  0.37256543  0.72063090  0.06269395  1
  O  O178  1  0.37170787  0.71929842  0.41121842  1
  O  O179  1  0.37087414  0.71997917  0.73697919  1
  O  O180  1  0.86466569  0.22290557  0.07469692  1
  O  O181  1  0.86846753  0.22150196  0.40907221  1
  O  O182  1  0.87915630  0.21843082  0.73562857  1
  O  O183  1  0.86505579  0.71796406  0.07369110  1
  O  O184  1  0.86947132  0.72286740  0.43076162  1
  O  O185  1  0.86993747  0.71823274  0.74257100  1
  O  O186  1  0.27896077  0.13273231  0.09455334  1
  O  O187  1  0.27941810  0.12688528  0.42447794  1
  O  O188  1  0.28176317  0.12500154  0.76419193  1
  O  O189  1  0.27458122  0.64443508  0.07926833  1
  O  O190  1  0.28352392  0.63234238  0.42880575  1
  O  O191  1  0.27704822  0.63806028  0.75222090  1
  O  O192  1  0.77291555  0.13554387  0.08620825  1
  O  O193  1  0.78041324  0.13403789  0.42528171  1
  O  O194  1  0.78757053  0.13665395  0.75646564  1
  O  O195  1  0.77896281  0.62859803  0.09324945  1
  O  O196  1  0.78526578  0.62098757  0.43379707  1
  O  O197  1  0.78113850  0.63053903  0.75781009  1
  O  O198  1  0.14070917  0.28559821  0.25885252  1
  O  O199  1  0.13358937  0.28289022  0.59009727  1
  O  O200  1  0.13123780  0.27776050  0.91947820  1
  O  O201  1  0.13141661  0.77971416  0.25602373  1
  O  O202  1  0.13449487  0.78076579  0.58898552  1
  O  O203  1  0.12666458  0.78080222  0.92576370  1
  O  O204  1  0.61845627  0.28190983  0.27255095  1
  O  O205  1  0.63052661  0.27856736  0.59465553  1
  O  O206  1  0.63039950  0.28356174  0.93134970  1
  O  O207  1  0.63306027  0.79202764  0.26249999  1
  O  O208  1  0.63600067  0.76981765  0.58288567  1
  O  O209  1  0.63405506  0.77572908  0.91487113  1
  O  O210  1  0.22005151  0.37768445  0.23747580  1
  O  O211  1  0.22170014  0.37210667  0.57734478  1
  O  O212  1  0.21702594  0.37158445  0.90924640  1
  O  O213  1  0.21969977  0.86589547  0.23885238  1
  O  O214  1  0.22524483  0.86952633  0.57856091  1
  O  O215  1  0.21361878  0.86777909  0.90574503  1
  O  O216  1  0.71395574  0.35359135  0.24775418  1
  O  O217  1  0.72005262  0.36543835  0.57972640  1
  O  O218  1  0.72457333  0.36633037  0.91697527  1
  O  O219  1  0.71621237  0.88031305  0.23648509  1
  O  O220  1  0.72453201  0.86214529  0.57207469  1
  O  O221  1  0.71709369  0.87197166  0.90460274  1
  O  O222  1  0.41628491  0.13309883  0.15429194  1
  O  O223  1  0.41696277  0.13055110  0.48807619  1
  O  O224  1  0.41994688  0.13481617  0.82205369  1
  O  O225  1  0.41126383  0.63934607  0.14637609  1
  O  O226  1  0.42097419  0.63266031  0.48755191  1
  O  O227  1  0.41391024  0.63271981  0.81462182  1
  O  O228  1  0.91088385  0.12482163  0.13767511  1
  O  O229  1  0.91890675  0.13440875  0.48403447  1
  O  O230  1  0.92479608  0.13276091  0.81452817  1
  O  O231  1  0.91605133  0.63777491  0.15639108  1
  O  O232  1  0.92411020  0.62171140  0.48498755  1
  O  O233  1  0.91919215  0.63274290  0.82037381  1
  O  O234  1  0.36676376  0.08629934  0.01878004  1
  O  O235  1  0.37159862  0.07867316  0.35276314  1
  O  O236  1  0.36982794  0.07698894  0.68731970  1
  O  O237  1  0.36407532  0.58160547  0.01176222  1
  O  O238  1  0.36828678  0.58126020  0.35094650  1
  O  O239  1  0.36420702  0.58194459  0.67832662  1
  O  O240  1  0.85284895  0.08688978  0.00235025  1
  O  O241  1  0.86635159  0.08343289  0.34782614  1
  O  O242  1  0.87001417  0.08022946  0.67850489  1
  O  O243  1  0.86886772  0.57991439  0.02030902  1
  O  O244  1  0.86645537  0.59072954  0.34914132  1
  O  O245  1  0.87097131  0.57972686  0.68494277  1
  O  O246  1  0.08183965  0.36692624  0.18045349  1
  O  O247  1  0.08423467  0.36952849  0.51274459  1
  O  O248  1  0.07967610  0.36684317  0.84682087  1
  O  O249  1  0.08141594  0.87317414  0.18691773  1
  O  O250  1  0.08726814  0.87642370  0.52209129  1
  O  O251  1  0.07526473  0.87228732  0.85464532  1
  O  O252  1  0.57767435  0.36249057  0.18742301  1
  O  O253  1  0.58217692  0.36345522  0.51598298  1
  O  O254  1  0.58687680  0.37156835  0.85547229  1
  O  O255  1  0.57883851  0.86657362  0.17518689  1
  O  O256  1  0.58677787  0.85961586  0.50896570  1
  O  O257  1  0.57808184  0.87183083  0.85215427  1
  O  O258  1  0.13479944  0.42281042  0.31665679  1
  O  O259  1  0.12995092  0.42078993  0.64856894  1
  O  O260  1  0.12771904  0.41473234  0.98424885  1
  O  O261  1  0.14218133  0.91671505  0.32321313  1
  O  O262  1  0.13957826  0.91716272  0.65744987  1
  O  O263  1  0.13464052  0.91818883  0.98947149  1
  O  O264  1  0.63084209  0.42110692  0.32204369  1
  O  O265  1  0.62964468  0.41765458  0.65124198  1
  O  O266  1  0.63667284  0.42166576  0.99062262  1
  O  O267  1  0.62541638  0.93025252  0.30884882  1
  O  O268  1  0.63437848  0.90709950  0.64485401  1
  O  O269  1  0.63516597  0.91168397  0.98785929  1
  O  O270  1  0.02957677  0.19776105  0.09614321  1
  O  O271  1  0.03422137  0.20179530  0.44212544  1
  O  O272  1  0.03913316  0.19894210  0.76725116  1
  O  O273  1  0.02349884  0.71552509  0.10746752  1
  O  O274  1  0.03914862  0.70179838  0.43994047  1
  O  O275  1  0.03014975  0.70239286  0.76944196  1
  O  O276  1  0.52680060  0.20055518  0.10722978  1
  O  O277  1  0.52605561  0.19579623  0.44018343  1
  O  O278  1  0.53014649  0.19634417  0.77374023  1
  O  O279  1  0.53269764  0.68877187  0.09292252  1
  O  O280  1  0.53375183  0.69179668  0.43983999  1
  O  O281  1  0.53109137  0.69490847  0.76731825  1
  O  O282  1  0.31277892  0.46937577  0.06679016  1
  O  O283  1  0.29955782  0.46748061  0.39706696  1
  O  O284  1  0.29073427  0.47573512  0.72859159  1
  O  O285  1  0.30502374  0.97064239  0.06975598  1
  O  O286  1  0.30766965  0.96572913  0.39946606  1
  O  O287  1  0.30284656  0.96385239  0.72769885  1
  O  O288  1  0.80144242  0.46689907  0.06146908  1
  O  O289  1  0.79584288  0.46193659  0.40131887  1
  O  O290  1  0.80076720  0.47027991  0.73200006  1
  O  O291  1  0.79686981  0.97595953  0.06070058  1
  O  O292  1  0.79324988  0.97666066  0.39324663  1
  O  O293  1  0.80919901  0.96318316  0.72754726  1
  O  O294  1  0.46137286  0.29692396  0.23133823  1
  O  O295  1  0.46644449  0.29707784  0.55885635  1
  O  O296  1  0.46593335  0.30512036  0.90463299  1
  O  O297  1  0.46264341  0.81255094  0.22703960  1
  O  O298  1  0.47495199  0.80089221  0.56251606  1
  O  O299  1  0.47673447  0.78589567  0.89026311  1
  O  O300  1  0.96840881  0.30111646  0.22916794  1
  O  O301  1  0.97378812  0.30381629  0.56340235  1
  O  O302  1  0.97019978  0.29646325  0.89514674  1
  O  O303  1  0.96609193  0.80381032  0.22609075  1
  O  O304  1  0.97599710  0.80758476  0.57453414  1
  O  O305  1  0.96640425  0.80401354  0.89994956  1
  O  O306  1  0.21048798  0.02718896  0.27363394  1
  O  O307  1  0.20436101  0.03205663  0.60603708  1
  O  O308  1  0.18756468  0.03490940  0.93843368  1
  O  O309  1  0.20342382  0.54081101  0.27681775  1
  O  O310  1  0.19840570  0.53336164  0.60212534  1
  O  O311  1  0.19454830  0.53189950  0.92792573  1
  O  O312  1  0.69905407  0.04304428  0.27124682  1
  O  O313  1  0.69677189  0.02724102  0.59677517  1
  O  O314  1  0.68774599  0.03085206  0.94131145  1
  O  O315  1  0.69888959  0.52593822  0.27551871  1
  O  O316  1  0.70419912  0.52264254  0.60596287  1
  O  O317  1  0.70431093  0.52839321  0.93630645  1
  O  O318  1  0.09005323  0.08666915  0.04021118  1
  O  O319  1  0.09098790  0.08886719  0.38373127  1
  O  O320  1  0.09170257  0.08707524  0.69830783  1
  O  O321  1  0.07701914  0.60026044  0.04804803  1
  O  O322  1  0.08494407  0.59098385  0.36456057  1
  O  O323  1  0.08271500  0.59320533  0.69691046  1
  O  O324  1  0.57792798  0.08966408  0.03639249  1
  O  O325  1  0.57510131  0.08314653  0.36910357  1
  O  O326  1  0.57394419  0.08334605  0.70025280  1
  O  O327  1  0.58370994  0.57455479  0.02982489  1
  O  O328  1  0.59977386  0.58450145  0.38056578  1
  O  O329  1  0.59009644  0.58633343  0.70278718  1
  O  O330  1  0.41585518  0.41659494  0.14477642  1
  O  O331  1  0.40877473  0.41204819  0.46594554  1
  O  O332  1  0.40445472  0.42482347  0.79378534  1
  O  O333  1  0.41399942  0.90745305  0.12277371  1
  O  O334  1  0.42115759  0.91422649  0.46643092  1
  O  O335  1  0.41808487  0.91098541  0.78934637  1
  O  O336  1  0.91068719  0.40378255  0.11914560  1
  O  O337  1  0.90897867  0.40812708  0.46477643  1
  O  O338  1  0.91119443  0.41266925  0.79150645  1
  O  O339  1  0.91254223  0.92730082  0.12663320  1
  O  O340  1  0.91216355  0.93698820  0.46194103  1
  O  O341  1  0.91236680  0.91625544  0.81137826  1
  O  O342  1  0.40997480  0.41039628  0.29652478  1
  O  O343  1  0.41448292  0.41225384  0.62103127  1
  O  O344  1  0.40770151  0.41550506  0.96535748  1
  O  O345  1  0.41726725  0.91487285  0.31030346  1
  O  O346  1  0.42313129  0.91215328  0.63243480  1
  O  O347  1  0.44101831  0.90779309  0.95878568  1
  O  O348  1  0.90471566  0.40222683  0.29738802  1
  O  O349  1  0.91989390  0.41412306  0.63364486  1
  O  O350  1  0.91586297  0.40603379  0.96360594  1
  O  O351  1  0.91158408  0.91828962  0.28868401  1
  O  O352  1  0.90643535  0.90982332  0.62573102  1
  O  O353  1  0.91135338  0.91774935  0.96380534  1
  O  O354  1  0.09627090  0.07717759  0.20784499  1
  O  O355  1  0.09240471  0.08399596  0.53628192  1
  O  O356  1  0.08775783  0.08635653  0.85875104  1
  O  O357  1  0.09359847  0.60052791  0.21335744  1
  O  O358  1  0.09222493  0.59653447  0.54236831  1
  O  O359  1  0.08529835  0.59339174  0.86927611  1
  O  O360  1  0.57724281  0.08074238  0.20235153  1
  O  O361  1  0.58615966  0.08552590  0.53778820  1
  O  O362  1  0.57563756  0.08823733  0.87866760  1
  O  O363  1  0.57628708  0.55106229  0.19810933  1
  O  O364  1  0.59170823  0.57448943  0.54135738  1
  O  O365  1  0.59199910  0.57987921  0.86903272  1
  O  O366  1  0.13977366  0.22012196  0.05439906  1
  O  O367  1  0.14049190  0.22023933  0.39474909  1
  O  O368  1  0.14568528  0.22150304  0.72151429  1
  O  O369  1  0.13167540  0.73066964  0.06160014  1
  O  O370  1  0.14449713  0.72442475  0.39339871  1
  O  O371  1  0.13810176  0.72907070  0.72697746  1
  O  O372  1  0.63553504  0.22424664  0.06422673  1
  O  O373  1  0.63437464  0.21620061  0.39577500  1
  O  O374  1  0.63349279  0.21597371  0.72349249  1
  O  O375  1  0.63292243  0.70490611  0.03555594  1
  O  O376  1  0.63512913  0.71856049  0.38991819  1
  O  O377  1  0.64071408  0.72172662  0.72664754  1
  O  O378  1  0.27916037  0.36390276  0.10966174  1
  O  O379  1  0.27371731  0.36026429  0.44121783  1
  O  O380  1  0.27258789  0.36559028  0.77142646  1
  O  O381  1  0.28032413  0.85961045  0.11058448  1
  O  O382  1  0.28765597  0.85828061  0.44547390  1
  O  O383  1  0.28697197  0.86373781  0.78268989  1
  O  O384  1  0.77757499  0.36434692  0.11036213  1
  O  O385  1  0.77655186  0.35719855  0.45001099  1
  O  O386  1  0.77807101  0.35938134  0.77286098  1
  O  O387  1  0.78319170  0.86643587  0.10673724  1
  O  O388  1  0.78288595  0.86796544  0.43915782  1
  O  O389  1  0.77754265  0.85681600  0.77029076  1
  O  O390  1  0.35467051  0.27780744  0.27830670  1
  O  O391  1  0.36258657  0.28194710  0.61013379  1
  O  O392  1  0.35818183  0.28166642  0.94885711  1
  O  O393  1  0.35955235  0.77867536  0.27358477  1
  O  O394  1  0.36652493  0.77835209  0.60663159  1
  O  O395  1  0.36684557  0.78265383  0.93671216  1
  O  O396  1  0.86305768  0.26487850  0.27007500  1
  O  O397  1  0.86552932  0.27904777  0.60599263  1
  O  O398  1  0.86419028  0.27102818  0.94029472  1
  O  O399  1  0.87362193  0.78868634  0.29037947  1
  O  O400  1  0.86269047  0.77414631  0.60833486  1
  O  O401  1  0.85903324  0.78390541  0.94474402  1
  O  O402  1  0.22800120  0.13677434  0.23045590  1
  O  O403  1  0.22614069  0.13992849  0.56122057  1
  O  O404  1  0.22475363  0.14109625  0.89767160  1
  O  O405  1  0.22725989  0.63683439  0.22128706  1
  O  O406  1  0.22737284  0.64294147  0.56219619  1
  O  O407  1  0.21887972  0.64078398  0.88472466  1
  O  O408  1  0.70394949  0.14746721  0.21762394  1
  O  O409  1  0.71943534  0.13906486  0.55682739  1
  O  O410  1  0.70838745  0.13274908  0.88922687  1
  O  O411  1  0.69859580  0.63300212  0.22419715  1
  O  O412  1  0.72419334  0.63333519  0.56479587  1
  O  O413  1  0.72447898  0.63207965  0.88512774  1
  O  O414  1  0.48704312  0.34088776  0.03828625  1
  O  O415  1  0.48576076  0.33038546  0.36497827  1
  O  O416  1  0.49555156  0.33866314  0.69406427  1
  O  O417  1  0.49960378  0.81807274  0.02409808  1
  O  O418  1  0.49294405  0.82176712  0.35799231  1
  O  O419  1  0.49776900  0.82752949  0.69522981  1
  O  O420  1  0.99502843  0.32594203  0.02859860  1
  O  O421  1  0.99046716  0.32420319  0.36073119  1
  O  O422  1  0.99578779  0.33160375  0.69644918  1
  O  O423  1  0.98851879  0.84041234  0.03366923  1
  O  O424  1  1.00579809  0.85794852  0.36192700  1
  O  O425  1  0.98575636  0.84078327  0.70515570  1
  O  O426  1  0.18043710  0.00669262  0.14061039  1
  O  O427  1  0.17586775  0.00791916  0.47332168  1
  O  O428  1  0.17934714  0.00980583  0.80926322  1
  O  O429  1  0.15689409  0.50641992  0.14107792  1
  O  O430  1  0.16674171  0.51581523  0.46978339  1
  O  O431  1  0.15495347  0.51289393  0.79431325  1
  O  O432  1  0.66216999  0.01200099  0.13629321  1
  O  O433  1  0.66039002  0.01032335  0.46372319  1
  O  O434  1  0.64419980  0.00140449  0.80660070  1
  O  O435  1  0.67381924  0.49890213  0.14221906  1
  O  O436  1  0.67519142  0.50391097  0.47301915  1
  O  O437  1  0.67004624  0.50042797  0.80186060  1
  O  O438  1  0.01074933  0.15982876  0.30741941  1
  O  O439  1  0.01442268  0.16894473  0.63426362  1
  O  O440  1  0.01273331  0.15648312  0.96239112  1
  O  O441  1  0.01032905  0.67964170  0.30811720  1
  O  O442  1  0.00736591  0.67716417  0.63624534  1
  O  O443  1  0.00228367  0.67608445  0.97350570  1
  O  O444  1  0.50248567  0.16850146  0.30700409  1
  O  O445  1  0.50172282  0.16952519  0.63934165  1
  O  O446  1  0.50448255  0.17609938  0.97497137  1
  O  O447  1  0.50637037  0.64705883  0.30628597  1
  O  O448  1  0.51240887  0.66408211  0.63459564  1
  O  O449  1  0.50153054  0.64607774  0.95696134  1
  O  O450  1  0.32871585  0.49554062  0.19789055  1
  O  O451  1  0.32802374  0.49109848  0.52979547  1
  O  O452  1  0.32071794  0.49537512  0.86171986  1
  O  O453  1  0.34638563  0.98530807  0.20289411  1
  O  O454  1  0.33944922  0.98953036  0.53310489  1
  O  O455  1  0.35050389  0.99607017  0.86379273  1
  O  O456  1  0.84609510  0.49420758  0.19530246  1
  O  O457  1  0.83637811  0.48861709  0.53616860  1
  O  O458  1  0.83480087  0.48773412  0.86488299  1
  O  O459  1  0.82876307  0.99912168  0.19364925  1
  O  O460  1  0.82521123  0.99860640  0.52837982  1
  O  O461  1  0.81670032  0.98998202  0.85645462  1
