# generated using pymatgen
data_Na31Fe20(SO4)36
_symmetry_space_group_name_H-M   'P 1'
_cell_length_a   18.06841077
_cell_length_b   18.07620975
_cell_length_c   19.71147225
_cell_angle_alpha   107.60537979
_cell_angle_beta   107.60968068
_cell_angle_gamma   90.70182135
_symmetry_Int_Tables_number   1
_chemical_formula_structural   Na31Fe20(SO4)36
_chemical_formula_sum   'Na62 Fe40 S72 O288'
_cell_volume   5810.57416181
_cell_formula_units_Z   2
loop_
 _symmetry_equiv_pos_site_id
 _symmetry_equiv_pos_as_xyz
  1  'x, y, z'
loop_
 _atom_site_type_symbol
 _atom_site_label
 _atom_site_symmetry_multiplicity
 _atom_site_fract_x
 _atom_site_fract_y
 _atom_site_fract_z
 _atom_site_occupancy
  Na  Na0  1  0.15055572  0.35825172  0.11481798  1
  Na  Na1  1  0.12249333  0.34767140  0.39909392  1
  Na  Na2  1  0.13035934  0.36966965  0.75356116  1
  Na  Na3  1  0.13649310  0.86722055  0.08960546  1
  Na  Na4  1  0.15816731  0.85735778  0.42173498  1
  Na  Na5  1  0.13139678  0.86157351  0.74902988  1
  Na  Na6  1  0.63281875  0.36358449  0.08114557  1
  Na  Na7  1  0.62654318  0.36193804  0.40371586  1
  Na  Na8  1  0.63190423  0.37397094  0.75396323  1
  Na  Na9  1  0.63500431  0.86283555  0.08073585  1
  Na  Na10  1  0.63603304  0.85968667  0.41190633  1
  Na  Na11  1  0.64846031  0.87947017  0.75775798  1
  Na  Na12  1  0.35945598  0.14868777  0.24445077  1
  Na  Na13  1  0.36838048  0.13661534  0.58417080  1
  Na  Na14  1  0.36947331  0.13563366  0.91991883  1
  Na  Na15  1  0.35408215  0.62560204  0.24731120  1
  Na  Na16  1  0.36056739  0.64034395  0.58049720  1
  Na  Na17  1  0.37035757  0.62817950  0.91648712  1
  Na  Na18  1  0.86125677  0.14541856  0.25092118  1
  Na  Na19  1  0.86271881  0.13711252  0.58442146  1
  Na  Na20  1  0.86525012  0.12266200  0.91981273  1
  Na  Na21  1  0.86968393  0.63370264  0.25299581  1
  Na  Na22  1  0.87330201  0.63418077  0.58871784  1
  Na  Na23  1  0.87319586  0.63244940  0.91814622  1
  Na  Na24  1  1.02025403  0.49347795  0.38197094  1
  Na  Na25  1  0.97627718  0.00383059  0.75162097  1
  Na  Na26  1  0.45276111  0.51050344  0.41132067  1
  Na  Na27  1  0.97952758  0.04173257  0.07667898  1
  Na  Na28  1  0.49110160  0.00577521  0.41918011  1
  Na  Na29  1  0.99308317  0.00591610  0.41416743  1
  Na  Na30  1  0.48224663  0.50521759  0.07485750  1
  Na  Na31  1  0.49607488  0.03767731  0.08189302  1
  Na  Na32  1  0.99696835  0.52429376  0.74269607  1
  Na  Na33  1  0.00972117  0.98356284  0.58435804  1
  Na  Na34  1  0.03910247  0.47747278  1.06051272  1
  Na  Na35  1  0.49480829  0.48756327  0.25366866  1
  Na  Na36  1  0.49059076  1.01846466  0.24179752  1
  Na  Na37  1  0.53334426  0.98606793  0.61666969  1
  Na  Na38  1  0.00265184  0.95626757  0.90520602  1
  Na  Na39  1  -0.01009646  1.02070467  0.23483308  1
  Na  Na40  1  0.49814248  0.49408064  0.60001670  1
  Na  Na41  1  0.52316774  0.99843385  0.89456776  1
  Na  Na42  1  0.74333260  0.24809987  0.33179131  1
  Na  Na43  1  0.23869251  0.73282225  0.00871809  1
  Na  Na44  1  0.24202915  0.24478589  0.01648173  1
  Na  Na45  1  0.25847284  0.76120259  0.65763257  1
  Na  Na46  1  0.25119808  0.25197288  0.66460853  1
  Na  Na47  1  0.74033703  0.23846411  0.67509287  1
  Na  Na48  1  0.24036388  0.26933105  0.29248297  1
  Na  Na49  1  0.76750270  0.76391303  0.65828681  1
  Na  Na50  1  0.76095177  0.76361580  -0.00662425  1
  Na  Na51  1  0.76963414  0.25892882  0.00260324  1
  Na  Na52  1  0.76820383  0.26555937  0.16248585  1
  Na  Na53  1  0.77734446  0.77553563  0.82996560  1
  Na  Na54  1  0.74279398  0.23463664  0.83811981  1
  Na  Na55  1  0.24229764  0.24627699  0.83998208  1
  Na  Na56  1  0.76093043  0.75838366  0.48539584  1
  Na  Na57  1  0.74666012  0.74419868  0.17457395  1
  Na  Na58  1  0.24678579  0.74118375  0.83674611  1
  Na  Na59  1  0.74320726  0.24964019  0.49935748  1
  Na  Na60  1  0.23640283  0.73159241  0.17723988  1
  Na  Na61  1  0.25247925  0.25533734  0.48725070  1
  Fe  Fe62  1  0.46761326  0.80768804  0.11710268  1
  Fe  Fe63  1  0.96272452  0.30984481  0.45599147  1
  Fe  Fe64  1  0.96711381  0.80895885  0.12148081  1
  Fe  Fe65  1  0.46719329  0.80569900  0.78335958  1
  Fe  Fe66  1  0.96488342  0.31404999  0.79233907  1
  Fe  Fe67  1  0.46443516  0.31312233  0.78980923  1
  Fe  Fe68  1  0.46261516  0.30570801  0.44707323  1
  Fe  Fe69  1  0.46832441  0.29725999  0.12210738  1
  Fe  Fe70  1  0.96596654  0.80490957  0.44707957  1
  Fe  Fe71  1  0.46102967  0.80841997  0.45157429  1
  Fe  Fe72  1  0.19043721  0.03344396  0.37799411  1
  Fe  Fe73  1  0.19188214  0.03243535  0.04638932  1
  Fe  Fe74  1  0.68883361  0.53575418  0.04605157  1
  Fe  Fe75  1  0.19690570  0.03343758  0.71353196  1
  Fe  Fe76  1  0.69206609  0.53730669  0.38264917  1
  Fe  Fe77  1  0.68872719  0.03380866  0.37676351  1
  Fe  Fe78  1  0.69364121  0.53720587  0.71753036  1
  Fe  Fe79  1  0.69808603  0.02981322  0.04322111  1
  Fe  Fe80  1  0.19845265  0.53310440  0.37465486  1
  Fe  Fe81  1  0.18924018  0.53469745  0.70756746  1
  Fe  Fe82  1  0.53595254  0.69030014  0.88058135  1
  Fe  Fe83  1  0.03394611  0.19159895  0.54938713  1
  Fe  Fe84  1  0.03301417  0.70121446  0.87960991  1
  Fe  Fe85  1  0.53414183  0.69311051  0.21548700  1
  Fe  Fe86  1  0.03373824  0.19280014  0.88310196  1
  Fe  Fe87  1  0.53382753  0.69284959  0.54738524  1
  Fe  Fe88  1  0.53676465  0.19269191  0.87747976  1
  Fe  Fe89  1  0.03751583  0.68563370  0.20985360  1
  Fe  Fe90  1  0.03693593  0.69295156  0.54453954  1
  Fe  Fe91  1  0.53372412  0.19311135  0.54772998  1
  Fe  Fe92  1  0.30626570  0.96336904  0.28269144  1
  Fe  Fe93  1  0.80433959  0.46455068  0.62057675  1
  Fe  Fe94  1  0.80493376  0.46886689  0.28405620  1
  Fe  Fe95  1  0.29806705  0.46873435  0.95524460  1
  Fe  Fe96  1  0.81318934  0.46516232  0.95841244  1
  Fe  Fe97  1  0.30869103  0.96343284  0.94992908  1
  Fe  Fe98  1  0.80082518  0.96842905  0.61907334  1
  Fe  Fe99  1  0.30593943  0.46485922  0.62209062  1
  Fe  Fe100  1  0.31526665  0.96532763  0.61867854  1
  Fe  Fe101  1  0.80628538  0.96276354  0.28516143  1
  S  S102  1  0.35920445  0.13425799  0.08065786  1
  S  S103  1  0.35846791  0.13847667  0.41447112  1
  S  S104  1  0.35873707  0.14250454  0.75084409  1
  S  S105  1  0.36222948  0.64313863  0.08131115  1
  S  S106  1  0.35830855  0.64528283  0.42148517  1
  S  S107  1  0.36100987  0.64012192  0.74787211  1
  S  S108  1  0.85218458  0.13678827  0.08898485  1
  S  S109  1  0.85842293  0.13818545  0.41923854  1
  S  S110  1  0.86240164  0.14333329  0.74490355  1
  S  S111  1  0.85747426  0.64426776  0.08363583  1
  S  S112  1  0.86070608  0.64020456  0.41728831  1
  S  S113  1  0.85922144  0.63984110  0.74997428  1
  S  S114  1  0.12532583  0.36902343  0.25572072  1
  S  S115  1  0.14045007  0.35626954  0.58253573  1
  S  S116  1  0.13858190  0.35674114  0.91927036  1
  S  S117  1  0.14257240  0.85865612  0.25172475  1
  S  S118  1  0.14217592  0.86258127  0.58125442  1
  S  S119  1  0.14799506  0.85751543  0.91682528  1
  S  S120  1  0.63916708  0.36439976  0.24920449  1
  S  S121  1  0.63655598  0.36127581  0.58476023  1
  S  S122  1  0.64119219  0.36074347  0.91645389  1
  S  S123  1  0.63927664  0.85784075  0.25017215  1
  S  S124  1  0.63981834  0.85274308  0.57722937  1
  S  S125  1  0.63978266  0.85898307  0.91634454  1
  S  S126  1  0.06552792  0.15541874  0.03323339  1
  S  S127  1  0.06068312  0.16149866  0.37829735  1
  S  S128  1  0.06962942  0.16538103  0.70767723  1
  S  S129  1  0.06611500  0.67155799  0.04369075  1
  S  S130  1  0.07291967  0.67351110  0.37696158  1
  S  S131  1  0.06912850  0.66923984  0.70634598  1
  S  S132  1  0.57171942  0.16755937  0.04062622  1
  S  S133  1  0.56091148  0.16533688  0.37487062  1
  S  S134  1  0.56526875  0.17658820  0.71128221  1
  S  S135  1  0.56803828  0.67011774  0.04392092  1
  S  S136  1  0.56345581  0.66849522  0.37593455  1
  S  S137  1  0.57195485  0.67439917  0.71198838  1
  S  S138  1  0.34309089  0.43231468  0.12387563  1
  S  S139  1  0.32753868  0.43337638  0.45964031  1
  S  S140  1  0.32222061  0.42991737  0.78925192  1
  S  S141  1  0.33307290  0.93173414  0.12248104  1
  S  S142  1  0.34054419  0.93900287  0.46212187  1
  S  S143  1  0.33216971  0.93280743  0.78903840  1
  S  S144  1  0.82803678  0.43808915  0.12041937  1
  S  S145  1  0.82273825  0.43054685  0.45902022  1
  S  S146  1  0.82715008  0.43133883  0.78993180  1
  S  S147  1  0.82682311  0.93136305  0.12690104  1
  S  S148  1  0.82991333  0.93358151  0.45635938  1
  S  S149  1  0.83827025  0.93491612  0.78512860  1
  S  S150  1  0.43480774  0.33158856  0.29117995  1
  S  S151  1  0.43056050  0.32898592  0.62254962  1
  S  S152  1  0.43185047  0.32472574  0.95486751  1
  S  S153  1  0.43216135  0.83137932  0.28902975  1
  S  S154  1  0.43853390  0.83382120  0.62737961  1
  S  S155  1  0.43435355  0.83100416  0.95594476  1
  S  S156  1  0.91756164  0.33148267  0.29760986  1
  S  S157  1  0.93105560  0.32990241  0.62433859  1
  S  S158  1  0.93394098  0.32545415  0.95738098  1
  S  S159  1  0.93471023  0.83144253  0.29052862  1
  S  S160  1  0.93779265  0.83453251  0.61916411  1
  S  S161  1  0.94252597  0.83652430  0.96580014  1
  S  S162  1  0.16870324  0.06257666  0.20996943  1
  S  S163  1  0.17078185  0.06582279  0.54258878  1
  S  S164  1  0.17076330  0.06418456  0.87269111  1
  S  S165  1  0.16811093  0.56348636  0.20818592  1
  S  S166  1  0.17413948  0.57063662  0.54305389  1
  S  S167  1  0.17062833  0.56986960  0.87148018  1
  S  S168  1  0.66745682  0.06069553  0.20796908  1
  S  S169  1  0.66711561  0.06545701  0.53936895  1
  S  S170  1  0.67003792  0.06981481  0.87736508  1
  S  S171  1  0.66621263  0.56888346  0.20640868  1
  S  S172  1  0.66770622  0.56623025  0.54293502  1
  S  S173  1  0.67554884  0.57190657  0.88111617  1
  O  O174  1  0.37052740  0.21218017  0.07105020  1
  O  O175  1  0.36676464  0.21877576  0.40983568  1
  O  O176  1  0.36534855  0.22200253  0.74330397  1
  O  O177  1  0.37665334  0.72005500  0.06906382  1
  O  O178  1  0.36648677  0.72699706  0.42138561  1
  O  O179  1  0.37053693  0.71836096  0.73752623  1
  O  O180  1  0.85348444  0.21795322  0.08969509  1
  O  O181  1  0.86744899  0.21853483  0.41516807  1
  O  O182  1  0.88018632  0.21984642  0.73336577  1
  O  O183  1  0.86655665  0.72285833  0.07432825  1
  O  O184  1  0.86806761  0.71833474  0.40796989  1
  O  O185  1  0.86458232  0.71477067  0.73723415  1
  O  O186  1  0.27813792  0.12625315  0.08348965  1
  O  O187  1  0.27998689  0.12800339  0.42356086  1
  O  O188  1  0.27966023  0.13178219  0.75948224  1
  O  O189  1  0.28402195  0.63873930  0.08720858  1
  O  O190  1  0.28082733  0.62963898  0.43102279  1
  O  O191  1  0.28091497  0.63085544  0.75318801  1
  O  O192  1  0.77096118  0.12152581  0.10008385  1
  O  O193  1  0.77839564  0.12820202  0.42553062  1
  O  O194  1  0.78410857  0.14276379  0.75154816  1
  O  O195  1  0.77780061  0.63512665  0.09015346  1
  O  O196  1  0.78151225  0.62969975  0.42550463  1
  O  O197  1  0.78188341  0.62832512  0.76154842  1
  O  O198  1  0.11299744  0.29835920  0.27569362  1
  O  O199  1  0.13108034  0.27797163  0.59257540  1
  O  O200  1  0.13321971  0.27288089  0.91916186  1
  O  O201  1  0.13083783  0.77799289  0.25303550  1
  O  O202  1  0.13199758  0.78452716  0.59035062  1
  O  O203  1  0.13959799  0.77599770  0.91997630  1
  O  O204  1  0.63585046  0.29262193  0.26759157  1
  O  O205  1  0.62909989  0.28339783  0.59565435  1
  O  O206  1  0.63362352  0.28095642  0.92376321  1
  O  O207  1  0.62767499  0.78011037  0.25898526  1
  O  O208  1  0.63363231  0.77107737  0.58109119  1
  O  O209  1  0.62577441  0.78318165  0.92949375  1
  O  O210  1  0.20464034  0.37430307  0.24897831  1
  O  O211  1  0.22151468  0.36458495  0.57785683  1
  O  O212  1  0.21679902  0.36840803  0.90885602  1
  O  O213  1  0.21996545  0.86710070  0.23927165  1
  O  O214  1  0.22214739  0.87329873  0.57708937  1
  O  O215  1  0.22848708  0.86687612  0.90993834  1
  O  O216  1  0.71648883  0.37770156  0.23793662  1
  O  O217  1  0.71643030  0.36997839  0.57856137  1
  O  O218  1  0.72060308  0.36999646  0.90882534  1
  O  O219  1  0.71929559  0.86564664  0.24448723  1
  O  O220  1  0.71846930  0.86403760  0.56811548  1
  O  O221  1  0.71577008  0.86342692  0.90585559  1
  O  O222  1  0.41578365  0.12297819  0.14671003  1
  O  O223  1  0.41850620  0.12830972  0.48140448  1
  O  O224  1  0.41788659  0.13426727  0.81805093  1
  O  O225  1  0.42156478  0.63647196  0.15062323  1
  O  O226  1  0.41904250  0.63447788  0.48988017  1
  O  O227  1  0.41835866  0.63615205  0.81842447  1
  O  O228  1  0.91043348  0.12217813  0.15303534  1
  O  O229  1  0.91659776  0.12753938  0.48688555  1
  O  O230  1  0.92093978  0.13138362  0.81156045  1
  O  O231  1  0.91546721  0.63990285  0.15371356  1
  O  O232  1  0.91958765  0.63390397  0.48612597  1
  O  O233  1  0.92066973  0.63406940  0.81823485  1
  O  O234  1  0.36871390  0.07521644  0.01123157  1
  O  O235  1  0.36660951  0.08116660  0.34552694  1
  O  O236  1  0.36497829  0.08484907  0.68144428  1
  O  O237  1  0.37226002  0.58079468  0.01535779  1
  O  O238  1  0.36912425  0.59012344  0.35458852  1
  O  O239  1  0.37079890  0.57959144  0.68174861  1
  O  O240  1  0.85570830  0.08269547  0.01800928  1
  O  O241  1  0.86780978  0.08064171  0.35110344  1
  O  O242  1  0.86874697  0.08130386  0.67677798  1
  O  O243  1  0.86684300  0.58438828  0.01680824  1
  O  O244  1  0.86924277  0.58031718  0.35006143  1
  O  O245  1  0.86820890  0.57590142  0.68402730  1
  O  O246  1  0.06621491  0.37868165  0.19146559  1
  O  O247  1  0.08411946  0.36054724  0.51187648  1
  O  O248  1  0.07960754  0.36337303  0.84911710  1
  O  O249  1  0.08164695  0.87558222  0.18983071  1
  O  O250  1  0.08413619  0.87056003  0.51233290  1
  O  O251  1  0.09007052  0.87058749  0.85299721  1
  O  O252  1  0.57892974  0.36383263  0.17793144  1
  O  O253  1  0.57862441  0.36640002  0.51507720  1
  O  O254  1  0.58240956  0.36803075  0.84814740  1
  O  O255  1  0.58262973  0.86598855  0.18053584  1
  O  O256  1  0.57986599  0.86035314  0.50858879  1
  O  O257  1  0.57761215  0.86993377  0.85101840  1
  O  O258  1  0.12473680  0.43754680  0.32880769  1
  O  O259  1  0.13099066  0.41609415  0.64887605  1
  O  O260  1  0.13027537  0.40996525  0.98710695  1
  O  O261  1  0.14270126  0.91432313  0.32522797  1
  O  O262  1  0.13049786  0.92265789  0.64785325  1
  O  O263  1  0.14338179  0.91218291  0.98895048  1
  O  O264  1  0.62672596  0.43077012  0.31152808  1
  O  O265  1  0.62559910  0.42241048  0.65051256  1
  O  O266  1  0.63170065  0.41834261  0.98413934  1
  O  O267  1  0.62969197  0.91819956  0.31679905  1
  O  O268  1  0.63118168  0.90844687  0.64469851  1
  O  O269  1  0.63413011  0.92144007  0.98563605  1
  O  O270  1  0.03313563  0.17088559  0.09399142  1
  O  O271  1  0.02964349  0.19360822  0.44395173  1
  O  O272  1  0.03728627  0.19390923  0.77022053  1
  O  O273  1  0.02727902  0.70606249  0.10383993  1
  O  O274  1  0.03158643  0.70033861  0.43598875  1
  O  O275  1  0.03281088  0.69046753  0.76601953  1
  O  O276  1  0.53290721  0.19278490  0.09835638  1
  O  O277  1  0.53157762  0.20004454  0.44142585  1
  O  O278  1  0.52467266  0.20938901  0.76937938  1
  O  O279  1  0.53375217  0.70287770  0.10624218  1
  O  O280  1  0.52451739  0.69734287  0.43502061  1
  O  O281  1  0.53488175  0.70270126  0.77297529  1
  O  O282  1  0.31980410  0.46442179  0.06014524  1
  O  O283  1  0.29893620  0.47256446  0.40178330  1
  O  O284  1  0.29477966  0.46995937  0.73010390  1
  O  O285  1  0.30261310  0.96823253  0.06205888  1
  O  O286  1  0.30931877  0.97156490  0.39851923  1
  O  O287  1  0.30354648  0.96896420  0.72747447  1
  O  O288  1  0.78921495  0.47709472  0.06077490  1
  O  O289  1  0.79273290  0.46748605  0.39840092  1
  O  O290  1  0.79304147  0.46747210  0.72863042  1
  O  O291  1  0.79235664  0.96379295  0.06516124  1
  O  O292  1  0.79843788  0.96862280  0.39439523  1
  O  O293  1  0.80694612  0.96847709  0.72238508  1
  O  O294  1  0.46507599  0.29659981  0.22835924  1
  O  O295  1  0.46675152  0.29877625  0.56118512  1
  O  O296  1  0.47035057  0.29590362  0.89418995  1
  O  O297  1  0.46937439  0.80237454  0.22856351  1
  O  O298  1  0.47449422  0.80168637  0.56616194  1
  O  O299  1  0.46771091  0.79920009  0.89301867  1
  O  O300  1  0.93798984  0.30188767  0.23060379  1
  O  O301  1  0.96959345  0.30082775  0.56434271  1
  O  O302  1  0.96413865  0.29266939  0.89042846  1
  O  O303  1  0.97129423  0.80322135  0.23021886  1
  O  O304  1  0.96939964  0.80307961  0.55335247  1
  O  O305  1  0.97776388  0.80314154  0.90524670  1
  O  O306  1  0.20409262  0.02595496  0.27187267  1
  O  O307  1  0.20394548  0.03231366  0.60496457  1
  O  O308  1  0.19926275  0.02581473  0.93220376  1
  O  O309  1  0.19519486  0.54662789  0.28159371  1
  O  O310  1  0.19794106  0.52585210  0.59871182  1
  O  O311  1  0.19720950  0.53154723  0.92911152  1
  O  O312  1  0.70299540  0.02321110  0.26852979  1
  O  O313  1  0.69670192  0.02942014  0.59839152  1
  O  O314  1  0.68532732  0.03835521  0.94268165  1
  O  O315  1  0.70160571  0.53939379  0.27140624  1
  O  O316  1  0.69791976  0.53011209  0.60451281  1
  O  O317  1  0.70390864  0.53151239  0.93921272  1
  O  O318  1  0.08457953  0.07020153  0.01445632  1
  O  O319  1  0.08043522  0.07902415  0.37556815  1
  O  O320  1  0.08636920  0.08221579  0.69867463  1
  O  O321  1  0.08212735  0.59300883  0.04251392  1
  O  O322  1  0.09644184  0.59426768  0.37712619  1
  O  O323  1  0.08569718  0.58548872  0.69287407  1
  O  O324  1  0.59315561  0.08515596  0.03724044  1
  O  O325  1  0.58043064  0.08372043  0.37392954  1
  O  O326  1  0.58433859  0.09875287  0.71020909  1
  O  O327  1  0.58354205  0.58849279  0.04110891  1
  O  O328  1  0.58118278  0.58646744  0.37096029  1
  O  O329  1  0.58936692  0.59227112  0.70544778  1
  O  O330  1  0.42460681  0.40678158  0.12863218  1
  O  O331  1  0.41007176  0.41561904  0.46352962  1
  O  O332  1  0.40086667  0.40741304  0.79053086  1
  O  O333  1  0.41561424  0.91536049  0.12723858  1
  O  O334  1  0.42471633  0.92543241  0.46917867  1
  O  O335  1  0.41322216  0.91304787  0.79488302  1
  O  O336  1  0.90390871  0.42164908  0.11479885  1
  O  O337  1  0.90237388  0.40975847  0.46418873  1
  O  O338  1  0.90742735  0.41519712  0.78961320  1
  O  O339  1  0.90793683  0.91335817  0.12899315  1
  O  O340  1  0.91347654  0.91979727  0.46161445  1
  O  O341  1  0.91708518  0.91208648  0.78503008  1
  O  O342  1  0.42798278  0.41522655  0.30205255  1
  O  O343  1  0.41141335  0.40957955  0.62514188  1
  O  O344  1  0.41284780  0.40523102  0.95936046  1
  O  O345  1  0.41643375  0.91471722  0.29513073  1
  O  O346  1  0.42225161  0.91551695  0.62905192  1
  O  O347  1  0.41856525  0.91353295  0.96164886  1
  O  O348  1  0.90398859  0.41695805  0.31340214  1
  O  O349  1  0.91341487  0.41169032  0.63155440  1
  O  O350  1  0.90910131  0.40425403  0.95535637  1
  O  O351  1  0.91611701  0.91381057  0.29673739  1
  O  O352  1  0.91482770  0.91495064  0.61988701  1
  O  O353  1  0.93231669  0.91870473  0.97299022  1
  O  O354  1  0.08666215  0.07026658  0.20373265  1
  O  O355  1  0.08714005  0.07858386  0.53718934  1
  O  O356  1  0.08848835  0.08122367  0.86346280  1
  O  O357  1  0.08601119  0.58565245  0.19629759  1
  O  O358  1  0.09192831  0.58745577  0.53249384  1
  O  O359  1  0.09176808  0.59596080  0.86730261  1
  O  O360  1  0.58462902  0.06540319  0.20145139  1
  O  O361  1  0.58481089  0.08386181  0.53469136  1
  O  O362  1  0.58733187  0.09165930  0.86366486  1
  O  O363  1  0.58349871  0.58372779  0.20330756  1
  O  O364  1  0.58597855  0.58395135  0.53919704  1
  O  O365  1  0.59686769  0.59450993  0.87983938  1
  O  O366  1  0.13557927  0.20838655  0.04802072  1
  O  O367  1  0.13213833  0.21139867  0.39193118  1
  O  O368  1  0.14071691  0.21618500  0.72060017  1
  O  O369  1  0.13809550  0.72578533  0.06292978  1
  O  O370  1  0.14025332  0.72805065  0.39336283  1
  O  O371  1  0.14180691  0.72133346  0.72544355  1
  O  O372  1  0.64131649  0.22083634  0.05545321  1
  O  O373  1  0.63259194  0.21500253  0.38711396  1
  O  O374  1  0.63525084  0.23203124  0.72890441  1
  O  O375  1  0.64010370  0.72020912  0.05864238  1
  O  O376  1  0.63473640  0.72014412  0.39319428  1
  O  O377  1  0.64230952  0.72671517  0.72784219  1
  O  O378  1  0.28798178  0.36466834  0.11019926  1
  O  O379  1  0.27614834  0.36156710  0.44264704  1
  O  O380  1  0.26617671  0.36051473  0.77063924  1
  O  O381  1  0.28257840  0.86064058  0.10835816  1
  O  O382  1  0.29359845  0.86801426  0.45130413  1
  O  O383  1  0.27862020  0.86253341  0.77267917  1
  O  O384  1  0.77321424  0.36789923  0.10494354  1
  O  O385  1  0.76807159  0.36055386  0.44356471  1
  O  O386  1  0.77634553  0.35929302  0.77440715  1
  O  O387  1  0.77706528  0.86046009  0.11684317  1
  O  O388  1  0.78122044  0.86118446  0.44066232  1
  O  O389  1  0.78331427  0.86392889  0.76883055  1
  O  O390  1  0.36131391  0.28629224  0.28071978  1
  O  O391  1  0.35909176  0.27614928  0.60563965  1
  O  O392  1  0.36095434  0.27072220  0.93592754  1
  O  O393  1  0.36115208  0.78067323  0.27308332  1
  O  O394  1  0.36724661  0.78458267  0.61448952  1
  O  O395  1  0.36330968  0.78036288  0.94229089  1
  O  O396  1  0.84585581  0.28567446  0.29394463  1
  O  O397  1  0.85882251  0.27747253  0.60439690  1
  O  O398  1  0.86471532  0.27136102  0.94427143  1
  O  O399  1  0.86482318  0.77918598  0.27574032  1
  O  O400  1  0.86746332  0.78090287  0.60412413  1
  O  O401  1  0.86799663  0.78759096  0.94875574  1
  O  O402  1  0.21713092  0.13618282  0.22786073  1
  O  O403  1  0.21814702  0.13938827  0.55681635  1
  O  O404  1  0.22356526  0.13601953  0.89194874  1
  O  O405  1  0.22137912  0.62945378  0.21514787  1
  O  O406  1  0.22856509  0.64192718  0.56940212  1
  O  O407  1  0.22838852  0.63745943  0.88659050  1
  O  O408  1  0.71318980  0.13629307  0.22818322  1
  O  O409  1  0.71721884  0.13842240  0.55416385  1
  O  O410  1  0.72527785  0.14092672  0.89903410  1
  O  O411  1  0.71409866  0.63923629  0.21488694  1
  O  O412  1  0.72074989  0.63624542  0.55809382  1
  O  O413  1  0.73145638  0.64044065  0.89757191  1
  O  O414  1  0.49072580  0.32357400  0.02613109  1
  O  O415  1  0.49454043  0.32697960  0.36340314  1
  O  O416  1  0.48877420  0.33268535  0.69548027  1
  O  O417  1  0.49527430  0.83284972  0.02760864  1
  O  O418  1  0.49125091  0.83435822  0.36224658  1
  O  O419  1  0.49888009  0.83775325  0.69994755  1
  O  O420  1  0.99825899  0.33434469  0.02560775  1
  O  O421  1  0.98359830  0.33072784  0.36723483  1
  O  O422  1  0.98935057  0.32926002  0.69614026  1
  O  O423  1  0.99900471  0.83358124  0.03893997  1
  O  O424  1  0.99492388  0.83602805  0.36387226  1
  O  O425  1  1.00028526  0.84119251  0.68803688  1
  O  O426  1  0.17375811  0.00547781  0.13845606  1
  O  O427  1  0.17105050  0.00647659  0.47125384  1
  O  O428  1  0.17168391  0.00566676  0.80037506  1
  O  O429  1  0.16549428  0.49323581  0.14655991  1
  O  O430  1  0.17773742  0.51637908  0.46997632  1
  O  O431  1  0.16168173  0.51081780  0.79539391  1
  O  O432  1  0.67246271  0.00633469  0.13461869  1
  O  O433  1  0.66300897  0.00710106  0.46498659  1
  O  O434  1  0.67384780  0.00903167  0.81172244  1
  O  O435  1  0.66094295  0.50553148  0.13503798  1
  O  O436  1  0.66393841  0.50665077  0.47006560  1
  O  O437  1  0.66921998  0.51310376  0.80666025  1
  O  O438  1  -0.00175199  0.15543075  0.30903512  1
  O  O439  1  0.00830340  0.16403319  0.63575508  1
  O  O440  1  0.00421107  0.15756636  0.96164972  1
  O  O441  1  0.01191324  0.66661133  0.30371634  1
  O  O442  1  0.01167978  0.67362539  0.63496378  1
  O  O443  1  0.01038788  0.67253000  0.97021757  1
  O  O444  1  0.49817005  0.15747777  0.30528435  1
  O  O445  1  0.50751537  0.17364668  0.63641517  1
  O  O446  1  0.51306644  0.15855118  0.96497800  1
  O  O447  1  0.50490068  0.66579296  0.30260475  1
  O  O448  1  0.51070453  0.67125290  0.63993405  1
  O  O449  1  0.50855059  0.66852694  0.97197657  1
  O  O450  1  0.35312540  0.49555508  0.19421095  1
  O  O451  1  0.33446498  0.49089997  0.53511931  1
  O  O452  1  0.32602501  0.48748722  0.86279936  1
  O  O453  1  0.33814483  0.99186646  0.19610149  1
  O  O454  1  0.34151027  1.00102251  0.53349516  1
  O  O455  1  0.33467761  0.99288795  0.86103895  1
  O  O456  1  0.83083147  0.49534911  0.19502567  1
  O  O457  1  0.82559201  0.49075479  0.53163168  1
  O  O458  1  0.83036051  0.48978062  0.86275280  1
  O  O459  1  0.83496608  0.99278354  0.20104500  1
  O  O460  1  0.83035184  0.99317455  0.52809634  1
  O  O461  1  0.84399229  0.99306537  0.85708491  1
