# generated using pymatgen
data_Na31Fe20(SO4)36
_symmetry_space_group_name_H-M   'P 1'
_cell_length_a   18.08417505
_cell_length_b   18.07525110
_cell_length_c   19.72022910
_cell_angle_alpha   107.57461438
_cell_angle_beta   107.62025264
_cell_angle_gamma   90.66924926
_symmetry_Int_Tables_number   1
_chemical_formula_structural   Na31Fe20(SO4)36
_chemical_formula_sum   'Na62 Fe40 S72 O288'
_cell_volume   5819.07189814
_cell_formula_units_Z   2
loop_
 _symmetry_equiv_pos_site_id
 _symmetry_equiv_pos_as_xyz
  1  'x, y, z'
loop_
 _atom_site_type_symbol
 _atom_site_label
 _atom_site_symmetry_multiplicity
 _atom_site_fract_x
 _atom_site_fract_y
 _atom_site_fract_z
 _atom_site_occupancy
  Na  Na0  1  0.12676945  0.35858169  0.07564384  1
  Na  Na1  1  0.14142930  0.36448908  0.41304345  1
  Na  Na2  1  0.13248038  0.36257514  0.74751144  1
  Na  Na3  1  0.14096098  0.86472815  0.09001044  1
  Na  Na4  1  0.13350056  0.86399263  0.41472210  1
  Na  Na5  1  0.13054421  0.86620464  0.74677272  1
  Na  Na6  1  0.63537991  0.36565042  0.08304526  1
  Na  Na7  1  0.62884827  0.37129956  0.41927015  1
  Na  Na8  1  0.62945582  0.35815582  0.74430118  1
  Na  Na9  1  0.63922085  0.85545513  0.06945600  1
  Na  Na10  1  0.66319756  0.88098752  0.45685102  1
  Na  Na11  1  0.63823599  0.87545860  0.75214889  1
  Na  Na12  1  0.36999353  0.13161961  0.25218832  1
  Na  Na13  1  0.38047794  0.13782837  0.59325545  1
  Na  Na14  1  0.35897869  0.13681853  0.91639213  1
  Na  Na15  1  0.35836747  0.63888138  0.24647526  1
  Na  Na16  1  0.35907351  0.62303314  0.56759999  1
  Na  Na17  1  0.37901186  0.63041331  0.91784004  1
  Na  Na18  1  0.85812896  0.13525307  0.24622373  1
  Na  Na19  1  0.86372132  0.12895369  0.57987355  1
  Na  Na20  1  0.86278957  0.13135390  0.90739915  1
  Na  Na21  1  0.86361803  0.63921334  0.24840536  1
  Na  Na22  1  0.85656448  0.63612572  0.57475547  1
  Na  Na23  1  0.85995932  0.64533187  0.92454896  1
  Na  Na24  1  0.56805027  0.01573806  0.60053773  1
  Na  Na25  1  0.93827674  0.00363375  0.71131394  1
  Na  Na26  1  0.50208060  0.50813831  0.06545406  1
  Na  Na27  1  0.49144728  0.00544299  0.08265551  1
  Na  Na28  1  1.02117583  0.49252135  0.39800586  1
  Na  Na29  1  0.96788171  0.00648365  0.41811431  1
  Na  Na30  1  0.98856734  0.50907976  0.75632330  1
  Na  Na31  1  0.50555539  0.47510508  0.79161747  1
  Na  Na32  1  0.98801800  0.01745431  0.08247313  1
  Na  Na33  1  0.50973697  0.48722618  0.58469065  1
  Na  Na34  1  0.48122318  0.50389324  0.26990430  1
  Na  Na35  1  0.02928477  0.47455127  0.22215350  1
  Na  Na36  1  0.01273811  0.99194451  0.90878040  1
  Na  Na37  1  0.00732767  0.49587862  0.57956407  1
  Na  Na38  1  0.51758800  0.99604501  0.88010234  1
  Na  Na39  1  0.51372089  0.98252623  0.27874162  1
  Na  Na40  1  -0.01538857  1.00759387  0.25491526  1
  Na  Na41  1  -0.00781487  0.49559773  0.94274497  1
  Na  Na42  1  0.25848852  0.25420733  0.32494916  1
  Na  Na43  1  0.71477724  0.21039988  0.66397443  1
  Na  Na44  1  0.76821649  0.26557061  -0.00157170  1
  Na  Na45  1  0.25597263  0.75106865  0.32475102  1
  Na  Na46  1  0.26705521  0.26016032  0.66702103  1
  Na  Na47  1  0.74348458  0.75391259  0.34084937  1
  Na  Na48  1  0.75999020  0.77241940  0.64792460  1
  Na  Na49  1  0.25381005  0.74368270  0.66382340  1
  Na  Na50  1  0.24505269  0.74043411  0.01051000  1
  Na  Na51  1  0.74500485  0.24782675  0.33660804  1
  Na  Na52  1  0.25406273  0.75108449  0.83429288  1
  Na  Na53  1  0.72681987  0.74080530  0.84834752  1
  Na  Na54  1  0.76252756  0.25998112  0.16069104  1
  Na  Na55  1  0.26452646  0.25664500  0.49768017  1
  Na  Na56  1  0.25227237  0.25781782  0.15430619  1
  Na  Na57  1  0.25312556  0.24836551  0.83732760  1
  Na  Na58  1  0.73801033  0.24142798  0.50625502  1
  Na  Na59  1  0.76265510  0.76591675  0.15715054  1
  Na  Na60  1  0.74193639  0.24184801  0.83605478  1
  Na  Na61  1  0.24411031  0.74000664  0.49314749  1
  Fe  Fe62  1  0.47177369  0.29613623  0.45819430  1
  Fe  Fe63  1  0.96408090  0.81038096  0.11913940  1
  Fe  Fe64  1  0.96441823  0.80589528  0.78121989  1
  Fe  Fe65  1  0.46643866  0.80649803  0.45377495  1
  Fe  Fe66  1  0.46910468  0.79595635  0.78887276  1
  Fe  Fe67  1  0.96366497  0.80955430  0.45172198  1
  Fe  Fe68  1  0.46619038  0.80386125  0.11722361  1
  Fe  Fe69  1  0.46273987  0.30974978  0.12025432  1
  Fe  Fe70  1  0.96589133  0.30875671  0.45131492  1
  Fe  Fe71  1  0.96554528  0.31127980  0.78604405  1
  Fe  Fe72  1  0.69128702  0.53883418  0.04594457  1
  Fe  Fe73  1  0.70786142  0.02672870  0.37243195  1
  Fe  Fe74  1  0.19353355  0.03470558  0.04835632  1
  Fe  Fe75  1  0.69309706  0.53613714  0.71912763  1
  Fe  Fe76  1  0.69221063  0.53758422  0.38313333  1
  Fe  Fe77  1  0.19094785  0.53565418  0.71625098  1
  Fe  Fe78  1  0.18722761  0.03241005  0.71124343  1
  Fe  Fe79  1  0.19267018  0.03518229  0.38100120  1
  Fe  Fe80  1  0.19321325  0.53545464  0.04925972  1
  Fe  Fe81  1  0.69343708  0.03641293  0.04723908  1
  Fe  Fe82  1  0.03666544  0.19467656  0.54883770  1
  Fe  Fe83  1  0.03241003  0.69586570  0.88432119  1
  Fe  Fe84  1  0.53558492  0.19371910  0.21105649  1
  Fe  Fe85  1  0.53062731  0.20011227  0.87523152  1
  Fe  Fe86  1  0.03156171  0.20008580  0.21157176  1
  Fe  Fe87  1  0.53449838  0.68840008  0.54722929  1
  Fe  Fe88  1  0.03570508  0.68816153  0.54206377  1
  Fe  Fe89  1  0.03702033  0.69070060  0.21348706  1
  Fe  Fe90  1  0.53419357  0.69447232  0.21803967  1
  Fe  Fe91  1  0.03255861  0.19345787  0.88028047  1
  Fe  Fe92  1  0.30429076  0.96682294  0.95158459  1
  Fe  Fe93  1  0.80602238  0.46785779  0.61830958  1
  Fe  Fe94  1  0.80929647  0.46383479  0.95631304  1
  Fe  Fe95  1  0.31043895  0.96261845  0.28999627  1
  Fe  Fe96  1  0.30650769  0.46190173  0.95211369  1
  Fe  Fe97  1  0.80495844  0.96908200  0.94825894  1
  Fe  Fe98  1  0.30937845  0.46706597  0.62316861  1
  Fe  Fe99  1  0.30072192  0.46749581  0.29163566  1
  Fe  Fe100  1  0.31120871  0.96355507  0.62264913  1
  Fe  Fe101  1  0.80628591  0.46806341  0.28463166  1
  S  S102  1  0.35957601  0.14030940  0.08376915  1
  S  S103  1  0.35681110  0.13712619  0.41484265  1
  S  S104  1  0.35621332  0.13629158  0.75506290  1
  S  S105  1  0.36172227  0.63649543  0.08194437  1
  S  S106  1  0.36344898  0.63833022  0.41311360  1
  S  S107  1  0.35470297  0.63755824  0.74979845  1
  S  S108  1  0.85944516  0.14030535  0.08646889  1
  S  S109  1  0.86426819  0.14408949  0.41421686  1
  S  S110  1  0.85939773  0.15042130  0.74722911  1
  S  S111  1  0.86245659  0.64141133  0.08285468  1
  S  S112  1  0.85871703  0.64009800  0.41545647  1
  S  S113  1  0.85882090  0.64134008  0.75040489  1
  S  S114  1  0.14148368  0.35603809  0.25011549  1
  S  S115  1  0.13964246  0.36160729  0.58335687  1
  S  S116  1  0.13744717  0.36033179  0.91628123  1
  S  S117  1  0.14044351  0.86132858  0.25019617  1
  S  S118  1  0.14212633  0.85745420  0.58121483  1
  S  S119  1  0.14069113  0.85876653  0.91674575  1
  S  S120  1  0.64029267  0.36163601  0.24971950  1
  S  S121  1  0.64427512  0.36086093  0.58488705  1
  S  S122  1  0.64128194  0.36256269  0.92062985  1
  S  S123  1  0.63908892  0.85901153  0.24660479  1
  S  S124  1  0.63419909  0.85709436  0.58791700  1
  S  S125  1  0.63766488  0.86616231  0.91253115  1
  S  S126  1  0.06499175  0.16115060  0.03912708  1
  S  S127  1  0.06826044  0.17301976  0.37709533  1
  S  S128  1  0.07034832  0.17206135  0.71038181  1
  S  S129  1  0.06775583  0.67189548  0.04182825  1
  S  S130  1  0.06166884  0.66748044  0.37235656  1
  S  S131  1  0.06370367  0.66733940  0.70804248  1
  S  S132  1  0.56759433  0.17228621  0.04141556  1
  S  S133  1  0.57446498  0.17210562  0.37148464  1
  S  S134  1  0.56594936  0.17066566  0.71765420  1
  S  S135  1  0.56781004  0.67250162  0.04773490  1
  S  S136  1  0.56952989  0.66930361  0.37499983  1
  S  S137  1  0.56392674  0.66440854  0.70769140  1
  S  S138  1  0.32697547  0.43231517  0.12629597  1
  S  S139  1  0.33429263  0.42610490  0.45834180  1
  S  S140  1  0.32176804  0.43319971  0.79065535  1
  S  S141  1  0.33110457  0.93351775  0.12418928  1
  S  S142  1  0.32685555  0.92860572  0.45665053  1
  S  S143  1  0.32685026  0.92526198  0.78952108  1
  S  S144  1  0.82977834  0.43972766  0.12572197  1
  S  S145  1  0.83168920  0.43527412  0.45704112  1
  S  S146  1  0.83364935  0.43676192  0.79408432  1
  S  S147  1  0.83525850  0.93728715  0.12147691  1
  S  S148  1  0.83523455  0.93686882  0.45565946  1
  S  S149  1  0.83735774  0.93388768  0.79071811  1
  S  S150  1  0.43049385  0.32603204  0.28952790  1
  S  S151  1  0.43535284  0.33858503  0.62912164  1
  S  S152  1  0.43309030  0.32891931  0.95994020  1
  S  S153  1  0.42995455  0.82738670  0.29017100  1
  S  S154  1  0.42376853  0.81863601  0.62222354  1
  S  S155  1  0.43072015  0.83383448  0.95925610  1
  S  S156  1  0.93246707  0.33173436  0.29138860  1
  S  S157  1  0.93423849  0.33640684  0.62262935  1
  S  S158  1  0.93360270  0.32773483  0.95680283  1
  S  S159  1  0.94054608  0.83287676  0.28903307  1
  S  S160  1  0.93680446  0.82220112  0.61783723  1
  S  S161  1  0.93455352  0.83302370  0.95623576  1
  S  S162  1  0.16665648  0.06652703  0.20847910  1
  S  S163  1  0.17057370  0.07028152  0.54287853  1
  S  S164  1  0.16693557  0.06669042  0.87439031  1
  S  S165  1  0.16990630  0.56446706  0.20708166  1
  S  S166  1  0.16427310  0.56100398  0.54003657  1
  S  S167  1  0.16592688  0.56749516  0.87652291  1
  S  S168  1  0.66835144  0.06800904  0.20663317  1
  S  S169  1  0.67076147  0.06744498  0.52863940  1
  S  S170  1  0.67298018  0.07716600  0.88037252  1
  S  S171  1  0.66681905  0.56791449  0.21046666  1
  S  S172  1  0.67097090  0.56851431  0.54551452  1
  S  S173  1  0.67298938  0.56265892  0.87823467  1
  O  O174  1  0.36927841  0.22093790  0.08146601  1
  O  O175  1  0.36936398  0.21514691  0.40399687  1
  O  O176  1  0.35645229  0.21425445  0.74838220  1
  O  O177  1  0.37215323  0.71371962  0.07055563  1
  O  O178  1  0.37575210  0.71661403  0.40232060  1
  O  O179  1  0.36618645  0.72049926  0.75098801  1
  O  O180  1  0.86258477  0.21784425  0.07906957  1
  O  O181  1  0.86909844  0.22564479  0.41008027  1
  O  O182  1  0.87260422  0.23127330  0.74192522  1
  O  O183  1  0.87320833  0.71924016  0.07267343  1
  O  O184  1  0.86736623  0.71912790  0.40783661  1
  O  O185  1  0.86801907  0.71874642  0.74036719  1
  O  O186  1  0.28148907  0.12965314  0.09320199  1
  O  O187  1  0.27270219  0.13210207  0.41420037  1
  O  O188  1  0.28147742  0.11773096  0.76916016  1
  O  O189  1  0.28105072  0.62865636  0.08528910  1
  O  O190  1  0.28807294  0.63252956  0.42497005  1
  O  O191  1  0.27307094  0.63177713  0.75602259  1
  O  O192  1  0.78401894  0.12578452  0.10090450  1
  O  O193  1  0.78154005  0.12989301  0.41389660  1
  O  O194  1  0.78267533  0.14423578  0.75670421  1
  O  O195  1  0.78339098  0.63453348  0.09131320  1
  O  O196  1  0.78091707  0.62949247  0.42470471  1
  O  O197  1  0.78129314  0.63206009  0.76034717  1
  O  O198  1  0.13182455  0.27503849  0.25689266  1
  O  O199  1  0.13152437  0.28342502  0.59323787  1
  O  O200  1  0.12643684  0.28292156  0.92541960  1
  O  O201  1  0.13312400  0.78292862  0.25967515  1
  O  O202  1  0.13562600  0.77796572  0.58974673  1
  O  O203  1  0.13136457  0.77911553  0.92334491  1
  O  O204  1  0.63211506  0.28163423  0.25557628  1
  O  O205  1  0.64047873  0.28464005  0.59487965  1
  O  O206  1  0.62629073  0.28244861  0.92839604  1
  O  O207  1  0.62570316  0.78425378  0.26150173  1
  O  O208  1  0.61925852  0.77825845  0.59751912  1
  O  O209  1  0.63420677  0.78964944  0.92152237  1
  O  O210  1  0.22612609  0.36374479  0.25302253  1
  O  O211  1  0.21918928  0.37097240  0.57723085  1
  O  O212  1  0.21730072  0.36884582  0.90996317  1
  O  O213  1  0.21889508  0.87275889  0.24251235  1
  O  O214  1  0.22059796  0.86796944  0.57229278  1
  O  O215  1  0.21986686  0.86790239  0.90960082  1
  O  O216  1  0.71850542  0.37102567  0.23976409  1
  O  O217  1  0.72140181  0.37513951  0.57278567  1
  O  O218  1  0.72535821  0.36407578  0.92167545  1
  O  O219  1  0.71329307  0.86327878  0.23333463  1
  O  O220  1  0.71037996  0.85859587  0.57671033  1
  O  O221  1  0.71318411  0.88147888  0.89857371  1
  O  O222  1  0.42027412  0.12682830  0.14841619  1
  O  O223  1  0.40859365  0.13051133  0.48378311  1
  O  O224  1  0.42095820  0.13105332  0.82279658  1
  O  O225  1  0.41793977  0.63079866  0.15234323  1
  O  O226  1  0.42580841  0.62867845  0.47854652  1
  O  O227  1  0.41063287  0.61872128  0.81060607  1
  O  O228  1  0.92221729  0.13199004  0.15345517  1
  O  O229  1  0.91852413  0.13967704  0.48668970  1
  O  O230  1  0.92011287  0.13952205  0.81514955  1
  O  O231  1  0.92046158  0.63486838  0.15189538  1
  O  O232  1  0.91872849  0.62939635  0.48163199  1
  O  O233  1  0.91965782  0.63322442  0.81811629  1
  O  O234  1  0.36545228  0.08367245  0.01320194  1
  O  O235  1  0.36441788  0.07705338  0.34618441  1
  O  O236  1  0.36309393  0.07778780  0.68606891  1
  O  O237  1  0.37342518  0.57449185  0.01701546  1
  O  O238  1  0.36810187  0.57857472  0.34318293  1
  O  O239  1  0.35498494  0.58634196  0.67460865  1
  O  O240  1  0.86833969  0.08042742  0.01859622  1
  O  O241  1  0.88165759  0.08895920  0.35106506  1
  O  O242  1  0.86735316  0.09415640  0.67969649  1
  O  O243  1  0.87112556  0.58074201  0.01610255  1
  O  O244  1  0.86563290  0.58214652  0.34600435  1
  O  O245  1  0.86761383  0.58054618  0.68304602  1
  O  O246  1  0.09109783  0.36116891  0.17843666  1
  O  O247  1  0.08172858  0.36824311  0.51388885  1
  O  O248  1  0.08064299  0.36831727  0.84642808  1
  O  O249  1  0.08096883  0.86773604  0.18149487  1
  O  O250  1  0.08258312  0.86436500  0.51363122  1
  O  O251  1  0.08208340  0.86791416  0.84902240  1
  O  O252  1  0.57961896  0.37060094  0.18334808  1
  O  O253  1  0.58247196  0.36711613  0.51682849  1
  O  O254  1  0.59031906  0.37322217  0.85272228  1
  O  O255  1  0.57423644  0.86849123  0.18206027  1
  O  O256  1  0.57335447  0.86438587  0.51813917  1
  O  O257  1  0.57434974  0.87400287  0.84548671  1
  O  O258  1  0.12569778  0.41330299  0.31363251  1
  O  O259  1  0.12736765  0.42122949  0.64911006  1
  O  O260  1  0.12749476  0.42207499  0.98184849  1
  O  O261  1  0.13078201  0.92082032  0.31760885  1
  O  O262  1  0.13512042  0.91573400  0.65006261  1
  O  O263  1  0.13264675  0.91730139  0.98506953  1
  O  O264  1  0.63462425  0.41914682  0.31963346  1
  O  O265  1  0.63560182  0.42263892  0.65150473  1
  O  O266  1  0.63348675  0.42083133  0.98955996  1
  O  O267  1  0.63547139  0.92387645  0.31517509  1
  O  O268  1  0.62617583  0.91822624  0.65261248  1
  O  O269  1  0.62940529  0.92735720  0.98024423  1
  O  O270  1  0.02965209  0.18137309  0.09924936  1
  O  O271  1  0.03170590  0.20293096  0.43839987  1
  O  O272  1  0.03487461  0.20432621  0.77149998  1
  O  O273  1  0.03570374  0.70304123  0.10525777  1
  O  O274  1  0.02703682  0.70359302  0.43479676  1
  O  O275  1  0.02872168  0.69985944  0.76975895  1
  O  O276  1  0.52848679  0.20166857  0.10076547  1
  O  O277  1  0.53702337  0.19727608  0.42991253  1
  O  O278  1  0.52781275  0.20204508  0.77893894  1
  O  O279  1  0.53277225  0.70101414  0.11196885  1
  O  O280  1  0.53771372  0.70112007  0.43819709  1
  O  O281  1  0.52590409  0.69278156  0.76564875  1
  O  O282  1  0.29774259  0.46752033  0.06392038  1
  O  O283  1  0.31355352  0.46216654  0.39874651  1
  O  O284  1  0.28985640  0.47068363  0.72913165  1
  O  O285  1  0.30090558  0.97181685  0.06402078  1
  O  O286  1  0.29675322  0.96831215  0.39744056  1
  O  O287  1  0.29690532  0.95909875  0.72710247  1
  O  O288  1  0.79413273  0.47610404  0.06486723  1
  O  O289  1  0.80076114  0.46995807  0.39508764  1
  O  O290  1  0.80223722  0.47215711  0.73238283  1
  O  O291  1  0.79907473  0.96362966  0.05369747  1
  O  O292  1  0.80456650  0.97216237  0.39198074  1
  O  O293  1  0.82312033  0.97073638  0.73306094  1
  O  O294  1  0.47131626  0.29913270  0.23067836  1
  O  O295  1  0.46428709  0.30952153  0.56426977  1
  O  O296  1  0.47140668  0.29778823  0.90221641  1
  O  O297  1  0.46371164  0.79556100  0.22703187  1
  O  O298  1  0.45769644  0.78926708  0.55962458  1
  O  O299  1  0.46502914  0.81143477  0.89873860  1
  O  O300  1  0.96839471  0.30199593  0.23241968  1
  O  O301  1  0.97275519  0.30691641  0.56317863  1
  O  O302  1  0.96817618  0.30065253  0.89295975  1
  O  O303  1  0.97454366  0.79540813  0.22634879  1
  O  O304  1  0.97576943  0.78690265  0.55833337  1
  O  O305  1  0.97160041  0.80110407  0.89533205  1
  O  O306  1  0.19567103  0.02977026  0.26870122  1
  O  O307  1  0.19750912  0.03363641  0.60390360  1
  O  O308  1  0.19828967  0.02973281  0.93595901  1
  O  O309  1  0.19767231  0.52522299  0.26436054  1
  O  O310  1  0.19527807  0.53151595  0.60598057  1
  O  O311  1  0.19777961  0.53162941  0.93728078  1
  O  O312  1  0.69302490  0.03319654  0.26783085  1
  O  O313  1  0.69379979  0.02750069  0.58471728  1
  O  O314  1  0.70309702  0.04796202  0.94766135  1
  O  O315  1  0.69688216  0.53119009  0.27149467  1
  O  O316  1  0.70380793  0.53332573  0.60755337  1
  O  O317  1  0.71059905  0.52665750  0.94001175  1
  O  O318  1  0.08370220  0.07677371  0.02733568  1
  O  O319  1  0.08397201  0.09034868  0.37082716  1
  O  O320  1  0.08571983  0.09041488  0.70557326  1
  O  O321  1  0.08810256  0.59113841  0.03713196  1
  O  O322  1  0.07273248  0.58621103  0.36733717  1
  O  O323  1  0.07936297  0.58489668  0.70558126  1
  O  O324  1  0.58034937  0.08888565  0.03353005  1
  O  O325  1  0.60233090  0.09335947  0.36446074  1
  O  O326  1  0.59201700  0.09524693  0.72031570  1
  O  O327  1  0.59019810  0.59194072  0.04717297  1
  O  O328  1  0.58675146  0.58687376  0.37042824  1
  O  O329  1  0.58510439  0.58280793  0.70396470  1
  O  O330  1  0.40965149  0.41581404  0.13290363  1
  O  O331  1  0.41566549  0.40468669  0.47206518  1
  O  O332  1  0.39946497  0.41334028  0.79334183  1
  O  O333  1  0.41398621  0.91891707  0.13097989  1
  O  O334  1  0.40562042  0.90754990  0.45814839  1
  O  O335  1  0.40703560  0.90444573  0.79525742  1
  O  O336  1  0.90942511  0.42582660  0.12926258  1
  O  O337  1  0.91402597  0.41832044  0.46259299  1
  O  O338  1  0.91673879  0.42175893  0.79752621  1
  O  O339  1  0.91767576  0.91856237  0.12210432  1
  O  O340  1  0.91314280  0.91098082  0.44959846  1
  O  O341  1  0.92069549  0.91034462  0.80569382  1
  O  O342  1  0.40898752  0.40565228  0.29164911  1
  O  O343  1  0.41381116  0.42126905  0.63474235  1
  O  O344  1  0.41205459  0.40917902  0.96092076  1
  O  O345  1  0.41393842  0.90943650  0.29249100  1
  O  O346  1  0.40394857  0.89889210  0.62710066  1
  O  O347  1  0.40844580  0.91611321  0.97027728  1
  O  O348  1  0.91250269  0.41321884  0.29588462  1
  O  O349  1  0.91935915  0.41997877  0.62837512  1
  O  O350  1  0.90883043  0.40753141  0.95736589  1
  O  O351  1  0.93341395  0.91500087  0.29330948  1
  O  O352  1  0.91935280  0.89897490  0.61388795  1
  O  O353  1  0.92261319  0.91657971  0.96331290  1
  O  O354  1  0.08529064  0.08591611  0.20419937  1
  O  O355  1  0.08877469  0.08962614  0.53472375  1
  O  O356  1  0.08510388  0.08288278  0.87074856  1
  O  O357  1  0.08904812  0.58511105  0.20455880  1
  O  O358  1  0.08191977  0.58158381  0.53774976  1
  O  O359  1  0.08446336  0.58636962  0.87378414  1
  O  O360  1  0.58500208  0.08511066  0.19391163  1
  O  O361  1  0.58961035  0.08324002  0.51394936  1
  O  O362  1  0.59353839  0.10431012  0.88074808  1
  O  O363  1  0.58427437  0.58391892  0.20433121  1
  O  O364  1  0.58887422  0.58118409  0.54059616  1
  O  O365  1  0.59428295  0.57663180  0.87834155  1
  O  O366  1  0.13566048  0.21323538  0.05582956  1
  O  O367  1  0.14002755  0.22424124  0.39446508  1
  O  O368  1  0.14313946  0.22213915  0.72606900  1
  O  O369  1  0.13537899  0.72411133  0.05077128  1
  O  O370  1  0.13507645  0.71649747  0.38788972  1
  O  O371  1  0.13587728  0.71706653  0.72307314  1
  O  O372  1  0.64112697  0.22230878  0.06186845  1
  O  O373  1  0.64169309  0.23022748  0.38653093  1
  O  O374  1  0.63407414  0.22980661  0.73617406  1
  O  O375  1  0.63824889  0.72538775  0.06523463  1
  O  O376  1  0.63816986  0.71882903  0.38315792  1
  O  O377  1  0.63481793  0.71685514  0.72378707  1
  O  O378  1  0.27502973  0.36244075  0.11153140  1
  O  O379  1  0.27853530  0.35549441  0.43921828  1
  O  O380  1  0.26642729  0.36369404  0.77420068  1
  O  O381  1  0.28061928  0.86100080  0.10516422  1
  O  O382  1  0.27184812  0.85802306  0.43777078  1
  O  O383  1  0.27229335  0.85607945  0.77565035  1
  O  O384  1  0.77820955  0.36703314  0.10959082  1
  O  O385  1  0.78076764  0.36443357  0.44295401  1
  O  O386  1  0.78400756  0.36575225  0.78067630  1
  O  O387  1  0.78746411  0.86741751  0.11378968  1
  O  O388  1  0.78183899  0.86737826  0.44034091  1
  O  O389  1  0.78214748  0.86437739  0.77241143  1
  O  O390  1  0.36026020  0.26985219  0.26773938  1
  O  O391  1  0.36349239  0.28684808  0.61529564  1
  O  O392  1  0.36354308  0.27664980  0.94695157  1
  O  O393  1  0.35781473  0.77863116  0.27570024  1
  O  O394  1  0.35267426  0.76493323  0.60616251  1
  O  O395  1  0.36163869  0.77904115  0.94454746  1
  O  O396  1  0.86162080  0.28028852  0.27886591  1
  O  O397  1  0.86233461  0.28645579  0.60491040  1
  O  O398  1  0.86334856  0.27310171  0.93898484  1
  O  O399  1  0.86561421  0.78645902  0.27286662  1
  O  O400  1  0.86828732  0.76884650  0.60514523  1
  O  O401  1  0.86099148  0.78488216  0.93817449  1
  O  O402  1  0.21995598  0.13592371  0.22241646  1
  O  O403  1  0.22437865  0.14042213  0.55936977  1
  O  O404  1  0.21731060  0.13770476  0.88976445  1
  O  O405  1  0.22201481  0.63504063  0.22200454  1
  O  O406  1  0.21432707  0.63193857  0.55162908  1
  O  O407  1  0.21740729  0.63818331  0.89047644  1
  O  O408  1  0.71978671  0.14041991  0.22484786  1
  O  O409  1  0.72612754  0.13943430  0.54937456  1
  O  O410  1  0.72748968  0.14576368  0.89349048  1
  O  O411  1  0.71807223  0.63983524  0.22762863  1
  O  O412  1  0.72008911  0.64068015  0.56067397  1
  O  O413  1  0.72419170  0.63283098  0.89043418  1
  O  O414  1  0.49199314  0.33903480  0.03617096  1
  O  O415  1  0.48658855  0.32766712  0.36279385  1
  O  O416  1  0.49624549  0.34494495  0.69954244  1
  O  O417  1  0.49189626  0.83711280  0.03181343  1
  O  O418  1  0.49066173  0.83005797  0.36124599  1
  O  O419  1  0.48348754  0.81979968  0.69363135  1
  O  O420  1  0.99333641  0.33250967  0.02648836  1
  O  O421  1  0.99245090  0.33889972  0.36647374  1
  O  O422  1  0.99243812  0.33932717  0.69608931  1
  O  O423  1  0.99307971  0.83086758  0.02778042  1
  O  O424  1  0.99712557  0.82976701  0.36113044  1
  O  O425  1  0.99585083  0.82796049  0.69323042  1
  O  O426  1  0.16240315  0.00661177  0.13496174  1
  O  O427  1  0.16872605  0.01011380  0.47069974  1
  O  O428  1  0.16438651  0.00591290  0.80241559  1
  O  O429  1  0.16379799  0.50657956  0.13175054  1
  O  O430  1  0.15675734  0.49855151  0.47038142  1
  O  O431  1  0.15894750  0.50762327  0.80273131  1
  O  O432  1  0.67061939  0.00853774  0.13576766  1
  O  O433  1  0.68031800  0.01138105  0.45530058  1
  O  O434  1  0.66584789  0.01216195  0.81379615  1
  O  O435  1  0.66502564  0.50907080  0.13804946  1
  O  O436  1  0.67174862  0.50929425  0.47350035  1
  O  O437  1  0.67096396  0.50196275  0.80501296  1
  O  O438  1  0.00926895  0.17168958  0.30480374  1
  O  O439  1  0.01181240  0.17280349  0.63829617  1
  O  O440  1  0.00539042  0.16066249  0.96687107  1
  O  O441  1  0.00383788  0.66970031  0.30040416  1
  O  O442  1  0.00513562  0.66232000  0.63478393  1
  O  O443  1  0.00331638  0.66521891  0.96995821  1
  O  O444  1  0.51342724  0.16509266  0.29700076  1
  O  O445  1  0.50848666  0.16566103  0.64571500  1
  O  O446  1  0.51100874  0.17525775  0.96897296  1
  O  O447  1  0.50491133  0.66179695  0.30260585  1
  O  O448  1  0.50562597  0.65623142  0.63198823  1
  O  O449  1  0.50743097  0.66836497  0.97854761  1
  O  O450  1  0.33095965  0.49318806  0.19880381  1
  O  O451  1  0.32972423  0.48577896  0.52859623  1
  O  O452  1  0.32144601  0.49303177  0.86271471  1
  O  O453  1  0.33018137  0.99086638  0.19648358  1
  O  O454  1  0.32981417  0.98648033  0.52985373  1
  O  O455  1  0.32971765  0.98739045  0.86112759  1
  O  O456  1  0.82739474  0.49770909  0.19801829  1
  O  O457  1  0.83529581  0.49574942  0.52953115  1
  O  O458  1  0.83995935  0.49701205  0.86753033  1
  O  O459  1  0.84471470  1.00242280  0.19024816  1
  O  O460  1  0.84711026  0.99667480  0.52719543  1
  O  O461  1  0.83868126  0.99258467  0.86503856  1
