# generated using pymatgen
data_Na31Fe20(SO4)36
_symmetry_space_group_name_H-M   'P 1'
_cell_length_a   18.07939804
_cell_length_b   18.08095633
_cell_length_c   19.71831355
_cell_angle_alpha   107.55893815
_cell_angle_beta   107.58230486
_cell_angle_gamma   90.72153397
_symmetry_Int_Tables_number   1
_chemical_formula_structural   Na31Fe20(SO4)36
_chemical_formula_sum   'Na62 Fe40 S72 O288'
_cell_volume   5820.08045574
_cell_formula_units_Z   2
loop_
 _symmetry_equiv_pos_site_id
 _symmetry_equiv_pos_as_xyz
  1  'x, y, z'
loop_
 _atom_site_type_symbol
 _atom_site_label
 _atom_site_symmetry_multiplicity
 _atom_site_fract_x
 _atom_site_fract_y
 _atom_site_fract_z
 _atom_site_occupancy
  Na  Na0  1  0.11531587  0.37140729  0.07784257  1
  Na  Na1  1  0.14335549  0.36591025  0.42018639  1
  Na  Na2  1  0.13005695  0.36099570  0.74275932  1
  Na  Na3  1  0.13649276  0.87072465  0.09267537  1
  Na  Na4  1  0.12689690  0.85840968  0.40380292  1
  Na  Na5  1  0.13454726  0.86946678  0.76116564  1
  Na  Na6  1  0.63446121  0.35746871  0.07822331  1
  Na  Na7  1  0.63754708  0.36258338  0.41530917  1
  Na  Na8  1  0.64111776  0.36736297  0.75863080  1
  Na  Na9  1  0.63367593  0.86689175  0.08115724  1
  Na  Na10  1  0.63615499  0.86408585  0.41856308  1
  Na  Na11  1  0.65253131  0.87315327  0.76304096  1
  Na  Na12  1  0.36712358  0.13713229  0.25482985  1
  Na  Na13  1  0.36773165  0.13089780  0.58612885  1
  Na  Na14  1  0.36152415  0.12706809  0.91508126  1
  Na  Na15  1  0.35439964  0.64142344  0.24555722  1
  Na  Na16  1  0.36518632  0.62793414  0.57451538  1
  Na  Na17  1  0.37166588  0.63385042  0.91831274  1
  Na  Na18  1  0.85522718  0.13778682  0.24608101  1
  Na  Na19  1  0.86130195  0.15476640  0.59299144  1
  Na  Na20  1  0.86062907  0.12968280  0.90529417  1
  Na  Na21  1  0.87190371  0.62711506  0.24809974  1
  Na  Na22  1  0.87543359  0.64908467  0.60158592  1
  Na  Na23  1  0.86521620  0.62840743  0.91257567  1
  Na  Na24  1  0.48150728  0.50237723  0.43555615  1
  Na  Na25  1  0.98119337  -0.00220041  0.75728604  1
  Na  Na26  1  0.98117149  0.51030744  0.77656227  1
  Na  Na27  1  0.49907274  0.50469269  0.74037119  1
  Na  Na28  1  0.45983672  0.00880516  0.06775749  1
  Na  Na29  1  1.02746448  0.49050480  0.39734581  1
  Na  Na30  1  0.51140675  0.50036157  0.05403502  1
  Na  Na31  1  0.49080795  0.00596056  0.42632473  1
  Na  Na32  1  0.99411127  0.04278458  0.41929079  1
  Na  Na33  1  0.50346590  0.99006419  0.90155586  1
  Na  Na34  1  -0.01469412  1.01928432  0.57985242  1
  Na  Na35  1  0.50332156  0.49372378  0.24954658  1
  Na  Na36  1  0.54092832  0.98451947  0.64102564  1
  Na  Na37  1  0.00656768  0.48408014  0.58431411  1
  Na  Na38  1  0.01757813  0.99785308  0.22658521  1
  Na  Na39  1  0.00887057  0.95606050  0.92667465  1
  Na  Na40  1  0.51000573  0.98930628  0.25022390  1
  Na  Na41  1  0.02160463  0.47900182  0.21459806  1
  Na  Na42  1  0.77875050  0.27463333  -0.00560837  1
  Na  Na43  1  0.23862828  0.74690445  0.01546189  1
  Na  Na44  1  0.23715990  0.23886205  0.66920226  1
  Na  Na45  1  0.75832021  0.74935968  -0.01049479  1
  Na  Na46  1  0.25015248  0.25494816  0.33362390  1
  Na  Na47  1  0.74977034  0.74644006  0.68302090  1
  Na  Na48  1  0.22249064  0.72659503  0.32768830  1
  Na  Na49  1  0.24713545  0.74756805  0.67063001  1
  Na  Na50  1  0.75373176  0.75091080  0.32806697  1
  Na  Na51  1  0.24276902  0.24651688  0.00535711  1
  Na  Na52  1  0.76031324  0.25744929  0.16258462  1
  Na  Na53  1  0.25412722  0.75453731  0.84062013  1
  Na  Na54  1  0.75360176  0.74745576  0.50591718  1
  Na  Na55  1  0.23771365  0.24087672  0.83631044  1
  Na  Na56  1  0.75983029  0.26029898  0.82101496  1
  Na  Na57  1  0.76136795  0.75816993  0.16116568  1
  Na  Na58  1  0.23872435  0.73437656  0.49856676  1
  Na  Na59  1  0.23839439  0.24068397  0.50727565  1
  Na  Na60  1  0.75583696  0.25750649  0.49338270  1
  Na  Na61  1  0.24175601  0.25099927  0.16756440  1
  Fe  Fe62  1  0.96456379  0.80025598  0.12583844  1
  Fe  Fe63  1  0.46507016  0.30832591  0.12038080  1
  Fe  Fe64  1  0.96330598  0.31221259  0.78869059  1
  Fe  Fe65  1  0.46733916  0.80643298  0.45036571  1
  Fe  Fe66  1  0.46692536  0.30719760  0.45776475  1
  Fe  Fe67  1  0.96937402  0.29909019  0.45446570  1
  Fe  Fe68  1  0.46370710  0.80514632  0.11317049  1
  Fe  Fe69  1  0.96589476  0.80926428  0.45255099  1
  Fe  Fe70  1  0.46853455  0.80395113  0.78272078  1
  Fe  Fe71  1  0.46260374  0.31018652  0.79002792  1
  Fe  Fe72  1  0.68914556  0.03624379  0.04840558  1
  Fe  Fe73  1  0.69929207  0.53187768  0.04221458  1
  Fe  Fe74  1  0.18259692  0.54121786  0.04559319  1
  Fe  Fe75  1  0.19587883  0.03557599  0.38143641  1
  Fe  Fe76  1  0.69554336  0.53247861  0.37968114  1
  Fe  Fe77  1  0.68942478  0.03622917  0.38548678  1
  Fe  Fe78  1  0.69546657  0.53198861  0.71660417  1
  Fe  Fe79  1  0.19385736  0.53641739  0.71474769  1
  Fe  Fe80  1  0.20155607  0.02842519  0.04174737  1
  Fe  Fe81  1  0.19408141  0.03071661  0.71141257  1
  Fe  Fe82  1  0.53555420  0.19265757  0.21687824  1
  Fe  Fe83  1  0.53940097  0.19505332  0.55853203  1
  Fe  Fe84  1  0.54068231  0.69189945  0.88042054  1
  Fe  Fe85  1  0.02986665  0.19575745  0.20198849  1
  Fe  Fe86  1  0.53465850  0.18734374  0.87983928  1
  Fe  Fe87  1  0.02957950  0.70515404  0.87933210  1
  Fe  Fe88  1  0.03261568  0.69474321  0.54748614  1
  Fe  Fe89  1  0.03546651  0.19117721  0.87857343  1
  Fe  Fe90  1  0.53370238  0.69211710  0.21167576  1
  Fe  Fe91  1  0.53809480  0.69137001  0.54802734  1
  Fe  Fe92  1  0.80216326  0.97091910  0.28672876  1
  Fe  Fe93  1  0.30039832  0.46893635  0.28744877  1
  Fe  Fe94  1  0.30838065  0.96277237  0.28373013  1
  Fe  Fe95  1  0.30554882  0.46752711  0.61795783  1
  Fe  Fe96  1  0.30305667  0.46789716  0.95242976  1
  Fe  Fe97  1  0.79977162  0.97016199  0.62327477  1
  Fe  Fe98  1  0.31266181  0.96040915  0.61923117  1
  Fe  Fe99  1  0.80863866  0.46222435  0.61979642  1
  Fe  Fe100  1  0.81364773  0.46063671  0.29085548  1
  Fe  Fe101  1  0.80750596  0.96857695  0.95201720  1
  S  S102  1  0.36005561  0.14675442  0.08754375  1
  S  S103  1  0.36322926  0.13898182  0.42084050  1
  S  S104  1  0.35905241  0.13927282  0.74935001  1
  S  S105  1  0.35964745  0.63953068  0.08092404  1
  S  S106  1  0.36405513  0.64085261  0.41398653  1
  S  S107  1  0.36317589  0.63905595  0.75040529  1
  S  S108  1  0.85453060  0.14032281  0.08486865  1
  S  S109  1  0.85535587  0.13889823  0.41968993  1
  S  S110  1  0.86345031  0.13977105  0.74543167  1
  S  S111  1  0.85414483  0.64338021  0.08398266  1
  S  S112  1  0.85842511  0.64092167  0.41926991  1
  S  S113  1  0.86164596  0.63688166  0.74817537  1
  S  S114  1  0.14191538  0.35759392  0.25292294  1
  S  S115  1  0.14254741  0.36112581  0.58128822  1
  S  S116  1  0.14111555  0.36210913  0.91429378  1
  S  S117  1  0.13859838  0.86537517  0.25070937  1
  S  S118  1  0.14388088  0.85723417  0.58217737  1
  S  S119  1  0.14534939  0.85830191  0.92045987  1
  S  S120  1  0.63930260  0.35938581  0.25029339  1
  S  S121  1  0.63972986  0.35964866  0.58227666  1
  S  S122  1  0.63411369  0.35802488  0.92131982  1
  S  S123  1  0.63676050  0.86094346  0.24888573  1
  S  S124  1  0.64292727  0.85282300  0.58148614  1
  S  S125  1  0.64156834  0.86197316  0.91636020  1
  S  S126  1  0.07031255  0.15928453  0.03523417  1
  S  S127  1  0.06777598  0.16872187  0.36928640  1
  S  S128  1  0.06771359  0.16705948  0.70687411  1
  S  S129  1  0.06607554  0.67961436  0.04123191  1
  S  S130  1  0.05655778  0.67168797  0.37567480  1
  S  S131  1  0.07225076  0.67111455  0.71153801  1
  S  S132  1  0.56226373  0.16759133  0.04463684  1
  S  S133  1  0.56405988  0.17008089  0.37836965  1
  S  S134  1  0.56535117  0.17693345  0.71765473  1
  S  S135  1  0.57183189  0.67186384  0.04389914  1
  S  S136  1  0.56991371  0.66773825  0.37325940  1
  S  S137  1  0.56983003  0.66924123  0.70705303  1
  S  S138  1  0.32926415  0.43323885  0.12475156  1
  S  S139  1  0.33713847  0.43213127  0.46037449  1
  S  S140  1  0.32709769  0.43231190  0.78892450  1
  S  S141  1  0.33834967  0.93732769  0.12764486  1
  S  S142  1  0.33126866  0.92812829  0.45468330  1
  S  S143  1  0.33304180  0.93107223  0.78775395  1
  S  S144  1  0.82549807  0.43466020  0.12820547  1
  S  S145  1  0.83172104  0.43056366  0.45902137  1
  S  S146  1  0.82685238  0.43305182  0.78930268  1
  S  S147  1  0.82660587  0.93049745  0.12458937  1
  S  S148  1  0.82295934  0.93208961  0.45558703  1
  S  S149  1  0.83705432  0.93524106  0.79285883  1
  S  S150  1  0.43381408  0.33389468  0.29350488  1
  S  S151  1  0.42948480  0.32858206  0.62548056  1
  S  S152  1  0.42416098  0.32853665  0.95757389  1
  S  S153  1  0.43537821  0.83183758  0.29115577  1
  S  S154  1  0.43537300  0.82461062  0.62050014  1
  S  S155  1  0.44193916  0.82926292  0.95383342  1
  S  S156  1  0.93620001  0.32626364  0.29320574  1
  S  S157  1  0.93730513  0.33866511  0.62576523  1
  S  S158  1  0.93245024  0.32309366  0.94713420  1
  S  S159  1  0.92929860  0.84470019  0.29702847  1
  S  S160  1  0.93729762  0.84004922  0.62369512  1
  S  S161  1  0.92763886  0.82681485  0.96383298  1
  S  S162  1  0.17880598  0.07351747  0.21027252  1
  S  S163  1  0.16947767  0.05801197  0.54170663  1
  S  S164  1  0.17112566  0.06722331  0.87391500  1
  S  S165  1  0.16934934  0.56299045  0.20563304  1
  S  S166  1  0.16851916  0.56701063  0.54368952  1
  S  S167  1  0.17139654  0.57437813  0.87672822  1
  S  S168  1  0.66109940  0.06565817  0.20676112  1
  S  S169  1  0.66425463  0.06411155  0.53976390  1
  S  S170  1  0.66606479  0.06712419  0.87986532  1
  S  S171  1  0.66605016  0.56640453  0.20618570  1
  S  S172  1  0.67462224  0.56750614  0.54245290  1
  S  S173  1  0.66342919  0.56446742  0.87362332  1
  O  O174  1  0.36677887  0.22910975  0.08552851  1
  O  O175  1  0.37012304  0.21628163  0.40890826  1
  O  O176  1  0.36537396  0.21779424  0.73931283  1
  O  O177  1  0.37046837  0.71668800  0.06870784  1
  O  O178  1  0.37763011  0.71889552  0.40434291  1
  O  O179  1  0.37134888  0.71735133  0.74059080  1
  O  O180  1  0.85648318  0.21918725  0.08020639  1
  O  O181  1  0.86962334  0.22088594  0.42242078  1
  O  O182  1  0.87993822  0.21628515  0.73482754  1
  O  O183  1  0.86257758  0.73100445  0.09042342  1
  O  O184  1  0.86559756  0.71951173  0.40987794  1
  O  O185  1  0.86930088  0.71024869  0.73337398  1
  O  O186  1  0.27994077  0.13423171  0.09172433  1
  O  O187  1  0.28444204  0.13012862  0.42997639  1
  O  O188  1  0.27893679  0.12908759  0.75572638  1
  O  O189  1  0.27984591  0.63067457  0.08446665  1
  O  O190  1  0.28782594  0.63580176  0.42433235  1
  O  O191  1  0.28467726  0.63161392  0.75984118  1
  O  O192  1  0.77919534  0.12380265  0.10017284  1
  O  O193  1  0.77316356  0.13018752  0.42165411  1
  O  O194  1  0.79014748  0.13707529  0.76117610  1
  O  O195  1  0.76989646  0.63374444  0.08610858  1
  O  O196  1  0.77744090  0.63007611  0.42364197  1
  O  O197  1  0.78430819  0.62437087  0.75790558  1
  O  O198  1  0.13138072  0.27346084  0.25137193  1
  O  O199  1  0.13873064  0.28341170  0.58860350  1
  O  O200  1  0.13630001  0.28278796  0.92259339  1
  O  O201  1  0.13325938  0.79260489  0.26650143  1
  O  O202  1  0.13336536  0.77788293  0.58964544  1
  O  O203  1  0.13006101  0.77727743  0.92601580  1
  O  O204  1  0.62731548  0.28232416  0.25973800  1
  O  O205  1  0.63040002  0.28079246  0.58930424  1
  O  O206  1  0.61456816  0.28475870  0.93701844  1
  O  O207  1  0.62877394  0.78258777  0.25850962  1
  O  O208  1  0.63800021  0.76952052  0.58123574  1
  O  O209  1  0.63465196  0.78318188  0.92527614  1
  O  O210  1  0.22695972  0.36596499  0.25634432  1
  O  O211  1  0.21996264  0.37520179  0.56971378  1
  O  O212  1  0.21970722  0.37240957  0.90403572  1
  O  O213  1  0.21356026  0.87910646  0.23661020  1
  O  O214  1  0.22351812  0.86315361  0.57415464  1
  O  O215  1  0.22315171  0.86428992  0.91382790  1
  O  O216  1  0.71829008  0.36819682  0.24345595  1
  O  O217  1  0.71742477  0.36926130  0.57147805  1
  O  O218  1  0.71167205  0.35592060  0.91292460  1
  O  O219  1  0.71545661  0.87093164  0.24119171  1
  O  O220  1  0.71985052  0.86689651  0.57092163  1
  O  O221  1  0.71875503  0.87362050  0.90741788  1
  O  O222  1  0.41741001  0.13881480  0.15744712  1
  O  O223  1  0.42250628  0.13332457  0.48969350  1
  O  O224  1  0.41634219  0.13418223  0.81927208  1
  O  O225  1  0.41687102  0.63617157  0.15204207  1
  O  O226  1  0.42578450  0.63029997  0.48076986  1
  O  O227  1  0.42273661  0.63072790  0.81754787  1
  O  O228  1  0.91782949  0.13147138  0.15048750  1
  O  O229  1  0.90965827  0.11899207  0.48229004  1
  O  O230  1  0.92741218  0.12331887  0.80685723  1
  O  O231  1  0.90771395  0.63121261  0.15010211  1
  O  O232  1  0.91436872  0.63627747  0.49021258  1
  O  O233  1  0.92376128  0.63330097  0.81805163  1
  O  O234  1  0.37322153  0.09254293  0.02160827  1
  O  O235  1  0.37245782  0.07761692  0.35475736  1
  O  O236  1  0.36853424  0.07981438  0.68263352  1
  O  O237  1  0.37306231  0.57795400  0.01645323  1
  O  O238  1  0.37107150  0.58064562  0.34583742  1
  O  O239  1  0.37088915  0.57913951  0.68247810  1
  O  O240  1  0.85990292  0.08320127  0.01464421  1
  O  O241  1  0.86162813  0.08583054  0.34672199  1
  O  O242  1  0.86366413  0.07966744  0.67318378  1
  O  O243  1  0.85953544  0.59651390  0.01247871  1
  O  O244  1  0.86835744  0.58092961  0.35330526  1
  O  O245  1  0.87311297  0.57206891  0.68430700  1
  O  O246  1  0.09165182  0.36906481  0.18410045  1
  O  O247  1  0.08161144  0.36952171  0.51415230  1
  O  O248  1  0.08186419  0.36894029  0.84617216  1
  O  O249  1  0.07420056  0.86958770  0.18276700  1
  O  O250  1  0.08610102  0.86706024  0.51474337  1
  O  O251  1  0.08450485  0.87148700  0.85802250  1
  O  O252  1  0.58064747  0.36791446  0.18130227  1
  O  O253  1  0.58033618  0.36723364  0.51376572  1
  O  O254  1  0.57589618  0.36721124  0.85327041  1
  O  O255  1  0.57723418  0.86773434  0.18044457  1
  O  O256  1  0.58127612  0.86300910  0.51519072  1
  O  O257  1  0.58018540  0.86934368  0.84895281  1
  O  O258  1  0.12860456  0.40994957  0.32006954  1
  O  O259  1  0.13426352  0.42098932  0.64946882  1
  O  O260  1  0.13526032  0.42042611  0.98271912  1
  O  O261  1  0.12976347  0.93107281  0.31551244  1
  O  O262  1  0.13750281  0.91539253  0.65114480  1
  O  O263  1  0.14058473  0.91464771  0.99309250  1
  O  O264  1  0.62968148  0.42089018  0.31683527  1
  O  O265  1  0.63203490  0.41865613  0.65012807  1
  O  O266  1  0.62979099  0.42327147  0.98872080  1
  O  O267  1  0.62670107  0.92084407  0.31553077  1
  O  O268  1  0.63568583  0.90446515  0.65138321  1
  O  O269  1  0.63133897  0.92038134  0.98419239  1
  O  O270  1  0.03487050  0.18202407  0.09537482  1
  O  O271  1  0.02911330  0.19407472  0.42755462  1
  O  O272  1  0.04331489  0.20137130  0.77505261  1
  O  O273  1  0.02345380  0.70520742  0.09684420  1
  O  O274  1  0.02700717  0.70622115  0.44419171  1
  O  O275  1  0.03910487  0.69414402  0.77337075  1
  O  O276  1  0.52585880  0.19923940  0.10610465  1
  O  O277  1  0.52795184  0.19892983  0.43943156  1
  O  O278  1  0.52475768  0.20923215  0.77649836  1
  O  O279  1  0.53222260  0.69917779  0.10358759  1
  O  O280  1  0.53554798  0.69813128  0.43495190  1
  O  O281  1  0.53335724  0.70149542  0.76836157  1
  O  O282  1  0.30095179  0.46878646  0.06343403  1
  O  O283  1  0.32104525  0.46809694  0.40064134  1
  O  O284  1  0.29696584  0.47002877  0.72857036  1
  O  O285  1  0.31110949  0.97664174  0.07056599  1
  O  O286  1  0.30048171  0.96639516  0.39495371  1
  O  O287  1  0.30042582  0.96351687  0.72285315  1
  O  O288  1  0.79336055  0.47474651  0.07106090  1
  O  O289  1  0.80126945  0.46711879  0.39720794  1
  O  O290  1  0.79271033  0.46202364  0.72123101  1
  O  O291  1  0.80063261  0.96491126  0.06252638  1
  O  O292  1  0.79199111  0.96769886  0.39351925  1
  O  O293  1  0.81187190  0.96874512  0.73036663  1
  O  O294  1  0.47141074  0.30432589  0.23357437  1
  O  O295  1  0.46814818  0.29839289  0.56615828  1
  O  O296  1  0.45475296  0.29749087  0.89362951  1
  O  O297  1  0.46818479  0.80070792  0.22746457  1
  O  O298  1  0.47199064  0.79352207  0.55933684  1
  O  O299  1  0.47651168  0.79048883  0.89215726  1
  O  O300  1  0.97290504  0.29949981  0.23436724  1
  O  O301  1  0.97565877  0.31789224  0.56749783  1
  O  O302  1  0.97323695  0.28749399  0.88631352  1
  O  O303  1  0.96378854  0.82098790  0.23618033  1
  O  O304  1  0.96915832  0.80480900  0.55856009  1
  O  O305  1  0.96949109  0.80164773  0.90693520  1
  O  O306  1  0.20973489  0.03990696  0.27370206  1
  O  O307  1  0.20777688  0.02338566  0.60311834  1
  O  O308  1  0.19637068  0.03334236  0.93485065  1
  O  O309  1  0.20280758  0.52318073  0.26284531  1
  O  O310  1  0.20331030  0.53712920  0.60975097  1
  O  O311  1  0.19814105  0.53587323  0.93664260  1
  O  O312  1  0.69275631  0.03089533  0.26902976  1
  O  O313  1  0.69347007  0.02735837  0.59841925  1
  O  O314  1  0.69987780  0.03405214  0.94461185  1
  O  O315  1  0.69498786  0.53058485  0.26728840  1
  O  O316  1  0.70172898  0.53115849  0.60313921  1
  O  O317  1  0.68308399  0.52825562  0.93337716  1
  O  O318  1  0.09358430  0.07835334  0.02515942  1
  O  O319  1  0.08618038  0.08574476  0.36351150  1
  O  O320  1  0.08968454  0.08574921  0.70359593  1
  O  O321  1  0.08743795  0.60023792  0.03767939  1
  O  O322  1  0.06915989  0.59024324  0.36928327  1
  O  O323  1  0.08704414  0.58667580  0.69604754  1
  O  O324  1  0.57499880  0.08413349  0.03806586  1
  O  O325  1  0.57839647  0.08650291  0.37054087  1
  O  O326  1  0.58671219  0.10067535  0.72040719  1
  O  O327  1  0.59528403  0.59293504  0.04262946  1
  O  O328  1  0.58668597  0.58534487  0.36716918  1
  O  O329  1  0.58981321  0.58969000  0.70755059  1
  O  O330  1  0.41162457  0.41419674  0.13054813  1
  O  O331  1  0.42013866  0.41262057  0.47613083  1
  O  O332  1  0.40781966  0.41456369  0.79182015  1
  O  O333  1  0.42057234  0.91751989  0.12954349  1
  O  O334  1  0.41349732  0.91296918  0.45776157  1
  O  O335  1  0.41083872  0.90406822  0.78467602  1
  O  O336  1  0.90412370  0.41715140  0.13109541  1
  O  O337  1  0.91188313  0.40996210  0.46184574  1
  O  O338  1  0.90650180  0.41164480  0.78651598  1
  O  O339  1  0.90764957  0.90913351  0.13500606  1
  O  O340  1  0.90592643  0.91826912  0.46366422  1
  O  O341  1  0.92050888  0.92427575  0.80832314  1
  O  O342  1  0.41705212  0.41592244  0.29830957  1
  O  O343  1  0.40943186  0.40906692  0.62905840  1
  O  O344  1  0.40618407  0.41032223  0.96348447  1
  O  O345  1  0.42219875  0.91600516  0.29855992  1
  O  O346  1  0.41894299  0.90608924  0.62312073  1
  O  O347  1  0.43391694  0.91022931  0.95502305  1
  O  O348  1  0.91863375  0.40957559  0.30132518  1
  O  O349  1  0.92357627  0.42406392  0.64068402  1
  O  O350  1  0.90775964  0.39615526  0.93814272  1
  O  O351  1  0.91188288  0.92835458  0.30953035  1
  O  O352  1  0.91262202  0.91877996  0.62079196  1
  O  O353  1  0.90736694  0.90692624  0.96510631  1
  O  O354  1  0.09726155  0.08955816  0.20428619  1
  O  O355  1  0.08796540  0.06683264  0.53813542  1
  O  O356  1  0.08803169  0.08453275  0.86006184  1
  O  O357  1  0.09124789  0.58057523  0.20628587  1
  O  O358  1  0.08812793  0.58790075  0.54339072  1
  O  O359  1  0.09208037  0.59805634  0.87167433  1
  O  O360  1  0.57726043  0.07884819  0.20191200  1
  O  O361  1  0.58358913  0.08648707  0.53894765  1
  O  O362  1  0.58530015  0.08628181  0.88293137  1
  O  O363  1  0.58219258  0.58146202  0.19876753  1
  O  O364  1  0.59264919  0.58621069  0.53428933  1
  O  O365  1  0.58027052  0.58481422  0.86031184  1
  O  O366  1  0.13941666  0.21610898  0.05238557  1
  O  O367  1  0.14118898  0.22016317  0.38930666  1
  O  O368  1  0.13802267  0.21830905  0.71632178  1
  O  O369  1  0.13544532  0.73519000  0.06080940  1
  O  O370  1  0.13168331  0.72088122  0.39401028  1
  O  O371  1  0.14545468  0.72159995  0.72907813  1
  O  O372  1  0.63570430  0.21628124  0.06302013  1
  O  O373  1  0.63552049  0.22017623  0.39412700  1
  O  O374  1  0.63213376  0.23300849  0.73167358  1
  O  O375  1  0.63943314  0.72849142  0.06080320  1
  O  O376  1  0.64138714  0.71872146  0.38766719  1
  O  O377  1  0.63791761  0.72222059  0.71872008  1
  O  O378  1  0.27670152  0.36288238  0.11000035  1
  O  O379  1  0.28311633  0.36111755  0.44116958  1
  O  O380  1  0.27471835  0.36098790  0.77207812  1
  O  O381  1  0.28740914  0.86708606  0.11396051  1
  O  O382  1  0.28108378  0.85608344  0.43838623  1
  O  O383  1  0.27808279  0.86339553  0.77626806  1
  O  O384  1  0.77108007  0.36324124  0.10985573  1
  O  O385  1  0.77696790  0.36291298  0.44494735  1
  O  O386  1  0.77590178  0.36345648  0.77774436  1
  O  O387  1  0.77115739  0.86130887  0.10806828  1
  O  O388  1  0.77334179  0.85817836  0.43665080  1
  O  O389  1  0.78619253  0.86289476  0.77518041  1
  O  O390  1  0.36287801  0.28136233  0.27692477  1
  O  O391  1  0.35913524  0.27471193  0.60846687  1
  O  O392  1  0.35453832  0.27715767  0.94716654  1
  O  O393  1  0.36385374  0.78467271  0.27934116  1
  O  O394  1  0.36350288  0.77369218  0.60457710  1
  O  O395  1  0.36856973  0.78200786  0.93985434  1
  O  O396  1  0.86388970  0.27606674  0.27737554  1
  O  O397  1  0.86301395  0.28938685  0.60332588  1
  O  O398  1  0.86398686  0.26374078  0.92791159  1
  O  O399  1  0.85767287  0.79267033  0.28075312  1
  O  O400  1  0.86844737  0.78660850  0.61210173  1
  O  O401  1  0.85901427  0.77152386  0.94565085  1
  O  O402  1  0.23038619  0.14569872  0.22693817  1
  O  O403  1  0.21691621  0.13302128  0.55795347  1
  O  O404  1  0.22299331  0.14005582  0.89152185  1
  O  O405  1  0.22266000  0.63351302  0.22092120  1
  O  O406  1  0.22083937  0.63736197  0.55626422  1
  O  O407  1  0.22894032  0.64210312  0.89413265  1
  O  O408  1  0.70817530  0.13788633  0.21986501  1
  O  O409  1  0.71589141  0.13130107  0.54704909  1
  O  O410  1  0.71551453  0.13909624  0.89396609  1
  O  O411  1  0.71588200  0.63929998  0.22311432  1
  O  O412  1  0.72815719  0.63818955  0.55982535  1
  O  O413  1  0.71709396  0.63374186  0.89035427  1
  O  O414  1  0.48768941  0.33323002  0.02906843  1
  O  O415  1  0.49200249  0.33665116  0.36701438  1
  O  O416  1  0.48846711  0.33403233  0.69905434  1
  O  O417  1  0.49859405  0.82908096  0.02752320  1
  O  O418  1  0.49787793  0.83360714  0.36235803  1
  O  O419  1  0.49498440  0.82687993  0.69226394  1
  O  O420  1  0.98935489  0.32758379  0.01907713  1
  O  O421  1  0.99420241  0.32959454  0.36776459  1
  O  O422  1  0.99273513  0.33225328  0.69689005  1
  O  O423  1  0.98464475  0.83322215  0.03945351  1
  O  O424  1  0.98887116  0.84357591  0.36860687  1
  O  O425  1  1.00005615  0.85105483  0.69403925  1
  O  O426  1  0.18136932  0.01385742  0.14027428  1
  O  O427  1  0.17146143  0.00255905  0.46858284  1
  O  O428  1  0.17522791  0.00819839  0.80327614  1
  O  O429  1  0.16650140  0.50632536  0.12984987  1
  O  O430  1  0.16152690  0.50433704  0.47422408  1
  O  O431  1  0.16696827  0.51368602  0.80381944  1
  O  O432  1  0.65921272  0.00520402  0.13475810  1
  O  O433  1  0.65072655  0.00237952  0.46333360  1
  O  O434  1  0.65830529  0.00612562  0.80969897  1
  O  O435  1  0.66412393  0.50865834  0.13300333  1
  O  O436  1  0.67272867  0.50798973  0.46988041  1
  O  O437  1  0.66187213  0.50390217  0.80137928  1
  O  O438  1  0.01218699  0.16523272  0.29481940  1
  O  O439  1  0.00295927  0.15984742  0.63855213  1
  O  O440  1  0.01034963  0.15832239  0.96330630  1
  O  O441  1  -0.00276805  0.67984556  0.31044465  1
  O  O442  1  0.01314528  0.67737476  0.64194582  1
  O  O443  1  0.01022706  0.67462163  0.96510016  1
  O  O444  1  0.50504105  0.16931414  0.30584155  1
  O  O445  1  0.50545680  0.17038993  0.64278879  1
  O  O446  1  0.50387140  0.16895352  0.97319136  1
  O  O447  1  0.50947907  0.66529035  0.30094166  1
  O  O448  1  0.50811183  0.66195815  0.63387941  1
  O  O449  1  0.51237648  0.66626441  0.97084676  1
  O  O450  1  0.33436433  0.49289202  0.19776610  1
  O  O451  1  0.33184815  0.49171041  0.52994349  1
  O  O452  1  0.32914217  0.49103966  0.86154874  1
  O  O453  1  0.34758786  0.99515615  0.20420338  1
  O  O454  1  0.33438359  0.98643636  0.52814176  1
  O  O455  1  0.34576231  0.99410822  0.85812100  1
  O  O456  1  0.82589907  0.49068731  0.20349658  1
  O  O457  1  0.83796582  0.49217576  0.53178439  1
  O  O458  1  0.83312466  0.49777644  0.85599618  1
  O  O459  1  0.82633981  0.99207931  0.19550975  1
  O  O460  1  0.81963307  0.99023030  0.52579715  1
  O  O461  1  0.82823818  0.99410386  0.86248724  1
