# generated using pymatgen
data_Na31Fe20(SO4)36
_symmetry_space_group_name_H-M   'P 1'
_cell_length_a   18.05989661
_cell_length_b   18.05948530
_cell_length_c   19.69146210
_cell_angle_alpha   107.58694292
_cell_angle_beta   107.58238187
_cell_angle_gamma   90.72624390
_symmetry_Int_Tables_number   1
_chemical_formula_structural   Na31Fe20(SO4)36
_chemical_formula_sum   'Na62 Fe40 S72 O288'
_cell_volume   5797.91427016
_cell_formula_units_Z   2
loop_
 _symmetry_equiv_pos_site_id
 _symmetry_equiv_pos_as_xyz
  1  'x, y, z'
loop_
 _atom_site_type_symbol
 _atom_site_label
 _atom_site_symmetry_multiplicity
 _atom_site_fract_x
 _atom_site_fract_y
 _atom_site_fract_z
 _atom_site_occupancy
  Na  Na0  1  0.13903024  0.36632305  0.08427859  1
  Na  Na1  1  0.12709546  0.35151556  0.40596697  1
  Na  Na2  1  0.15487820  0.37886242  0.76306817  1
  Na  Na3  1  0.12816208  0.87137838  0.08509692  1
  Na  Na4  1  0.13419413  0.86631286  0.41852433  1
  Na  Na5  1  0.13441921  0.86394965  0.75006603  1
  Na  Na6  1  0.63963073  0.36621083  0.08896185  1
  Na  Na7  1  0.63992625  0.35207777  0.40921350  1
  Na  Na8  1  0.63765815  0.36049625  0.74425542  1
  Na  Na9  1  0.63207121  0.87900288  0.08687452  1
  Na  Na10  1  0.62972215  0.86340375  0.41242245  1
  Na  Na11  1  0.62809372  0.87495524  0.75188893  1
  Na  Na12  1  0.37969995  0.13739104  0.26116074  1
  Na  Na13  1  0.36922746  0.13431988  0.58378659  1
  Na  Na14  1  0.37043723  0.13146309  0.91763757  1
  Na  Na15  1  0.35483108  0.63828114  0.24373458  1
  Na  Na16  1  0.35724970  0.63351531  0.57898821  1
  Na  Na17  1  0.36236010  0.63560550  0.91339194  1
  Na  Na18  1  0.86443375  0.14351752  0.27304471  1
  Na  Na19  1  0.84873570  0.14676484  0.58364908  1
  Na  Na20  1  0.87611912  0.13440886  0.92433694  1
  Na  Na21  1  0.86077577  0.63213506  0.24457143  1
  Na  Na22  1  0.86532860  0.63609049  0.58296526  1
  Na  Na23  1  0.86024892  0.63375869  0.91633339  1
  Na  Na24  1  0.50134714  0.01982874  0.39534309  1
  Na  Na25  1  0.50584146  0.47502808  0.42635470  1
  Na  Na26  1  1.00298015  0.48380953  0.42089038  1
  Na  Na27  1  0.48224540  0.53919509  0.75877689  1
  Na  Na28  1  0.98112448  0.04750518  0.20336752  1
  Na  Na29  1  0.98975040  0.51042600  0.08337986  1
  Na  Na30  1  0.45980182  0.50992974  0.07451538  1
  Na  Na31  1  0.98429978  0.00270388  0.76296161  1
  Na  Na32  1  1.01881790  0.49687080  0.74278256  1
  Na  Na33  1  0.50420001  0.98804173  0.58996887  1
  Na  Na34  1  0.50738965  0.48812889  0.25151153  1
  Na  Na35  1  0.00904666  0.47652674  0.25104418  1
  Na  Na36  1  0.01885322  0.49567743  0.91383597  1
  Na  Na37  1  0.49145065  0.51408567  0.92070099  1
  Na  Na38  1  0.03102411  0.47595077  0.58304786  1
  Na  Na39  1  0.50511029  0.45145371  0.57927664  1
  Na  Na40  1  -0.01395977  1.02157752  0.53762555  1
  Na  Na41  1  0.52825139  0.98053357  0.95322778  1
  Na  Na42  1  0.75882388  0.76582023  0.32493445  1
  Na  Na43  1  0.24173828  0.23962898  0.33547597  1
  Na  Na44  1  0.23849813  0.74095650  0.01551926  1
  Na  Na45  1  0.25755624  0.26143085  0.66568788  1
  Na  Na46  1  0.24807648  0.75028383  0.33626943  1
  Na  Na47  1  0.74424098  0.23392445  0.00987590  1
  Na  Na48  1  0.25275148  0.74771514  0.66009448  1
  Na  Na49  1  0.74009417  0.74941000  0.00310793  1
  Na  Na50  1  0.24883445  0.25224874  -0.00103556  1
  Na  Na51  1  0.73979356  0.74477912  0.66891126  1
  Na  Na52  1  0.74269974  0.23113082  0.17883043  1
  Na  Na53  1  0.76060129  0.77034147  0.16456994  1
  Na  Na54  1  0.74980105  0.75394320  0.49913731  1
  Na  Na55  1  0.26452781  0.26654453  0.83513100  1
  Na  Na56  1  0.75577933  0.25167583  0.82777454  1
  Na  Na57  1  0.24382194  0.24173072  0.17381334  1
  Na  Na58  1  0.77111041  0.25985870  0.48586971  1
  Na  Na59  1  0.73094131  0.73890061  0.83654870  1
  Na  Na60  1  0.24071961  0.73842931  0.83512955  1
  Na  Na61  1  0.25040099  0.24718088  0.49905019  1
  Fe  Fe62  1  0.96415323  0.81111455  0.12425917  1
  Fe  Fe63  1  0.46441982  0.30724386  0.11662445  1
  Fe  Fe64  1  0.96559863  0.80732346  0.45084522  1
  Fe  Fe65  1  0.97326720  0.29630419  0.11804062  1
  Fe  Fe66  1  0.96728583  0.30853068  0.78228738  1
  Fe  Fe67  1  0.46126548  0.80551051  0.45136351  1
  Fe  Fe68  1  0.46791623  0.30987608  0.79002636  1
  Fe  Fe69  1  0.46991332  0.79891335  0.78814333  1
  Fe  Fe70  1  0.46437526  0.80971267  0.11959786  1
  Fe  Fe71  1  0.96064285  0.80963014  0.78803754  1
  Fe  Fe72  1  0.19855331  0.53488155  0.04836526  1
  Fe  Fe73  1  0.69207601  0.03961785  0.71211348  1
  Fe  Fe74  1  0.19143024  0.53540977  0.38314160  1
  Fe  Fe75  1  0.69082638  0.53340436  0.04689102  1
  Fe  Fe76  1  0.19445730  0.03505408  0.71190727  1
  Fe  Fe77  1  0.19272436  0.03454637  0.04586373  1
  Fe  Fe78  1  0.69145296  0.53027230  0.71340433  1
  Fe  Fe79  1  0.69481100  0.53560250  0.38343377  1
  Fe  Fe80  1  0.18889868  0.03287855  0.37487098  1
  Fe  Fe81  1  0.69948710  0.02980653  0.37271231  1
  Fe  Fe82  1  0.03834291  0.19540858  0.87722642  1
  Fe  Fe83  1  0.03087689  0.19916487  0.53874803  1
  Fe  Fe84  1  0.53155746  0.69283543  0.21563774  1
  Fe  Fe85  1  0.02884438  0.69643793  0.88167224  1
  Fe  Fe86  1  0.53227289  0.19922878  0.54289874  1
  Fe  Fe87  1  0.53725880  0.18838462  0.88004371  1
  Fe  Fe88  1  0.03599391  0.69177939  0.54702844  1
  Fe  Fe89  1  0.53850965  0.18602112  0.21025285  1
  Fe  Fe90  1  0.03535280  0.69189773  0.21635976  1
  Fe  Fe91  1  0.52977829  0.68986613  0.54615375  1
  Fe  Fe92  1  0.81240391  0.46370521  0.61782090  1
  Fe  Fe93  1  0.30021598  0.46848687  0.62270892  1
  Fe  Fe94  1  0.31088216  0.46450344  0.28926190  1
  Fe  Fe95  1  0.80675412  0.46547120  0.28574111  1
  Fe  Fe96  1  0.30696970  0.96091300  0.28269777  1
  Fe  Fe97  1  0.80862804  0.46286790  0.94977194  1
  Fe  Fe98  1  0.31112293  0.96166071  0.95498790  1
  Fe  Fe99  1  0.31160153  0.96230408  0.62202094  1
  Fe  Fe100  1  0.80205221  0.96632315  0.61799771  1
  Fe  Fe101  1  0.80267863  0.97025438  0.95844262  1
  S  S102  1  0.35894000  0.14140459  0.08169402  1
  S  S103  1  0.36040262  0.13701989  0.41430141  1
  S  S104  1  0.36076930  0.14022261  0.75117600  1
  S  S105  1  0.36001302  0.64311157  0.08329740  1
  S  S106  1  0.35597450  0.63909704  0.41550226  1
  S  S107  1  0.35324268  0.64329493  0.74591554  1
  S  S108  1  0.86132207  0.14160220  0.08066167  1
  S  S109  1  0.86258811  0.13332031  0.42506318  1
  S  S110  1  0.86315588  0.14040296  0.74740166  1
  S  S111  1  0.85891117  0.63853682  0.08347026  1
  S  S112  1  0.85781310  0.64344850  0.41605498  1
  S  S113  1  0.85505737  0.64004990  0.75044500  1
  S  S114  1  0.14286506  0.36124736  0.24913622  1
  S  S115  1  0.14221497  0.35584211  0.58273556  1
  S  S116  1  0.14091528  0.36412398  0.91531574  1
  S  S117  1  0.14275898  0.85611214  0.25023610  1
  S  S118  1  0.13928091  0.86172486  0.58382362  1
  S  S119  1  0.13757061  0.86076565  0.91580322  1
  S  S120  1  0.63848370  0.36257917  0.24996303  1
  S  S121  1  0.64526495  0.35997732  0.57863767  1
  S  S122  1  0.64567423  0.35516661  0.91781914  1
  S  S123  1  0.63572343  0.85749005  0.25330889  1
  S  S124  1  0.63610736  0.85902258  0.58388539  1
  S  S125  1  0.64329106  0.85734620  0.91158726  1
  S  S126  1  0.07651741  0.17433325  0.03829428  1
  S  S127  1  0.06535394  0.16371470  0.37401625  1
  S  S128  1  0.07652397  0.17794833  0.70894077  1
  S  S129  1  0.06180393  0.66795109  0.04227647  1
  S  S130  1  0.06379876  0.66689833  0.37310626  1
  S  S131  1  0.05644876  0.67090803  0.70713770  1
  S  S132  1  0.56710739  0.17303859  0.04532419  1
  S  S133  1  0.57627048  0.16614980  0.37770594  1
  S  S134  1  0.56744651  0.17218051  0.70755105  1
  S  S135  1  0.56711098  0.66841625  0.04508896  1
  S  S136  1  0.56403859  0.66510146  0.37668585  1
  S  S137  1  0.56308570  0.66016013  0.70232477  1
  S  S138  1  0.33145014  0.43576857  0.12575390  1
  S  S139  1  0.32709884  0.43306155  0.45698499  1
  S  S140  1  0.34108051  0.43782823  0.79522121  1
  S  S141  1  0.32516272  0.93108989  0.12056930  1
  S  S142  1  0.33046342  0.93232563  0.45911857  1
  S  S143  1  0.32941548  0.92770752  0.78927897  1
  S  S144  1  0.83245399  0.43426097  0.12133553  1
  S  S145  1  0.83475905  0.44218808  0.46070610  1
  S  S146  1  0.83471583  0.43382797  0.79189561  1
  S  S147  1  0.83281159  0.93477678  0.12337334  1
  S  S148  1  0.82235359  0.92715093  0.45748903  1
  S  S149  1  0.82374169  0.93223466  0.78898881  1
  S  S150  1  0.43677406  0.33284158  0.28944786  1
  S  S151  1  0.43481723  0.33118605  0.62759304  1
  S  S152  1  0.44258961  0.33362310  0.95859365  1
  S  S153  1  0.42940387  0.82789766  0.29364251  1
  S  S154  1  0.43057040  0.82607576  0.62260696  1
  S  S155  1  0.43285208  0.83028071  0.95666774  1
  S  S156  1  0.93302492  0.33963599  0.28802744  1
  S  S157  1  0.94085120  0.33360604  0.62454678  1
  S  S158  1  0.93640577  0.33222825  0.95638028  1
  S  S159  1  0.93230918  0.82576403  0.28776515  1
  S  S160  1  0.93032383  0.83289798  0.62549918  1
  S  S161  1  0.92109020  0.82573628  0.95382800  1
  S  S162  1  0.17794576  0.06885395  0.21154884  1
  S  S163  1  0.17413260  0.07316140  0.54415663  1
  S  S164  1  0.17232001  0.06830509  0.87347970  1
  S  S165  1  0.16798287  0.56636209  0.20942421  1
  S  S166  1  0.16363757  0.56153163  0.54020223  1
  S  S167  1  0.16156165  0.57206872  0.87728823  1
  S  S168  1  0.67318672  0.06816068  0.21249156  1
  S  S169  1  0.66473261  0.06579492  0.53912824  1
  S  S170  1  0.67650374  0.07048655  0.87467271  1
  S  S171  1  0.66608306  0.56755033  0.21008915  1
  S  S172  1  0.66825767  0.56666667  0.54219034  1
  S  S173  1  0.66731574  0.55826458  0.87633438  1
  O  O174  1  0.36731780  0.21881365  0.06910273  1
  O  O175  1  0.36690059  0.21025750  0.39860767  1
  O  O176  1  0.36999676  0.22011409  0.74420268  1
  O  O177  1  0.36978072  0.72407974  0.07926997  1
  O  O178  1  0.36700949  0.71851476  0.40883061  1
  O  O179  1  0.37179397  0.72089377  0.73573623  1
  O  O180  1  0.88030705  0.21265142  0.05961420  1
  O  O181  1  0.86371082  0.21328357  0.42334398  1
  O  O182  1  0.87548526  0.21892774  0.74057839  1
  O  O183  1  0.86640552  0.71831633  0.07694140  1
  O  O184  1  0.86607330  0.72350299  0.40973316  1
  O  O185  1  0.86102138  0.71914747  0.74171080  1
  O  O186  1  0.27904028  0.13373106  0.08847276  1
  O  O187  1  0.28063369  0.12547656  0.42176530  1
  O  O188  1  0.28195443  0.13226031  0.76055375  1
  O  O189  1  0.28112126  0.63412315  0.09153858  1
  O  O190  1  0.27698878  0.63034833  0.42240491  1
  O  O191  1  0.27287103  0.64059785  0.74722898  1
  O  O192  1  0.78107886  0.14468484  0.08298408  1
  O  O193  1  0.78567375  0.11537332  0.43985547  1
  O  O194  1  0.78469045  0.13292470  0.75637463  1
  O  O195  1  0.78119316  0.62927109  0.09433756  1
  O  O196  1  0.78005756  0.63480915  0.42757970  1
  O  O197  1  0.77583422  0.62850848  0.75845905  1
  O  O198  1  0.13743552  0.28518590  0.25961312  1
  O  O199  1  0.13098300  0.27115333  0.58241204  1
  O  O200  1  0.13075750  0.28336188  0.92096988  1
  O  O201  1  0.13219741  0.77711739  0.25849876  1
  O  O202  1  0.12924218  0.78236627  0.59173218  1
  O  O203  1  0.12702528  0.78104741  0.92291340  1
  O  O204  1  0.62815755  0.28390110  0.25607871  1
  O  O205  1  0.63089221  0.28065114  0.58203594  1
  O  O206  1  0.63714301  0.27571801  0.92495000  1
  O  O207  1  0.61973593  0.78399485  0.27117908  1
  O  O208  1  0.62657329  0.78067103  0.59304571  1
  O  O209  1  0.64485209  0.77647441  0.91209690  1
  O  O210  1  0.22161955  0.37438909  0.23990613  1
  O  O211  1  0.22624072  0.36270943  0.58444883  1
  O  O212  1  0.21577727  0.37438534  0.90394696  1
  O  O213  1  0.22145401  0.86515218  0.24282199  1
  O  O214  1  0.21773265  0.87234074  0.57653508  1
  O  O215  1  0.21583699  0.86833475  0.90546473  1
  O  O216  1  0.71568596  0.37206786  0.23826155  1
  O  O217  1  0.72699281  0.36930461  0.57563610  1
  O  O218  1  0.72511163  0.36509799  0.91025930  1
  O  O219  1  0.71377894  0.85745797  0.24632993  1
  O  O220  1  0.71674088  0.86785125  0.57931776  1
  O  O221  1  0.72001436  0.87780213  0.89916120  1
  O  O222  1  0.41660185  0.13773675  0.15193841  1
  O  O223  1  0.41815466  0.13587814  0.48680057  1
  O  O224  1  0.41986438  0.13197406  0.81865025  1
  O  O225  1  0.41851069  0.63318343  0.15266713  1
  O  O226  1  0.41458679  0.62906283  0.48272343  1
  O  O227  1  0.40940766  0.63323545  0.81323122  1
  O  O228  1  0.91765582  0.13759341  0.14940520  1
  O  O229  1  0.92543778  0.12977070  0.49813627  1
  O  O230  1  0.92338641  0.12903331  0.81392200  1
  O  O231  1  0.92020390  0.62675392  0.14852960  1
  O  O232  1  0.91873025  0.63450934  0.48233077  1
  O  O233  1  0.91396870  0.63356539  0.81887141  1
  O  O234  1  0.36664357  0.08028124  0.01478939  1
  O  O235  1  0.37397162  0.07122949  0.35236261  1
  O  O236  1  0.36639216  0.08171698  0.68186380  1
  O  O237  1  0.37013326  0.58621296  0.01692621  1
  O  O238  1  0.36433226  0.58151696  0.34645898  1
  O  O239  1  0.36273172  0.58236229  0.67745421  1
  O  O240  1  0.86603268  0.07392050  0.01321917  1
  O  O241  1  0.87244862  0.07543009  0.36069874  1
  O  O242  1  0.86844091  0.08012834  0.67842349  1
  O  O243  1  0.86570073  0.58051910  0.01381368  1
  O  O244  1  0.86169086  0.58590648  0.34573210  1
  O  O245  1  0.86398771  0.58166982  0.68256831  1
  O  O246  1  0.08376595  0.36845335  0.17979799  1
  O  O247  1  0.09063986  0.36810883  0.51469321  1
  O  O248  1  0.07644298  0.37545481  0.85108754  1
  O  O249  1  0.08336994  0.86317762  0.18200361  1
  O  O250  1  0.07931866  0.86899708  0.51548604  1
  O  O251  1  0.07742616  0.86886611  0.84826361  1
  O  O252  1  0.57750397  0.37615022  0.18529257  1
  O  O253  1  0.58978137  0.37669415  0.51452175  1
  O  O254  1  0.58759324  0.36300492  0.84941809  1
  O  O255  1  0.57728335  0.86281240  0.18393703  1
  O  O256  1  0.57900333  0.86481865  0.51363079  1
  O  O257  1  0.58060955  0.86459440  0.84390413  1
  O  O258  1  0.13096291  0.42304024  0.31456516  1
  O  O259  1  0.12960562  0.40795466  0.65064593  1
  O  O260  1  0.13355916  0.42024479  0.98617459  1
  O  O261  1  0.13568146  0.91472387  0.31912487  1
  O  O262  1  0.13060980  0.92048333  0.65191774  1
  O  O263  1  0.13228326  0.91894416  0.98493390  1
  O  O264  1  0.63332939  0.42162313  0.32020325  1
  O  O265  1  0.63797066  0.41676278  0.65028168  1
  O  O266  1  0.63761802  0.41356797  0.98633495  1
  O  O267  1  0.62942587  0.92327132  0.31933382  1
  O  O268  1  0.62503219  0.92025719  0.64909695  1
  O  O269  1  0.63382491  0.91124506  0.97971639  1
  O  O270  1  0.04385708  0.20345983  0.10000984  1
  O  O271  1  0.03282434  0.18664522  0.43880395  1
  O  O272  1  0.03603919  0.20532837  0.76756477  1
  O  O273  1  0.02679439  0.70039678  0.10405900  1
  O  O274  1  0.03011655  0.69950878  0.43632252  1
  O  O275  1  0.01953784  0.70524759  0.76814540  1
  O  O276  1  0.52807418  0.20665481  0.10519105  1
  O  O277  1  0.53460701  0.17760281  0.43359692  1
  O  O278  1  0.52946584  0.19816301  0.76784166  1
  O  O279  1  0.53663140  0.70072017  0.11094655  1
  O  O280  1  0.52767517  0.69546184  0.43770279  1
  O  O281  1  0.53021531  0.69009565  0.76375106  1
  O  O282  1  0.30188620  0.47216266  0.06654863  1
  O  O283  1  0.29298837  0.46962448  0.39542516  1
  O  O284  1  0.31453252  0.46598988  0.72977662  1
  O  O285  1  0.29638592  0.97191479  0.06150387  1
  O  O286  1  0.30078570  0.96807194  0.39829627  1
  O  O287  1  0.30179829  0.96795962  0.72982568  1
  O  O288  1  0.79899467  0.47013813  0.05993686  1
  O  O289  1  0.79799713  0.47551885  0.39696200  1
  O  O290  1  0.80256421  0.46787265  0.72947721  1
  O  O291  1  0.80408369  0.95438339  0.05137174  1
  O  O292  1  0.78761823  0.95798166  0.39508382  1
  O  O293  1  0.79680525  0.97343989  0.73081285  1
  O  O294  1  0.46520292  0.30126844  0.22266578  1
  O  O295  1  0.47180054  0.30497971  0.56790674  1
  O  O296  1  0.47709010  0.29362764  0.89711990  1
  O  O297  1  0.46154119  0.79719765  0.23008345  1
  O  O298  1  0.46649632  0.79501560  0.56008280  1
  O  O299  1  0.46990419  0.80711326  0.89748098  1
  O  O300  1  0.96248941  0.32109442  0.22278876  1
  O  O301  1  0.97822167  0.30072338  0.56584127  1
  O  O302  1  0.97092901  0.30133495  0.89405043  1
  O  O303  1  0.97129821  0.78941475  0.22772048  1
  O  O304  1  0.96674332  0.80450156  0.56468759  1
  O  O305  1  0.96043563  0.79757998  0.89374099  1
  O  O306  1  0.20907425  0.02668253  0.26942238  1
  O  O307  1  0.20065879  0.03528509  0.60463135  1
  O  O308  1  0.19885385  0.03040896  0.93313415  1
  O  O309  1  0.19815516  0.53105331  0.27063780  1
  O  O310  1  0.19138556  0.52249788  0.59721678  1
  O  O311  1  0.18057650  0.54334127  0.94273680  1
  O  O312  1  0.70115715  0.03647191  0.27858224  1
  O  O313  1  0.69603872  0.02692781  0.59980479  1
  O  O314  1  0.70685607  0.03097690  0.93193304  1
  O  O315  1  0.69838973  0.53335774  0.27263060  1
  O  O316  1  0.70020689  0.53334398  0.60465245  1
  O  O317  1  0.70461532  0.52345116  0.93836523  1
  O  O318  1  0.09656585  0.09385863  0.03154915  1
  O  O319  1  0.08849783  0.08293483  0.36474772  1
  O  O320  1  0.09139340  0.09553704  0.70125676  1
  O  O321  1  0.07909338  0.58613459  0.04066049  1
  O  O322  1  0.08081490  0.58486604  0.36984218  1
  O  O323  1  0.06462861  0.58838167  0.69949074  1
  O  O324  1  0.58471789  0.09469475  0.04396501  1
  O  O325  1  0.60030338  0.08409732  0.36521588  1
  O  O326  1  0.58475365  0.08945565  0.69830126  1
  O  O327  1  0.58915026  0.58711499  0.04449152  1
  O  O328  1  0.58177724  0.58288983  0.37184212  1
  O  O329  1  0.57926570  0.57648946  0.69582586  1
  O  O330  1  0.41458699  0.41921346  0.12989887  1
  O  O331  1  0.40949717  0.42465993  0.46302403  1
  O  O332  1  0.42445425  0.41704355  0.80348579  1
  O  O333  1  0.40192954  0.90608709  0.11888243  1
  O  O334  1  0.41305918  0.91454161  0.46493208  1
  O  O335  1  0.40860598  0.90562060  0.79358812  1
  O  O336  1  0.91543357  0.42263375  0.12558598  1
  O  O337  1  0.91751637  0.43625281  0.46814361  1
  O  O338  1  0.91764574  0.41889868  0.79643965  1
  O  O339  1  0.91396024  0.91033951  0.13010479  1
  O  O340  1  0.90278747  0.90726525  0.45872466  1
  O  O341  1  0.90503250  0.91389035  0.79223455  1
  O  O342  1  0.41886817  0.41656579  0.29433629  1
  O  O343  1  0.41491893  0.41297772  0.63318160  1
  O  O344  1  0.43477727  0.41464151  0.95995710  1
  O  O345  1  0.41338396  0.91049968  0.30074089  1
  O  O346  1  0.41670568  0.90878198  0.62639122  1
  O  O347  1  0.41551120  0.91397738  0.96679753  1
  O  O348  1  0.91262961  0.42493376  0.29966818  1
  O  O349  1  0.92382766  0.41570146  0.62523920  1
  O  O350  1  0.92148692  0.41582033  0.96197287  1
  O  O351  1  0.91203976  0.90151635  0.28529192  1
  O  O352  1  0.91009283  0.91429134  0.63209731  1
  O  O353  1  0.89696436  0.90376805  0.95365924  1
  O  O354  1  0.10347056  0.09462337  0.21553123  1
  O  O355  1  0.09462942  0.09781094  0.54175493  1
  O  O356  1  0.09062858  0.08822126  0.86472785  1
  O  O357  1  0.08387518  0.57980475  0.20255153  1
  O  O358  1  0.08122076  0.58133910  0.53711943  1
  O  O359  1  0.07700370  0.59229482  0.86425600  1
  O  O360  1  0.59271713  0.09097620  0.20804986  1
  O  O361  1  0.58108279  0.07686550  0.53270392  1
  O  O362  1  0.59807730  0.09250505  0.87712371  1
  O  O363  1  0.58251941  0.58023928  0.20385340  1
  O  O364  1  0.58563760  0.58232927  0.53560364  1
  O  O365  1  0.58553884  0.56620674  0.87182275  1
  O  O366  1  0.14721092  0.22768630  0.05155764  1
  O  O367  1  0.13617818  0.21934657  0.39358943  1
  O  O368  1  0.14855473  0.23065395  0.72956819  1
  O  O369  1  0.13134937  0.71877798  0.05391670  1
  O  O370  1  0.13331954  0.71739028  0.38405129  1
  O  O371  1  0.13072392  0.71958225  0.72557400  1
  O  O372  1  0.63743705  0.22823396  0.06333351  1
  O  O373  1  0.64511749  0.22338999  0.40224253  1
  O  O374  1  0.63921550  0.22429584  0.72706045  1
  O  O375  1  0.63733432  0.72023500  0.05693002  1
  O  O376  1  0.63545366  0.71653814  0.39303780  1
  O  O377  1  0.63597878  0.70892628  0.71494233  1
  O  O378  1  0.28265724  0.36275345  0.11120464  1
  O  O379  1  0.27912377  0.35839854  0.43897249  1
  O  O380  1  0.28997331  0.36533152  0.78101425  1
  O  O381  1  0.26669874  0.86492378  0.10395966  1
  O  O382  1  0.27890487  0.86187648  0.44471499  1
  O  O383  1  0.27214735  0.85906853  0.77041382  1
  O  O384  1  0.78433135  0.36093683  0.10564472  1
  O  O385  1  0.78821845  0.36869928  0.44627729  1
  O  O386  1  0.78586178  0.36296314  0.78060371  1
  O  O387  1  0.77881311  0.86692017  0.11434705  1
  O  O388  1  0.77198932  0.85678714  0.44875261  1
  O  O389  1  0.77026746  0.86084889  0.76794419  1
  O  O390  1  0.36489508  0.28408699  0.27764600  1
  O  O391  1  0.36413832  0.27745699  0.61143184  1
  O  O392  1  0.36777144  0.28739277  0.94416002  1
  O  O393  1  0.35978045  0.77783115  0.28359864  1
  O  O394  1  0.35809004  0.77715151  0.60630770  1
  O  O395  1  0.36013208  0.77907803  0.93874277  1
  O  O396  1  0.86323776  0.28745228  0.27330681  1
  O  O397  1  0.86913315  0.28465847  0.61117129  1
  O  O398  1  0.86380583  0.28297010  0.94011478  1
  O  O399  1  0.86328633  0.76864885  0.27209315  1
  O  O400  1  0.85991889  0.77912656  0.60959616  1
  O  O401  1  0.85252514  0.76911442  0.93679212  1
  O  O402  1  0.23739147  0.13554645  0.22809102  1
  O  O403  1  0.23032005  0.14190674  0.56116333  1
  O  O404  1  0.22625696  0.13903486  0.89112040  1
  O  O405  1  0.21639327  0.63922480  0.22540661  1
  O  O406  1  0.21452246  0.63245452  0.55417655  1
  O  O407  1  0.21500333  0.64315239  0.89442940  1
  O  O408  1  0.72743372  0.13790995  0.22951499  1
  O  O409  1  0.71339299  0.13859442  0.55809049  1
  O  O410  1  0.73073729  0.13993891  0.88871510  1
  O  O411  1  0.71404172  0.64117083  0.22552057  1
  O  O412  1  0.71801735  0.63908039  0.55596078  1
  O  O413  1  0.71518418  0.63281042  0.89317153  1
  O  O414  1  0.49871469  0.33379543  0.03254289  1
  O  O415  1  0.50003015  0.33846457  0.35851060  1
  O  O416  1  0.49387104  0.33390152  0.70103606  1
  O  O417  1  0.49100181  0.82874701  0.02871506  1
  O  O418  1  0.49272804  0.83031581  0.36497212  1
  O  O419  1  0.49059373  0.82615335  0.69363470  1
  O  O420  1  0.99537359  0.33442929  0.02880098  1
  O  O421  1  0.99601189  0.34402876  0.35690670  1
  O  O422  1  0.99917432  0.34276722  0.70046835  1
  O  O423  1  0.98133845  0.82936267  0.02577215  1
  O  O424  1  0.99150930  0.82768186  0.36151439  1
  O  O425  1  0.98961528  0.83718728  0.69906185  1
  O  O426  1  0.17066517  0.01036780  0.13662522  1
  O  O427  1  0.16949520  0.01294023  0.47195727  1
  O  O428  1  0.17016361  0.00907419  0.80049084  1
  O  O429  1  0.16756444  0.50801398  0.13664623  1
  O  O430  1  0.15492407  0.50377733  0.46364099  1
  O  O431  1  0.16054060  0.51035867  0.80898141  1
  O  O432  1  0.66960556  0.00587064  0.14458696  1
  O  O433  1  0.66589744  0.00754942  0.46621968  1
  O  O434  1  0.66700639  0.01305583  0.79843685  1
  O  O435  1  0.66795502  0.50799684  0.13927042  1
  O  O436  1  0.66578936  0.50638614  0.46988101  1
  O  O437  1  0.67112100  0.50172810  0.80393567  1
  O  O438  1  0.00362914  0.16433400  0.30670117  1
  O  O439  1  0.01929354  0.17941130  0.63608676  1
  O  O440  1  0.01538666  0.17220140  0.96563579  1
  O  O441  1  0.00139873  0.66061544  0.30074990  1
  O  O442  1  0.00091643  0.67603417  0.63466931  1
  O  O443  1  0.00064710  0.66152754  0.96880923  1
  O  O444  1  0.51841613  0.16940581  0.30657399  1
  O  O445  1  0.50950557  0.17258479  0.63516698  1
  O  O446  1  0.50895080  0.17158737  0.97159069  1
  O  O447  1  0.50454504  0.66177849  0.30391199  1
  O  O448  1  0.50341433  0.65821738  0.62941110  1
  O  O449  1  0.50397969  0.65864623  0.97513231  1
  O  O450  1  0.33573128  0.49377113  0.20017624  1
  O  O451  1  0.32254475  0.48956005  0.52873808  1
  O  O452  1  0.34406763  0.49957047  0.86417637  1
  O  O453  1  0.33396303  0.99017035  0.19509534  1
  O  O454  1  0.33540432  0.99214969  0.53303908  1
  O  O455  1  0.33151072  0.98694659  0.86227008  1
  O  O456  1  0.83179538  0.49279469  0.19357201  1
  O  O457  1  0.82952662  0.50139002  0.53170597  1
  O  O458  1  0.83867119  0.49526465  0.86451115  1
  O  O459  1  0.83993572  1.00368926  0.18716493  1
  O  O460  1  0.83136058  0.98964830  0.53091977  1
  O  O461  1  0.82599794  0.98820830  0.86307646  1
