# generated using pymatgen
data_Na31Fe20(SO4)36
_symmetry_space_group_name_H-M   'P 1'
_cell_length_a   18.07342443
_cell_length_b   18.07323997
_cell_length_c   19.71435183
_cell_angle_alpha   107.59743689
_cell_angle_beta   107.60203904
_cell_angle_gamma   90.72538653
_symmetry_Int_Tables_number   1
_chemical_formula_structural   Na31Fe20(SO4)36
_chemical_formula_sum   'Na62 Fe40 S72 O288'
_cell_volume   5812.34201192
_cell_formula_units_Z   2
loop_
 _symmetry_equiv_pos_site_id
 _symmetry_equiv_pos_as_xyz
  1  'x, y, z'
loop_
 _atom_site_type_symbol
 _atom_site_label
 _atom_site_symmetry_multiplicity
 _atom_site_fract_x
 _atom_site_fract_y
 _atom_site_fract_z
 _atom_site_occupancy
  Na  Na0  1  0.13612203  0.36291610  0.08237110  1
  Na  Na1  1  0.13291152  0.35322947  0.40963602  1
  Na  Na2  1  0.13720793  0.37105587  0.75743160  1
  Na  Na3  1  0.12734808  0.86236295  0.07456027  1
  Na  Na4  1  0.13137779  0.86281204  0.41337238  1
  Na  Na5  1  0.13524095  0.87578991  0.75745193  1
  Na  Na6  1  0.63487820  0.36613725  0.08695295  1
  Na  Na7  1  0.63701669  0.36934806  0.41654237  1
  Na  Na8  1  0.63833747  0.36131487  0.74824846  1
  Na  Na9  1  0.63299102  0.86478396  0.08579663  1
  Na  Na10  1  0.63867043  0.86311941  0.41277156  1
  Na  Na11  1  0.63487540  0.86168904  0.74834410  1
  Na  Na12  1  0.37159698  0.13304243  0.24960240  1
  Na  Na13  1  0.35908418  0.13674329  0.57704851  1
  Na  Na14  1  0.37313091  0.14577579  0.92765495  1
  Na  Na15  1  0.36550665  0.62984671  0.24532649  1
  Na  Na16  1  0.37005004  0.64259726  0.59480689  1
  Na  Na17  1  0.36475422  0.62935569  0.92129922  1
  Na  Na18  1  0.86409853  0.14843682  0.26011513  1
  Na  Na19  1  0.86271355  0.13988149  0.58415841  1
  Na  Na20  1  0.87352483  0.11898991  0.91178868  1
  Na  Na21  1  0.85390533  0.63009782  0.24246985  1
  Na  Na22  1  0.85675370  0.63269756  0.57917318  1
  Na  Na23  1  0.86733389  0.63401531  0.91851362  1
  Na  Na24  1  0.99181865  0.00883813  0.41252477  1
  Na  Na25  1  0.98509409  0.50982197  0.42337683  1
  Na  Na26  1  0.96365350  0.51948763  0.75216353  1
  Na  Na27  1  0.48306074  0.01077896  0.09794376  1
  Na  Na28  1  0.98403529  0.50811082  0.08277855  1
  Na  Na29  1  0.51462811  -0.01078936  0.74961657  1
  Na  Na30  1  0.49071488  0.51762052  0.74692635  1
  Na  Na31  1  0.47889112  0.49616593  0.08577834  1
  Na  Na32  1  0.49635793  0.01280617  0.39830615  1
  Na  Na33  1  0.54780303  0.48785609  0.93824348  1
  Na  Na34  1  0.53721399  0.99047696  0.58769532  1
  Na  Na35  1  -0.01232356  0.99991006  0.61260074  1
  Na  Na36  1  -0.01615661  1.04052402  0.19142375  1
  Na  Na37  1  0.50896612  0.95932449  0.90937277  1
  Na  Na38  1  0.52242325  0.49198361  0.56033906  1
  Na  Na39  1  0.02180001  0.50329123  0.91716093  1
  Na  Na40  1  -0.01602800  0.50612743  0.59414637  1
  Na  Na41  1  0.01417580  0.47780742  0.25365291  1
  Na  Na42  1  0.25485623  0.75707702  0.67255798  1
  Na  Na43  1  0.74246889  0.73817423  0.00609614  1
  Na  Na44  1  0.23346260  0.73390284  0.01336493  1
  Na  Na45  1  0.75448814  0.25492037  0.66095373  1
  Na  Na46  1  0.74804661  0.23974553  0.00325062  1
  Na  Na47  1  0.23707797  0.23653662  0.33873261  1
  Na  Na48  1  0.74915197  0.74657566  0.66580132  1
  Na  Na49  1  0.25848393  0.75778472  0.31658133  1
  Na  Na50  1  0.25767647  0.26117340  0.65551544  1
  Na  Na51  1  0.27872743  0.27916330  -0.00032583  1
  Na  Na52  1  0.25711772  0.75990968  0.49735185  1
  Na  Na53  1  0.73507033  0.73560827  0.17808487  1
  Na  Na54  1  0.25842311  0.25685740  0.16550909  1
  Na  Na55  1  0.26337820  0.26975649  0.83124608  1
  Na  Na56  1  0.75198870  0.74626700  0.83251301  1
  Na  Na57  1  0.75494723  0.75590367  0.48997026  1
  Na  Na58  1  0.23767860  0.73984876  0.84458319  1
  Na  Na59  1  0.74009631  0.24301676  0.17628515  1
  Na  Na60  1  0.76410492  0.26744978  0.48702271  1
  Na  Na61  1  0.74074206  0.22819482  0.83348868  1
  Fe  Fe62  1  0.46708151  0.31098722  0.78589206  1
  Fe  Fe63  1  0.46082004  0.80999649  0.11985373  1
  Fe  Fe64  1  0.96740559  0.80584563  0.12075908  1
  Fe  Fe65  1  0.96162563  0.80975061  0.45477442  1
  Fe  Fe66  1  0.96310653  0.30870673  0.78680612  1
  Fe  Fe67  1  0.96464505  0.30713962  0.45103758  1
  Fe  Fe68  1  0.46471343  0.80753976  0.44981182  1
  Fe  Fe69  1  0.97148980  0.29864601  0.12189312  1
  Fe  Fe70  1  0.96974060  0.80250700  0.79612322  1
  Fe  Fe71  1  0.46174792  0.30428959  0.45041262  1
  Fe  Fe72  1  0.19107843  0.03816533  0.04745742  1
  Fe  Fe73  1  0.69300889  0.03169012  0.04661534  1
  Fe  Fe74  1  0.68956404  0.03833793  0.37711681  1
  Fe  Fe75  1  0.68497307  0.53450193  0.37281957  1
  Fe  Fe76  1  0.19428468  0.53484569  0.38359453  1
  Fe  Fe77  1  0.18730521  0.03548939  0.37782351  1
  Fe  Fe78  1  0.69930887  0.53024780  0.70643241  1
  Fe  Fe79  1  0.19727943  0.53448971  0.04914521  1
  Fe  Fe80  1  0.19417367  0.03916694  0.71596815  1
  Fe  Fe81  1  0.19317467  0.53297297  0.71756907  1
  Fe  Fe82  1  0.53244812  0.69125008  0.54260129  1
  Fe  Fe83  1  0.03410788  0.69586575  0.54971338  1
  Fe  Fe84  1  0.03649200  0.19342226  0.54838240  1
  Fe  Fe85  1  0.53379243  0.20291902  0.21197218  1
  Fe  Fe86  1  0.03535148  0.69095427  0.21623326  1
  Fe  Fe87  1  0.53514567  0.18903072  0.87797546  1
  Fe  Fe88  1  0.53712453  0.69003098  0.21164398  1
  Fe  Fe89  1  0.52931243  0.69990273  0.87770276  1
  Fe  Fe90  1  0.53275145  0.19087945  0.54750225  1
  Fe  Fe91  1  0.03520530  0.19237147  0.88158396  1
  Fe  Fe92  1  0.80143795  0.96892447  0.62747075  1
  Fe  Fe93  1  0.80444486  0.46490960  0.28306726  1
  Fe  Fe94  1  0.30641148  0.96843547  0.94864100  1
  Fe  Fe95  1  0.31503120  0.46546822  0.29076349  1
  Fe  Fe96  1  0.79897655  0.46769889  0.95621815  1
  Fe  Fe97  1  0.30400705  0.96102717  0.28060674  1
  Fe  Fe98  1  0.81023317  0.96392884  0.95500418  1
  Fe  Fe99  1  0.80323558  0.96393668  0.28507195  1
  Fe  Fe100  1  0.30648480  0.46317561  0.61859877  1
  Fe  Fe101  1  0.30995400  0.96772179  0.62106465  1
  S  S102  1  0.36120823  0.13975411  0.08327012  1
  S  S103  1  0.35942748  0.13594952  0.41483016  1
  S  S104  1  0.35687593  0.14499448  0.74824445  1
  S  S105  1  0.36072431  0.64213920  0.08384703  1
  S  S106  1  0.35536233  0.64408049  0.41847594  1
  S  S107  1  0.35770456  0.63996522  0.74988173  1
  S  S108  1  0.85672192  0.13838460  0.08472672  1
  S  S109  1  0.86047103  0.13825314  0.41817587  1
  S  S110  1  0.86234380  0.14092225  0.74682493  1
  S  S111  1  0.85998353  0.64131779  0.08576891  1
  S  S112  1  0.85970742  0.63994891  0.41677694  1
  S  S113  1  0.85917367  0.64193922  0.74744281  1
  S  S114  1  0.14441085  0.36098989  0.25302227  1
  S  S115  1  0.13904124  0.36070045  0.58228753  1
  S  S116  1  0.13565363  0.36073978  0.91899761  1
  S  S117  1  0.13941430  0.85827098  0.25264763  1
  S  S118  1  0.13873209  0.86191242  0.58487850  1
  S  S119  1  0.14434554  0.86264295  0.91592793  1
  S  S120  1  0.64123751  0.35984404  0.24706366  1
  S  S121  1  0.63937578  0.35496367  0.58270865  1
  S  S122  1  0.64575092  0.35090829  0.91185396  1
  S  S123  1  0.63736881  0.86173543  0.24912437  1
  S  S124  1  0.63913586  0.85679380  0.58161822  1
  S  S125  1  0.64439009  0.85666832  0.91715512  1
  S  S126  1  0.06996265  0.17183123  0.04399794  1
  S  S127  1  0.06133707  0.16410396  0.37551635  1
  S  S128  1  0.07049607  0.17420371  0.71042395  1
  S  S129  1  0.06362828  0.66360764  0.04433047  1
  S  S130  1  0.06544597  0.66901203  0.37851521  1
  S  S131  1  0.06723851  0.67234533  0.70910241  1
  S  S132  1  0.56783930  0.15958723  0.03672780  1
  S  S133  1  0.56797297  0.17358963  0.37706964  1
  S  S134  1  0.55890870  0.16478452  0.70728736  1
  S  S135  1  0.56318791  0.67391294  0.04347174  1
  S  S136  1  0.56586442  0.67401545  0.37647185  1
  S  S137  1  0.56782480  0.66276589  0.70457967  1
  S  S138  1  0.32884879  0.43579433  0.12768043  1
  S  S139  1  0.32870061  0.43323066  0.45846245  1
  S  S140  1  0.33412078  0.43630004  0.79018654  1
  S  S141  1  0.32595682  0.93205200  0.12107746  1
  S  S142  1  0.32914691  0.93330492  0.45699116  1
  S  S143  1  0.33601960  0.94407301  0.78970282  1
  S  S144  1  0.83572780  0.42849313  0.12424324  1
  S  S145  1  0.83628809  0.43782485  0.45774503  1
  S  S146  1  0.83057736  0.43476407  0.79409749  1
  S  S147  1  0.82807576  0.92986564  0.12470702  1
  S  S148  1  0.83166806  0.93489137  0.46201543  1
  S  S149  1  0.83031395  0.92316231  0.79072891  1
  S  S150  1  0.43341730  0.32862410  0.29475103  1
  S  S151  1  0.43261377  0.33073132  0.62372443  1
  S  S152  1  0.44840213  0.33477396  0.95542795  1
  S  S153  1  0.43278198  0.83080505  0.29202454  1
  S  S154  1  0.43624755  0.83474843  0.62280140  1
  S  S155  1  0.43253019  0.83344909  0.95878982  1
  S  S156  1  0.93444433  0.33529899  0.29121275  1
  S  S157  1  0.93824319  0.33267163  0.62496693  1
  S  S158  1  0.92739360  0.32778488  0.95853442  1
  S  S159  1  0.92945712  0.82917729  0.29145944  1
  S  S160  1  0.92928018  0.82684109  0.62627947  1
  S  S161  1  0.93106801  0.82694233  0.95895045  1
  S  S162  1  0.17737395  0.06686455  0.21317739  1
  S  S163  1  0.16805391  0.06537935  0.54282106  1
  S  S164  1  0.17762874  0.07782578  0.87935788  1
  S  S165  1  0.16562299  0.56490165  0.21151787  1
  S  S166  1  0.16957538  0.56908365  0.54490737  1
  S  S167  1  0.16047394  0.56444675  0.87316402  1
  S  S168  1  0.66986399  0.06975401  0.20838589  1
  S  S169  1  0.66868417  0.06554683  0.53949797  1
  S  S170  1  0.67124087  0.05953763  0.87403506  1
  S  S171  1  0.66573153  0.56285059  0.20506306  1
  S  S172  1  0.66686192  0.56692497  0.53769239  1
  S  S173  1  0.66804115  0.56654889  0.87086796  1
  O  O174  1  0.36745472  0.21406251  0.06970466  1
  O  O175  1  0.36695998  0.21468143  0.40640606  1
  O  O176  1  0.36693376  0.22468441  0.74172164  1
  O  O177  1  0.36784675  0.72184377  0.07453696  1
  O  O178  1  0.36231607  0.72421602  0.41163178  1
  O  O179  1  0.36524333  0.71373681  0.73567292  1
  O  O180  1  0.86957893  0.21826448  0.07950684  1
  O  O181  1  0.87026420  0.21693525  0.41062931  1
  O  O182  1  0.87456301  0.21808035  0.73314444  1
  O  O183  1  0.87384823  0.71867630  0.07491703  1
  O  O184  1  0.87016089  0.72107290  0.41496117  1
  O  O185  1  0.87074080  0.72532370  0.74708674  1
  O  O186  1  0.28437654  0.12832798  0.09560735  1
  O  O187  1  0.28063489  0.12462854  0.42136296  1
  O  O188  1  0.27754826  0.13829314  0.75631745  1
  O  O189  1  0.28139105  0.63368621  0.09120993  1
  O  O190  1  0.27651347  0.63395325  0.42744233  1
  O  O191  1  0.27885817  0.62874321  0.75902879  1
  O  O192  1  0.77333892  0.13135313  0.08523707  1
  O  O193  1  0.78242838  0.13012792  0.42841619  1
  O  O194  1  0.78475183  0.13358143  0.75318191  1
  O  O195  1  0.78340837  0.63655236  0.09525002  1
  O  O196  1  0.78228985  0.62904463  0.42663487  1
  O  O197  1  0.77376875  0.63307873  0.74148070  1
  O  O198  1  0.13789688  0.28560516  0.26414183  1
  O  O199  1  0.13097551  0.28204683  0.59158972  1
  O  O200  1  0.12261488  0.28386953  0.93064663  1
  O  O201  1  0.12666946  0.78162903  0.26526991  1
  O  O202  1  0.13166106  0.78343753  0.59482948  1
  O  O203  1  0.14604563  0.78709207  0.92849054  1
  O  O204  1  0.63446134  0.27901085  0.25298410  1
  O  O205  1  0.62392280  0.27791237  0.59461379  1
  O  O206  1  0.63895786  0.26714199  0.91029702  1
  O  O207  1  0.62860435  0.78260903  0.25604846  1
  O  O208  1  0.62965353  0.77526621  0.58492830  1
  O  O209  1  0.63235836  0.77624776  0.92244550  1
  O  O210  1  0.22303898  0.37530172  0.24554181  1
  O  O211  1  0.21830332  0.37043012  0.57598205  1
  O  O212  1  0.21241852  0.36552375  0.90945529  1
  O  O213  1  0.22018241  0.86297813  0.24895543  1
  O  O214  1  0.21812863  0.87183597  0.57766337  1
  O  O215  1  0.21848259  0.87864999  0.89882791  1
  O  O216  1  0.72188211  0.36928054  0.23946095  1
  O  O217  1  0.71479479  0.35674896  0.57073666  1
  O  O218  1  0.72374936  0.36310374  0.90221647  1
  O  O219  1  0.71576774  0.87014431  0.23843006  1
  O  O220  1  0.71914356  0.86669812  0.57532007  1
  O  O221  1  0.72596543  0.86410414  0.91446863  1
  O  O222  1  0.42286034  0.13370150  0.15189847  1
  O  O223  1  0.41879316  0.12943955  0.48388047  1
  O  O224  1  0.41499807  0.13388831  0.81485875  1
  O  O225  1  0.41945848  0.64013238  0.15579788  1
  O  O226  1  0.41411219  0.63739573  0.48706233  1
  O  O227  1  0.41711435  0.63546827  0.82004024  1
  O  O228  1  0.90862324  0.12873200  0.15346498  1
  O  O229  1  0.92072793  0.12807621  0.48496130  1
  O  O230  1  0.92245157  0.13725533  0.81634334  1
  O  O231  1  0.92142772  0.63219516  0.15326352  1
  O  O232  1  0.92131066  0.62764445  0.48220987  1
  O  O233  1  0.90748178  0.63082475  0.81712587  1
  O  O234  1  0.37092521  0.07537150  0.01814458  1
  O  O235  1  0.37207191  0.07659025  0.34892212  1
  O  O236  1  0.36245927  0.08709527  0.67835659  1
  O  O237  1  0.37319776  0.58250082  0.02079095  1
  O  O238  1  0.36254758  0.58696458  0.34992656  1
  O  O239  1  0.36850571  0.57532336  0.68533560  1
  O  O240  1  0.86511026  0.08066284  0.01598609  1
  O  O241  1  0.86663786  0.07801612  0.34966164  1
  O  O242  1  0.87229449  0.07919755  0.68039533  1
  O  O243  1  0.86726306  0.57948706  0.01839976  1
  O  O244  1  0.86690864  0.58391324  0.34663992  1
  O  O245  1  0.87544544  0.58865475  0.68202275  1
  O  O246  1  0.08484096  0.36812478  0.18389997  1
  O  O247  1  0.08085324  0.36715765  0.51314174  1
  O  O248  1  0.07461739  0.36881974  0.85069706  1
  O  O249  1  0.08352618  0.86388436  0.18228684  1
  O  O250  1  0.07976099  0.86604441  0.51495383  1
  O  O251  1  0.08020025  0.86310153  0.84695714  1
  O  O252  1  0.58302649  0.36952212  0.18252829  1
  O  O253  1  0.57656270  0.36588799  0.51773878  1
  O  O254  1  0.58603366  0.36406272  0.84577272  1
  O  O255  1  0.57744516  0.87219735  0.18321004  1
  O  O256  1  0.58177373  0.86591266  0.51200966  1
  O  O257  1  0.58830908  0.86834122  0.85122058  1
  O  O258  1  0.13242499  0.42336770  0.31919403  1
  O  O259  1  0.12859012  0.41986502  0.64934408  1
  O  O260  1  0.12620651  0.42236580  0.98533625  1
  O  O261  1  0.12965139  0.91985175  0.31865415  1
  O  O262  1  0.12801398  0.92192026  0.65107855  1
  O  O263  1  0.13615270  0.92408985  0.98206015  1
  O  O264  1  0.63926468  0.41580109  0.31974320  1
  O  O265  1  0.63653361  0.41630266  0.65223068  1
  O  O266  1  0.63873760  0.40349711  0.98142193  1
  O  O267  1  0.63411212  0.92072815  0.31919274  1
  O  O268  1  0.62816407  0.91326154  0.64761867  1
  O  O269  1  0.63612112  0.91368777  0.98717906  1
  O  O270  1  0.03115678  0.19962167  0.10176648  1
  O  O271  1  0.03078799  0.20155582  0.44107500  1
  O  O272  1  0.03579595  0.20413906  0.77186947  1
  O  O273  1  0.03390425  0.69906824  0.11060065  1
  O  O274  1  0.02999299  0.70084203  0.44001909  1
  O  O275  1  0.03023836  0.70189903  0.76776835  1
  O  O276  1  0.53514807  0.18173667  0.09863292  1
  O  O277  1  0.52763647  0.19892286  0.43628653  1
  O  O278  1  0.52360460  0.20319097  0.76790610  1
  O  O279  1  0.52782764  0.71050941  0.10521038  1
  O  O280  1  0.52299157  0.70122292  0.43373348  1
  O  O281  1  0.53208127  0.68024527  0.76476081  1
  O  O282  1  0.28938713  0.47161291  0.06914900  1
  O  O283  1  0.30232408  0.47327229  0.39958924  1
  O  O284  1  0.29704747  0.46592981  0.72386892  1
  O  O285  1  0.29641957  0.96861185  0.06028858  1
  O  O286  1  0.29899900  0.96747995  0.39498336  1
  O  O287  1  0.29650370  0.97837702  0.72729968  1
  O  O288  1  0.81140576  0.46414444  0.06417847  1
  O  O289  1  0.80661832  0.46885224  0.39263158  1
  O  O290  1  0.80478625  0.47351848  0.73614113  1
  O  O291  1  0.79918563  0.96820056  0.06504748  1
  O  O292  1  0.80182647  0.96911686  0.39953935  1
  O  O293  1  0.80987567  0.96040521  0.73162504  1
  O  O294  1  0.46970876  0.29955916  0.23560166  1
  O  O295  1  0.46390646  0.29731012  0.55950183  1
  O  O296  1  0.47765128  0.29233045  0.88895886  1
  O  O297  1  0.46888725  0.80341257  0.23139402  1
  O  O298  1  0.46684076  0.80123239  0.55720706  1
  O  O299  1  0.47072352  0.80551002  0.90051889  1
  O  O300  1  0.97144250  0.31379644  0.23216504  1
  O  O301  1  0.97239635  0.29643069  0.56235622  1
  O  O302  1  0.96115557  0.30014114  0.89539636  1
  O  O303  1  0.96782063  0.80241917  0.23184986  1
  O  O304  1  0.96917233  0.79970490  0.56655444  1
  O  O305  1  0.97104255  0.80498805  0.90140839  1
  O  O306  1  0.20699189  0.02409293  0.27150037  1
  O  O307  1  0.19877205  0.02963021  0.60426157  1
  O  O308  1  0.20681998  0.04078874  0.94002179  1
  O  O309  1  0.19730713  0.53341269  0.27563159  1
  O  O310  1  0.19861999  0.53307049  0.60581481  1
  O  O311  1  0.18638293  0.53379526  0.93699925  1
  O  O312  1  0.69986874  0.03346911  0.27038198  1
  O  O313  1  0.69612459  0.02721479  0.59734219  1
  O  O314  1  0.70111891  0.02567282  0.93795258  1
  O  O315  1  0.69946417  0.53334818  0.27243268  1
  O  O316  1  0.68728003  0.52640041  0.59436953  1
  O  O317  1  0.69446447  0.52737675  0.92879048  1
  O  O318  1  0.09190321  0.09236526  0.04091319  1
  O  O319  1  0.08348844  0.08516633  0.38119831  1
  O  O320  1  0.09000487  0.09288638  0.70569239  1
  O  O321  1  0.09106343  0.58611351  0.05026477  1
  O  O322  1  0.08111517  0.58650549  0.37410876  1
  O  O323  1  0.08655917  0.59068892  0.70424798  1
  O  O324  1  0.58423749  0.07513284  0.02275633  1
  O  O325  1  0.58537331  0.09145489  0.37194863  1
  O  O326  1  0.56723650  0.08343665  0.70515500  1
  O  O327  1  0.57409346  0.59348652  0.04150605  1
  O  O328  1  0.58621033  0.59480216  0.37318369  1
  O  O329  1  0.58601227  0.57914306  0.68797087  1
  O  O330  1  0.40658704  0.42061212  0.12425312  1
  O  O331  1  0.40982782  0.41325398  0.46533357  1
  O  O332  1  0.41413579  0.41597899  0.78654412  1
  O  O333  1  0.40740013  0.91426424  0.12396774  1
  O  O334  1  0.41163020  0.91688377  0.46377964  1
  O  O335  1  0.41686025  0.93538469  0.79038425  1
  O  O336  1  0.91969486  0.41215272  0.13517309  1
  O  O337  1  0.91864208  0.41583701  0.46100139  1
  O  O338  1  0.91488764  0.41975312  0.80276060  1
  O  O339  1  0.90956485  0.91183488  0.13042292  1
  O  O340  1  0.91583163  0.92065061  0.46948603  1
  O  O341  1  0.90990538  0.89820098  0.80037404  1
  O  O342  1  0.41293355  0.40872273  0.29989598  1
  O  O343  1  0.41673242  0.41304364  0.62823931  1
  O  O344  1  0.44362415  0.41634482  0.95563969  1
  O  O345  1  0.40875079  0.91058171  0.29524367  1
  O  O346  1  0.41602373  0.91623241  0.62382143  1
  O  O347  1  0.41511270  0.91641195  0.96324971  1
  O  O348  1  0.91875755  0.42003158  0.30443045  1
  O  O349  1  0.92993025  0.41491491  0.63140666  1
  O  O350  1  0.90851328  0.40966436  0.96566957  1
  O  O351  1  0.90966391  0.91080480  0.29845929  1
  O  O352  1  0.90898052  0.90703089  0.62907900  1
  O  O353  1  0.90948432  0.90742443  0.96996527  1
  O  O354  1  0.10326680  0.09310035  0.21846870  1
  O  O355  1  0.08565576  0.08215366  0.53783289  1
  O  O356  1  0.09755484  0.09646499  0.87371881  1
  O  O357  1  0.08155999  0.57893396  0.20604508  1
  O  O358  1  0.08699519  0.58616421  0.53798316  1
  O  O359  1  0.07633850  0.57323256  0.85580440  1
  O  O360  1  0.59053469  0.09196141  0.20565918  1
  O  O361  1  0.58477785  0.08143198  0.53241748  1
  O  O362  1  0.59213437  0.08593001  0.87370988  1
  O  O363  1  0.58546313  0.58553796  0.20393505  1
  O  O364  1  0.58412359  0.58617928  0.52686209  1
  O  O365  1  0.58656875  0.58702544  0.86742664  1
  O  O366  1  0.14016693  0.22611908  0.06016130  1
  O  O367  1  0.13029558  0.21396808  0.38396963  1
  O  O368  1  0.13998612  0.22677491  0.72308142  1
  O  O369  1  0.12800066  0.71790931  0.05060397  1
  O  O370  1  0.13754128  0.71939357  0.39420078  1
  O  O371  1  0.13816208  0.72465374  0.72333745  1
  O  O372  1  0.63959602  0.21173496  0.05324639  1
  O  O373  1  0.63942522  0.22611212  0.39795963  1
  O  O374  1  0.63343192  0.21135823  0.72194202  1
  O  O375  1  0.63744721  0.72332308  0.06099663  1
  O  O376  1  0.63561428  0.72968085  0.39758461  1
  O  O377  1  0.63840034  0.71759320  0.72446694  1
  O  O378  1  0.27904487  0.36297345  0.11532430  1
  O  O379  1  0.27432818  0.36351676  0.43956299  1
  O  O380  1  0.28351850  0.36409636  0.77652121  1
  O  O381  1  0.27410782  0.86199519  0.10691950  1
  O  O382  1  0.27772162  0.86106754  0.44102023  1
  O  O383  1  0.28864286  0.87022783  0.77461149  1
  O  O384  1  0.78416495  0.35703910  0.10819425  1
  O  O385  1  0.78458880  0.36890528  0.44619653  1
  O  O386  1  0.78135828  0.36009214  0.77348330  1
  O  O387  1  0.77530399  0.85917970  0.10805660  1
  O  O388  1  0.78264948  0.86287306  0.44707827  1
  O  O389  1  0.77202791  0.85516296  0.77247425  1
  O  O390  1  0.36287124  0.27534399  0.28087422  1
  O  O391  1  0.36207031  0.28126770  0.61253335  1
  O  O392  1  0.37036492  0.29186673  0.93838971  1
  O  O393  1  0.36682662  0.77540872  0.28100159  1
  O  O394  1  0.36436708  0.78429019  0.60964607  1
  O  O395  1  0.36075569  0.78274829  0.94334373  1
  O  O396  1  0.86248097  0.28424870  0.27301191  1
  O  O397  1  0.86320344  0.28490518  0.60714678  1
  O  O398  1  0.85819686  0.27366027  0.94389662  1
  O  O399  1  0.86034990  0.77509949  0.27489409  1
  O  O400  1  0.85823651  0.77228557  0.60538192  1
  O  O401  1  0.86156894  0.77047282  0.93914655  1
  O  O402  1  0.23654490  0.13335067  0.23102218  1
  O  O403  1  0.21875994  0.13665838  0.55807868  1
  O  O404  1  0.23163474  0.14769952  0.89472426  1
  O  O405  1  0.21338436  0.63744383  0.22492054  1
  O  O406  1  0.22085103  0.64106894  0.56127569  1
  O  O407  1  0.21045535  0.63821691  0.89014177  1
  O  O408  1  0.72562235  0.13618910  0.22134277  1
  O  O409  1  0.71854451  0.13852174  0.55643980  1
  O  O410  1  0.72755192  0.12751018  0.88875643  1
  O  O411  1  0.71815430  0.63237233  0.21813011  1
  O  O412  1  0.72029230  0.63888280  0.55881502  1
  O  O413  1  0.72192532  0.63767418  0.88875998  1
  O  O414  1  0.50401418  0.33015362  0.02453720  1
  O  O415  1  0.49266207  0.33287338  0.36925870  1
  O  O416  1  0.49555686  0.33379038  0.69464186  1
  O  O417  1  0.49036096  0.83943722  0.03392359  1
  O  O418  1  0.49498217  0.84106516  0.36604127  1
  O  O419  1  0.49808808  0.84134945  0.69255868  1
  O  O420  1  0.98937272  0.33031704  0.02995087  1
  O  O421  1  0.99294829  0.33150621  0.36262021  1
  O  O422  1  0.99451884  0.32868275  0.69699520  1
  O  O423  1  0.98997396  0.82484076  0.03071479  1
  O  O424  1  0.98943667  0.83328339  0.36510727  1
  O  O425  1  0.98656624  0.82767086  0.69882133  1
  O  O426  1  0.16988082  0.00847197  0.13861225  1
  O  O427  1  0.16556750  0.00525288  0.47052048  1
  O  O428  1  0.17538339  0.01669425  0.80707787  1
  O  O429  1  0.16423903  0.50424025  0.14076716  1
  O  O430  1  0.16790674  0.50970593  0.47248569  1
  O  O431  1  0.17153941  0.50537966  0.80450390  1
  O  O432  1  0.66322692  0.00684915  0.13590938  1
  O  O433  1  0.66567289  0.00897234  0.46455834  1
  O  O434  1  0.66026080  -0.00215436  0.80298299  1
  O  O435  1  0.65938418  0.49926262  0.13689051  1
  O  O436  1  0.67025716  0.51068014  0.46565709  1
  O  O437  1  0.66350021  0.51035399  0.79563806  1
  O  O438  1  -0.00295234  0.15141655  0.30552889  1
  O  O439  1  0.00903611  0.16730189  0.63700479  1
  O  O440  1  0.01142754  0.16654127  0.96919207  1
  O  O441  1  0.00645502  0.66708406  0.30610968  1
  O  O442  1  0.00800046  0.66540579  0.63371663  1
  O  O443  1  -0.00150620  0.64539711  0.97415030  1
  O  O444  1  0.51144287  0.17272068  0.30428957  1
  O  O445  1  0.50208927  0.16494863  0.63348572  1
  O  O446  1  0.50811955  0.16227289  0.96591013  1
  O  O447  1  0.50891730  0.67360168  0.30357469  1
  O  O448  1  0.50854475  0.66768377  0.63404956  1
  O  O449  1  0.50717854  0.67582619  0.97053808  1
  O  O450  1  0.33284253  0.49343871  0.20309457  1
  O  O451  1  0.33076244  0.49272353  0.53133283  1
  O  O452  1  0.34087679  0.49730468  0.85956037  1
  O  O453  1  0.33131893  0.99153205  0.19457806  1
  O  O454  1  0.32894057  0.99273316  0.52853585  1
  O  O455  1  0.33639152  1.00112881  0.86290236  1
  O  O456  1  0.83504274  0.48832149  0.19635953  1
  O  O457  1  0.84588962  0.50111801  0.52787655  1
  O  O458  1  0.82949565  0.48955173  0.86776395  1
  O  O459  1  0.83057843  0.98975322  0.19737190  1
  O  O460  1  0.83364683  0.99462247  0.53458208  1
  O  O461  1  0.83105565  0.98305193  0.86266381  1
