# generated using pymatgen
data_Na31Fe20(SO4)36
_symmetry_space_group_name_H-M   'P 1'
_cell_length_a   18.07014268
_cell_length_b   18.07101022
_cell_length_c   19.70707920
_cell_angle_alpha   107.59066646
_cell_angle_beta   107.57812867
_cell_angle_gamma   90.72570172
_symmetry_Int_Tables_number   1
_chemical_formula_structural   Na31Fe20(SO4)36
_chemical_formula_sum   'Na62 Fe40 S72 O288'
_cell_volume   5809.53575395
_cell_formula_units_Z   2
loop_
 _symmetry_equiv_pos_site_id
 _symmetry_equiv_pos_as_xyz
  1  'x, y, z'
loop_
 _atom_site_type_symbol
 _atom_site_label
 _atom_site_symmetry_multiplicity
 _atom_site_fract_x
 _atom_site_fract_y
 _atom_site_fract_z
 _atom_site_occupancy
  Na  Na0  1  0.13195299  0.36233304  0.07967482  1
  Na  Na1  1  0.13285980  0.36805095  0.42135802  1
  Na  Na2  1  0.14117931  0.37154470  0.75853237  1
  Na  Na3  1  0.13986432  0.86732974  0.08909251  1
  Na  Na4  1  0.15454266  0.86325264  0.43102153  1
  Na  Na5  1  0.12164336  0.84387760  0.73215544  1
  Na  Na6  1  0.62528255  0.36087964  0.07218603  1
  Na  Na7  1  0.63930733  0.37984851  0.43012966  1
  Na  Na8  1  0.63484105  0.36082909  0.74757313  1
  Na  Na9  1  0.63970070  0.86115162  0.08368597  1
  Na  Na10  1  0.62913996  0.86622885  0.41618398  1
  Na  Na11  1  0.64211021  0.87003125  0.75425507  1
  Na  Na12  1  0.36618480  0.13712035  0.25258798  1
  Na  Na13  1  0.35940547  0.12886019  0.57719912  1
  Na  Na14  1  0.37019830  0.13131411  0.91160810  1
  Na  Na15  1  0.37378104  0.64372660  0.26845107  1
  Na  Na16  1  0.36173247  0.63709171  0.57861999  1
  Na  Na17  1  0.36425811  0.63113082  0.91673907  1
  Na  Na18  1  0.86610117  0.13250041  0.25189244  1
  Na  Na19  1  0.86591319  0.13721029  0.58614448  1
  Na  Na20  1  0.86159333  0.13103286  0.90939634  1
  Na  Na21  1  0.86711254  0.63399936  0.25274820  1
  Na  Na22  1  0.87646957  0.63484855  0.59158742  1
  Na  Na23  1  0.85725687  0.62843105  0.90248344  1
  Na  Na24  1  1.00706947  -0.00645566  0.41931664  1
  Na  Na25  1  0.97369642  0.51584532  0.72054181  1
  Na  Na26  1  0.49547231  0.50567436  0.74398203  1
  Na  Na27  1  0.49294062  0.00891875  0.07546734  1
  Na  Na28  1  0.98799267  0.00203848  0.75541724  1
  Na  Na29  1  0.45993908  0.51092988  0.08358272  1
  Na  Na30  1  1.00010824  0.51636614  0.06798010  1
  Na  Na31  1  0.99896537  0.55638870  0.43911851  1
  Na  Na32  1  0.98366999  0.01039957  0.08396356  1
  Na  Na33  1  0.00632844  0.98080965  0.58692963  1
  Na  Na34  1  0.06302267  0.99469783  0.27246291  1
  Na  Na35  1  0.49442196  0.47744078  0.91873771  1
  Na  Na36  1  0.50252897  0.49156134  0.26852381  1
  Na  Na37  1  0.51025055  1.04592513  0.77655754  1
  Na  Na38  1  0.50185527  0.98742197  0.27314167  1
  Na  Na39  1  0.51927132  0.50499428  0.56108739  1
  Na  Na40  1  0.00742553  0.94580010  0.90517272  1
  Na  Na41  1  0.52419673  0.97437960  0.57713221  1
  Na  Na42  1  0.74224161  0.24110905  0.67148946  1
  Na  Na43  1  0.75308787  0.25653747  0.33522015  1
  Na  Na44  1  0.75870810  0.75764819  0.67237635  1
  Na  Na45  1  0.73006163  0.23444794  -0.00070258  1
  Na  Na46  1  0.25048509  0.75407919  0.65000298  1
  Na  Na47  1  0.23860677  0.23549315  0.34484343  1
  Na  Na48  1  0.24787517  0.74778720  0.00376115  1
  Na  Na49  1  0.26194791  0.26476458  -0.01200998  1
  Na  Na50  1  0.25190945  0.74711885  0.34869166  1
  Na  Na51  1  0.76187026  0.75777631  -0.01181738  1
  Na  Na52  1  0.75869264  0.75977267  0.49577178  1
  Na  Na53  1  0.76108449  0.26811280  0.50427526  1
  Na  Na54  1  0.25002715  0.74231942  0.17592715  1
  Na  Na55  1  0.23878017  0.23338504  0.51285090  1
  Na  Na56  1  0.74152471  0.74035434  0.17887927  1
  Na  Na57  1  0.26568343  0.26526277  0.81769502  1
  Na  Na58  1  0.25139216  0.74675775  0.82959363  1
  Na  Na59  1  0.24942270  0.24976248  0.16503443  1
  Na  Na60  1  0.74697347  0.25075850  0.16695863  1
  Na  Na61  1  0.72582267  0.22987435  0.83577587  1
  Fe  Fe62  1  0.96508695  0.31232822  0.78710796  1
  Fe  Fe63  1  0.46390803  0.81016814  0.12043381  1
  Fe  Fe64  1  0.46488475  0.29896814  0.78377360  1
  Fe  Fe65  1  0.96528318  0.31686983  0.46103443  1
  Fe  Fe66  1  0.46576559  0.30585937  0.11676489  1
  Fe  Fe67  1  0.96806557  0.80084549  0.45420962  1
  Fe  Fe68  1  0.96203667  0.30895580  0.12185904  1
  Fe  Fe69  1  0.46557320  0.30671377  0.45106138  1
  Fe  Fe70  1  0.96749258  0.80736314  0.12117996  1
  Fe  Fe71  1  0.46748418  0.80906879  0.78607965  1
  Fe  Fe72  1  0.19004853  0.03435692  0.04516439  1
  Fe  Fe73  1  0.18784269  0.53436007  0.70856124  1
  Fe  Fe74  1  0.69683971  0.03520798  0.38249061  1
  Fe  Fe75  1  0.70025130  0.53396582  0.71225856  1
  Fe  Fe76  1  0.19892486  0.53057612  0.03976269  1
  Fe  Fe77  1  0.68638578  0.03475310  0.04349786  1
  Fe  Fe78  1  0.69539765  0.53800920  0.38329185  1
  Fe  Fe79  1  0.19027889  0.53456774  0.38206224  1
  Fe  Fe80  1  0.19264423  0.03572589  0.71529445  1
  Fe  Fe81  1  0.69019940  0.53404381  0.04708259  1
  Fe  Fe82  1  0.53039235  0.70140502  0.54122235  1
  Fe  Fe83  1  0.03771403  0.69068883  0.21332839  1
  Fe  Fe84  1  0.53422599  0.69654154  0.21789762  1
  Fe  Fe85  1  0.03329201  0.19301738  0.88305822  1
  Fe  Fe86  1  0.03064946  0.69630693  0.87121450  1
  Fe  Fe87  1  0.53457842  0.18982364  0.54500312  1
  Fe  Fe88  1  0.53646667  0.69298367  0.87925878  1
  Fe  Fe89  1  0.03775243  0.19165864  0.55193757  1
  Fe  Fe90  1  0.53579489  0.19356185  0.21518470  1
  Fe  Fe91  1  0.03329043  0.19467590  0.21815778  1
  Fe  Fe92  1  0.79692678  0.97086922  0.62740400  1
  Fe  Fe93  1  0.81129091  0.96405266  0.28865890  1
  Fe  Fe94  1  0.80616283  0.96116110  0.94832687  1
  Fe  Fe95  1  0.30796057  0.96382563  0.61641900  1
  Fe  Fe96  1  0.30922317  0.46110391  0.61839754  1
  Fe  Fe97  1  0.30500268  0.96352354  0.95057261  1
  Fe  Fe98  1  0.80673352  0.46765929  0.28759815  1
  Fe  Fe99  1  0.30721623  0.96725389  0.29650625  1
  Fe  Fe100  1  0.80473128  0.46383447  0.95053123  1
  Fe  Fe101  1  0.30766514  0.46193623  0.28980418  1
  S  S102  1  0.35857373  0.13902829  0.08190221  1
  S  S103  1  0.36038302  0.14375122  0.41231956  1
  S  S104  1  0.35757103  0.13745125  0.75180663  1
  S  S105  1  0.36027740  0.64370298  0.08511780  1
  S  S106  1  0.36172729  0.63327283  0.41675206  1
  S  S107  1  0.36330030  0.63876361  0.74877281  1
  S  S108  1  0.85958351  0.13938572  0.08572473  1
  S  S109  1  0.86019611  0.14200874  0.41948422  1
  S  S110  1  0.86091793  0.14480043  0.74999318  1
  S  S111  1  0.86026601  0.63915647  0.08288678  1
  S  S112  1  0.85635711  0.64359556  0.41391041  1
  S  S113  1  0.85963022  0.64286144  0.75260814  1
  S  S114  1  0.13974927  0.35768108  0.25071326  1
  S  S115  1  0.14347202  0.35648663  0.58392472  1
  S  S116  1  0.13868767  0.35638717  0.91873088  1
  S  S117  1  0.14436325  0.85341292  0.25017124  1
  S  S118  1  0.13768590  0.86330658  0.58518070  1
  S  S119  1  0.14506100  0.85633548  0.91794253  1
  S  S120  1  0.63946861  0.36213901  0.25108845  1
  S  S121  1  0.63639074  0.36255920  0.58332075  1
  S  S122  1  0.63857125  0.36037397  0.91303798  1
  S  S123  1  0.63950782  0.86157150  0.24748535  1
  S  S124  1  0.64067146  0.85808298  0.58446748  1
  S  S125  1  0.64184469  0.85707104  0.92080395  1
  S  S126  1  0.06236491  0.16517313  0.04298038  1
  S  S127  1  0.05987924  0.17098492  0.38018446  1
  S  S128  1  0.06764062  0.16854944  0.71243281  1
  S  S129  1  0.07253937  0.67360751  0.04146397  1
  S  S130  1  0.06928257  0.66996145  0.37240234  1
  S  S131  1  0.06769158  0.66672238  0.70840638  1
  S  S132  1  0.56261348  0.16811786  0.04581089  1
  S  S133  1  0.57354646  0.17323484  0.37618801  1
  S  S134  1  0.55816692  0.16481534  0.70158063  1
  S  S135  1  0.56562758  0.66928995  0.04286962  1
  S  S136  1  0.56950211  0.67194528  0.37848675  1
  S  S137  1  0.57085036  0.67131369  0.70655902  1
  S  S138  1  0.33082754  0.43365256  0.12842914  1
  S  S139  1  0.32944836  0.42733769  0.45666470  1
  S  S140  1  0.33795920  0.43682791  0.79107446  1
  S  S141  1  0.33165276  0.93710724  0.12635937  1
  S  S142  1  0.33519858  0.93699531  0.45931788  1
  S  S143  1  0.32581900  0.92793444  0.78883491  1
  S  S144  1  0.82302804  0.42805268  0.12038347  1
  S  S145  1  0.82869399  0.43732879  0.45724053  1
  S  S146  1  0.82632260  0.42810623  0.78906922  1
  S  S147  1  0.83402430  0.93342400  0.12610061  1
  S  S148  1  0.83092817  0.93523717  0.45881139  1
  S  S149  1  0.83131385  0.94155188  0.79218570  1
  S  S150  1  0.43394816  0.32836391  0.28826857  1
  S  S151  1  0.43262020  0.32715009  0.62187465  1
  S  S152  1  0.43305324  0.33344560  0.95699943  1
  S  S153  1  0.43447010  0.83178833  0.29048027  1
  S  S154  1  0.43476888  0.82977265  0.62801683  1
  S  S155  1  0.43257392  0.82916704  0.95765233  1
  S  S156  1  0.93018934  0.32936396  0.29162959  1
  S  S157  1  0.93705211  0.32899931  0.62356299  1
  S  S158  1  0.92736777  0.32841916  0.95914401  1
  S  S159  1  0.93515441  0.82794790  0.28973957  1
  S  S160  1  0.92804688  0.84272635  0.62591769  1
  S  S161  1  0.93789905  0.82813371  0.96217534  1
  S  S162  1  0.16818946  0.06677979  0.20711531  1
  S  S163  1  0.16241436  0.06063859  0.54077053  1
  S  S164  1  0.16859592  0.06672473  0.87814454  1
  S  S165  1  0.17383657  0.56584881  0.20652027  1
  S  S166  1  0.17396221  0.56357873  0.54638188  1
  S  S167  1  0.16914175  0.57439681  0.87417226  1
  S  S168  1  0.67059971  0.06786629  0.21016226  1
  S  S169  1  0.67090251  0.06697288  0.54055945  1
  S  S170  1  0.67096687  0.06457781  0.88402975  1
  S  S171  1  0.66423647  0.56478490  0.20436208  1
  S  S172  1  0.66872829  0.57799873  0.54378387  1
  S  S173  1  0.66705350  0.56723798  0.87559633  1
  O  O174  1  0.36762543  0.21781032  0.07361572  1
  O  O175  1  0.37720781  0.21910905  0.39755769  1
  O  O176  1  0.36439694  0.21869037  0.74849469  1
  O  O177  1  0.36804388  0.72481067  0.07993270  1
  O  O178  1  0.36637704  0.70574967  0.39988480  1
  O  O179  1  0.37047387  0.71852529  0.74203077  1
  O  O180  1  0.86720140  0.21879941  0.07823266  1
  O  O181  1  0.86786190  0.22146449  0.41211261  1
  O  O182  1  0.87803675  0.22025486  0.73719486  1
  O  O183  1  0.86925099  0.71863772  0.07608035  1
  O  O184  1  0.86818173  0.72009712  0.40235143  1
  O  O185  1  0.86413722  0.72115077  0.74775259  1
  O  O186  1  0.27938455  0.13028043  0.08978199  1
  O  O187  1  0.28250224  0.14420344  0.42023182  1
  O  O188  1  0.27888361  0.12786344  0.76277213  1
  O  O189  1  0.27970891  0.63300533  0.08984213  1
  O  O190  1  0.28508271  0.61879162  0.42757207  1
  O  O191  1  0.28539883  0.62675038  0.75730189  1
  O  O192  1  0.78038400  0.12991656  0.09339180  1
  O  O193  1  0.78163625  0.13348202  0.42906599  1
  O  O194  1  0.78534516  0.14502509  0.76197267  1
  O  O195  1  0.78206089  0.62895981  0.09223771  1
  O  O196  1  0.77427904  0.63578395  0.41562314  1
  O  O197  1  0.78676069  0.62515948  0.76958100  1
  O  O198  1  0.13152973  0.27893759  0.26083044  1
  O  O199  1  0.13409141  0.27591445  0.58760693  1
  O  O200  1  0.12323566  0.28114257  0.93425205  1
  O  O201  1  0.13771320  0.76876555  0.24532448  1
  O  O202  1  0.12794926  0.78944801  0.59863331  1
  O  O203  1  0.13047913  0.77668778  0.92480987  1
  O  O204  1  0.63174585  0.28365622  0.26065208  1
  O  O205  1  0.62515652  0.28389790  0.59265605  1
  O  O206  1  0.63453842  0.28377674  0.92309733  1
  O  O207  1  0.63094227  0.78220676  0.25339120  1
  O  O208  1  0.62970224  0.77366502  0.58482754  1
  O  O209  1  0.62985556  0.77877068  0.93101456  1
  O  O210  1  0.21869559  0.36583051  0.24170030  1
  O  O211  1  0.22050335  0.36484360  0.57139523  1
  O  O212  1  0.21565493  0.35729524  0.90908733  1
  O  O213  1  0.22198264  0.86806517  0.24101239  1
  O  O214  1  0.21645668  0.87400665  0.57693218  1
  O  O215  1  0.22864440  0.86196086  0.91999032  1
  O  O216  1  0.71907293  0.37037931  0.24397288  1
  O  O217  1  0.71002185  0.37009182  0.56899429  1
  O  O218  1  0.71648653  0.37369914  0.90284493  1
  O  O219  1  0.71862412  0.87240538  0.23972232  1
  O  O220  1  0.72521170  0.86680261  0.58575488  1
  O  O221  1  0.72301868  0.86370441  0.91806333  1
  O  O222  1  0.41752609  0.13070067  0.15014952  1
  O  O223  1  0.41910442  0.13646712  0.48032848  1
  O  O224  1  0.41763135  0.12417813  0.81449036  1
  O  O225  1  0.41712208  0.63680325  0.15586097  1
  O  O226  1  0.42342732  0.63446414  0.48904664  1
  O  O227  1  0.42428766  0.63238917  0.81724386  1
  O  O228  1  0.91836690  0.13191140  0.15482694  1
  O  O229  1  0.92000045  0.13133535  0.48534379  1
  O  O230  1  0.92246676  0.13293012  0.81578290  1
  O  O231  1  0.92125944  0.63026961  0.14953576  1
  O  O232  1  0.91147738  0.63659769  0.48253149  1
  O  O233  1  0.92568921  0.63703799  0.82228732  1
  O  O234  1  0.36726110  0.07905491  0.01449639  1
  O  O235  1  0.36548192  0.08123916  0.34446664  1
  O  O236  1  0.36045527  0.08194202  0.67929749  1
  O  O237  1  0.37251898  0.58688873  0.02004081  1
  O  O238  1  0.37417351  0.56806677  0.35432398  1
  O  O239  1  0.37438873  0.58033073  0.68168729  1
  O  O240  1  0.87125264  0.08034604  0.01979470  1
  O  O241  1  0.86552438  0.08320263  0.34964246  1
  O  O242  1  0.86355565  0.08168634  0.68103039  1
  O  O243  1  0.86763781  0.57996417  0.01422696  1
  O  O244  1  0.86602930  0.58129343  0.34676469  1
  O  O245  1  0.86785464  0.58300053  0.68687543  1
  O  O246  1  0.08091910  0.36140694  0.18083906  1
  O  O247  1  0.08291363  0.36885743  0.51883758  1
  O  O248  1  0.07889576  0.36297217  0.85039476  1
  O  O249  1  0.08379906  0.86742448  0.18483775  1
  O  O250  1  0.07848568  0.86935089  0.51521018  1
  O  O251  1  0.09306118  0.86739874  0.85016181  1
  O  O252  1  0.58136660  0.36877031  0.18201654  1
  O  O253  1  0.57179619  0.37314218  0.51797265  1
  O  O254  1  0.57822853  0.36764249  0.84500678  1
  O  O255  1  0.58077072  0.87027071  0.17901802  1
  O  O256  1  0.58906726  0.86789699  0.51571039  1
  O  O257  1  0.58568739  0.86260608  0.85099459  1
  O  O258  1  0.13216123  0.41748737  0.31782035  1
  O  O259  1  0.14030053  0.41316590  0.65509230  1
  O  O260  1  0.13359810  0.41965998  0.98601884  1
  O  O261  1  0.13513763  0.90320463  0.32005886  1
  O  O262  1  0.12668748  0.92812947  0.64991001  1
  O  O263  1  0.13421909  0.91487734  0.98596134  1
  O  O264  1  0.62920930  0.42210566  0.31771424  1
  O  O265  1  0.63066897  0.42236744  0.65252323  1
  O  O266  1  0.62852179  0.42165767  0.98000351  1
  O  O267  1  0.62972334  0.92111545  0.31456257  1
  O  O268  1  0.62889277  0.91101178  0.65161353  1
  O  O269  1  0.63211426  0.91662766  0.98805988  1
  O  O270  1  0.02707168  0.19508881  0.10493711  1
  O  O271  1  0.02429378  0.20943288  0.44005899  1
  O  O272  1  0.03522026  0.20011731  0.77588812  1
  O  O273  1  0.02917271  0.69977096  0.09789953  1
  O  O274  1  0.03237851  0.70075938  0.43135631  1
  O  O275  1  0.03791917  0.69752340  0.77501691  1
  O  O276  1  0.53231664  0.20364966  0.11259752  1
  O  O277  1  0.53896587  0.20201615  0.43807904  1
  O  O278  1  0.52473843  0.20048823  0.76279502  1
  O  O279  1  0.52858807  0.69847266  0.10348389  1
  O  O280  1  0.52936489  0.69220935  0.43603986  1
  O  O281  1  0.53262425  0.70108232  0.76682870  1
  O  O282  1  0.30371931  0.47050934  0.06941287  1
  O  O283  1  0.29467919  0.45992422  0.39384559  1
  O  O284  1  0.30474463  0.46731357  0.72550191  1
  O  O285  1  0.30130708  0.97293484  0.06476453  1
  O  O286  1  0.30261654  0.97215244  0.39828286  1
  O  O287  1  0.29763963  0.96513917  0.72829638  1
  O  O288  1  0.79376723  0.46603579  0.06008074  1
  O  O289  1  0.79471317  0.46963411  0.39148121  1
  O  O290  1  0.79453050  0.46334143  0.72963534  1
  O  O291  1  0.80462785  0.96962962  0.06538696  1
  O  O292  1  0.79860620  0.97011733  0.39533403  1
  O  O293  1  0.79891111  0.98108814  0.73492635  1
  O  O294  1  0.47029377  0.29849103  0.22669742  1
  O  O295  1  0.46586646  0.29675593  0.55868943  1
  O  O296  1  0.46941140  0.30961664  0.89728117  1
  O  O297  1  0.46943117  0.80116817  0.22576797  1
  O  O298  1  0.47169043  0.79662533  0.56814893  1
  O  O299  1  0.46938160  0.80122036  0.89700378  1
  O  O300  1  0.96749207  0.29878829  0.23046191  1
  O  O301  1  0.97431908  0.29183808  0.56283310  1
  O  O302  1  0.96208925  0.29956006  0.89716639  1
  O  O303  1  0.97513552  0.79949660  0.23058995  1
  O  O304  1  0.95464263  0.82580122  0.55906238  1
  O  O305  1  0.97664005  0.80049458  0.90360630  1
  O  O306  1  0.19418013  0.02966498  0.26597308  1
  O  O307  1  0.19974849  0.03467953  0.60810713  1
  O  O308  1  0.19800081  0.02659842  0.93746389  1
  O  O309  1  0.19821322  0.52783695  0.26681508  1
  O  O310  1  0.20862369  0.52420236  0.60596755  1
  O  O311  1  0.18830210  0.53896770  0.93435019  1
  O  O312  1  0.70224103  0.03350379  0.27211336  1
  O  O313  1  0.70085082  0.02784061  0.59846510  1
  O  O314  1  0.70990246  0.02734467  0.94604772  1
  O  O315  1  0.69542228  0.52978931  0.26603617  1
  O  O316  1  0.68305366  0.54062567  0.60266160  1
  O  O317  1  0.69726232  0.53204425  0.93762302  1
  O  O318  1  0.07698080  0.08172637  0.03541421  1
  O  O319  1  0.06932793  0.09005049  0.37930875  1
  O  O320  1  0.08160199  0.08498822  0.70647148  1
  O  O321  1  0.09056009  0.59264455  0.03748850  1
  O  O322  1  0.08814236  0.58925993  0.37280852  1
  O  O323  1  0.08306619  0.58320006  0.70245467  1
  O  O324  1  0.58451090  0.08909188  0.05004867  1
  O  O325  1  0.59220477  0.09165160  0.36859759  1
  O  O326  1  0.56823915  0.08304303  0.69675395  1
  O  O327  1  0.58012000  0.58585684  0.03450272  1
  O  O328  1  0.59075842  0.59001035  0.36654040  1
  O  O329  1  0.58294705  0.58745118  0.69990485  1
  O  O330  1  0.41401257  0.41556637  0.13506370  1
  O  O331  1  0.41127966  0.41212004  0.45983723  1
  O  O332  1  0.41545454  0.40789913  0.78672638  1
  O  O333  1  0.41526498  0.92276576  0.13256975  1
  O  O334  1  0.41777870  0.92883026  0.47163231  1
  O  O335  1  0.40646682  0.90867382  0.79489032  1
  O  O336  1  0.90318048  0.40855439  0.12359085  1
  O  O337  1  0.90660989  0.41282118  0.45321982  1
  O  O338  1  0.90762605  0.41105827  0.79233981  1
  O  O339  1  0.91740009  0.91885037  0.13325229  1
  O  O340  1  0.91309755  0.92066530  0.46074875  1
  O  O341  1  0.91353942  0.93057424  0.79822903  1
  O  O342  1  0.41543097  0.40918162  0.29199997  1
  O  O343  1  0.41657667  0.41017531  0.62742162  1
  O  O344  1  0.41818517  0.41585171  0.97084165  1
  O  O345  1  0.40834007  0.90942945  0.28634438  1
  O  O346  1  0.41496445  0.90953550  0.62759151  1
  O  O347  1  0.41160103  0.90998874  0.96341707  1
  O  O348  1  0.90938771  0.40855911  0.29351377  1
  O  O349  1  0.91996348  0.40636266  0.62062049  1
  O  O350  1  0.91131509  0.41123200  0.96829101  1
  O  O351  1  0.91871175  0.91077055  0.29563253  1
  O  O352  1  0.89907233  0.92431899  0.63574333  1
  O  O353  1  0.91639197  0.90911221  0.96318332  1
  O  O354  1  0.08508278  0.08519748  0.20103862  1
  O  O355  1  0.08228964  0.08414852  0.54475474  1
  O  O356  1  0.08680245  0.08403123  0.87456278  1
  O  O357  1  0.09159486  0.58496175  0.19584685  1
  O  O358  1  0.09617712  0.58097706  0.54741884  1
  O  O359  1  0.08735364  0.59758555  0.86099393  1
  O  O360  1  0.58770891  0.08281594  0.20375826  1
  O  O361  1  0.59067078  0.08593911  0.53857653  1
  O  O362  1  0.60000945  0.09349231  0.89778751  1
  O  O363  1  0.58270009  0.58392940  0.20061967  1
  O  O364  1  0.58714246  0.60317417  0.53210350  1
  O  O365  1  0.58373766  0.58264738  0.86941233  1
  O  O366  1  0.13553484  0.21484134  0.06033450  1
  O  O367  1  0.13425497  0.21820042  0.39493843  1
  O  O368  1  0.13921006  0.21734952  0.72534458  1
  O  O369  1  0.14456480  0.72785874  0.06475375  1
  O  O370  1  0.13944757  0.72025900  0.38313335  1
  O  O371  1  0.14287302  0.71420491  0.72581799  1
  O  O372  1  0.63432572  0.21965304  0.05979979  1
  O  O373  1  0.64330872  0.22635345  0.39040370  1
  O  O374  1  0.63279874  0.21282663  0.71631761  1
  O  O375  1  0.63947260  0.71911839  0.06235410  1
  O  O376  1  0.63761675  0.72803456  0.39756125  1
  O  O377  1  0.64266598  0.72059134  0.72292179  1
  O  O378  1  0.27976441  0.36074752  0.11151864  1
  O  O379  1  0.28013492  0.35563290  0.44436179  1
  O  O380  1  0.28240703  0.37315663  0.78452454  1
  O  O381  1  0.28221209  0.86367237  0.10869918  1
  O  O382  1  0.28648547  0.86284769  0.44190718  1
  O  O383  1  0.27175334  0.85751521  0.77225369  1
  O  O384  1  0.76908208  0.35745613  0.10359252  1
  O  O385  1  0.77488007  0.36631611  0.44161118  1
  O  O386  1  0.77633835  0.35588848  0.77634476  1
  O  O387  1  0.78436930  0.86005857  0.10890255  1
  O  O388  1  0.78062488  0.86441889  0.44426165  1
  O  O389  1  0.78196700  0.86888738  0.77549240  1
  O  O390  1  0.36235991  0.27624072  0.27086253  1
  O  O391  1  0.36164770  0.27698992  0.60820038  1
  O  O392  1  0.36119128  0.27963639  0.93775933  1
  O  O393  1  0.36553009  0.77667749  0.27507896  1
  O  O394  1  0.36553967  0.77790401  0.61660986  1
  O  O395  1  0.36361468  0.77430713  0.94196030  1
  O  O396  1  0.85976421  0.27459678  0.27456111  1
  O  O397  1  0.86616421  0.27613664  0.60870457  1
  O  O398  1  0.85593462  0.27729525  0.94421199  1
  O  O399  1  0.86325728  0.77612764  0.26900975  1
  O  O400  1  0.86329021  0.78410270  0.61256230  1
  O  O401  1  0.87006638  0.77479603  0.94975968  1
  O  O402  1  0.21932598  0.13879939  0.22277036  1
  O  O403  1  0.21214180  0.12714572  0.54428421  1
  O  O404  1  0.22117354  0.13805925  0.89780914  1
  O  O405  1  0.22879099  0.63668586  0.22754228  1
  O  O406  1  0.22834953  0.63271582  0.56217736  1
  O  O407  1  0.22556424  0.64401690  0.89305680  1
  O  O408  1  0.72022751  0.14099216  0.22592507  1
  O  O409  1  0.72310045  0.13881748  0.55717848  1
  O  O410  1  0.72870036  0.13098607  0.89549891  1
  O  O411  1  0.71641285  0.63384719  0.21630925  1
  O  O412  1  0.72704873  0.64443633  0.56169023  1
  O  O413  1  0.71731974  0.63919413  0.89266077  1
  O  O414  1  0.49054285  0.32765998  0.02920525  1
  O  O415  1  0.49325481  0.33025131  0.36010155  1
  O  O416  1  0.49381703  0.33016240  0.69336036  1
  O  O417  1  0.49241158  0.83404568  0.03116680  1
  O  O418  1  0.49585675  0.83989208  0.35993955  1
  O  O419  1  0.49554594  0.83771511  0.70241371  1
  O  O420  1  0.98846373  0.32881073  0.03082945  1
  O  O421  1  0.98959382  0.33178449  0.36363420  1
  O  O422  1  0.99601112  0.33243391  0.69715406  1
  O  O423  1  0.99783780  0.83902401  0.03772154  1
  O  O424  1  0.99203227  0.82998771  0.36306104  1
  O  O425  1  0.99372207  0.85251767  0.69392051  1
  O  O426  1  0.16423015  0.00875572  0.13267107  1
  O  O427  1  0.14627327  -0.00569465  0.47150988  1
  O  O428  1  0.16569611  0.00895781  0.80518304  1
  O  O429  1  0.17378218  0.50801061  0.13388328  1
  O  O430  1  0.17023340  0.50493519  0.47182824  1
  O  O431  1  0.17187063  0.51411069  0.80392701  1
  O  O432  1  0.67068248  0.00865147  0.13845219  1
  O  O433  1  0.66675871  0.00961486  0.46591933  1
  O  O434  1  0.65530979  0.00429539  0.81129387  1
  O  O435  1  0.65905671  0.50323017  0.13141641  1
  O  O436  1  0.66636857  0.51665109  0.47189603  1
  O  O437  1  0.66479394  0.50849549  0.80296591  1
  O  O438  1  0.00448950  0.16918941  0.30502993  1
  O  O439  1  0.00642103  0.16689428  0.64113477  1
  O  O440  1  0.00404667  0.16655765  0.97154544  1
  O  O441  1  0.00951847  0.66193258  0.29725925  1
  O  O442  1  0.00838450  0.67095460  0.64189328  1
  O  O443  1  0.01867579  0.67471825  0.96746006  1
  O  O444  1  0.51161809  0.16990301  0.30394583  1
  O  O445  1  0.50098145  0.16654844  0.62827555  1
  O  O446  1  0.50064825  0.16231863  0.97772812  1
  O  O447  1  0.50988048  0.67037470  0.30538120  1
  O  O448  1  0.51193868  0.67062135  0.63277888  1
  O  O449  1  0.50873667  0.67113885  0.97084383  1
  O  O450  1  0.33474480  0.49098834  0.20289633  1
  O  O451  1  0.33346983  0.48830881  0.52884186  1
  O  O452  1  0.35583158  0.50182383  0.86158977  1
  O  O453  1  0.33114517  0.99467841  0.19825010  1
  O  O454  1  0.32486909  0.99413389  0.52965102  1
  O  O455  1  0.32687780  0.98761758  0.86130911  1
  O  O456  1  0.82551376  0.48729123  0.19287798  1
  O  O457  1  0.83484434  0.49812866  0.52640936  1
  O  O458  1  0.83061660  0.48709034  0.86366625  1
  O  O459  1  0.83311905  0.99109219  0.19859071  1
  O  O460  1  0.83333582  0.99578439  0.53070894  1
  O  O461  1  0.83099522  0.99691820  0.86728312  1
