# generated using pymatgen
data_Na31Fe20(SO4)36
_symmetry_space_group_name_H-M   'P 1'
_cell_length_a   18.06199997
_cell_length_b   18.07480259
_cell_length_c   19.70240488
_cell_angle_alpha   107.58020182
_cell_angle_beta   107.53791894
_cell_angle_gamma   90.73987161
_symmetry_Int_Tables_number   1
_chemical_formula_structural   Na31Fe20(SO4)36
_chemical_formula_sum   'Na62 Fe40 S72 O288'
_cell_volume   5808.41168323
_cell_formula_units_Z   2
loop_
 _symmetry_equiv_pos_site_id
 _symmetry_equiv_pos_as_xyz
  1  'x, y, z'
loop_
 _atom_site_type_symbol
 _atom_site_label
 _atom_site_symmetry_multiplicity
 _atom_site_fract_x
 _atom_site_fract_y
 _atom_site_fract_z
 _atom_site_occupancy
  Na  Na0  1  0.15610186  0.36897201  0.09407969  1
  Na  Na1  1  0.13137717  0.37035651  0.41528660  1
  Na  Na2  1  0.13082180  0.36310807  0.75005732  1
  Na  Na3  1  0.14059375  0.87484875  0.08896729  1
  Na  Na4  1  0.12443428  0.87061041  0.41352821  1
  Na  Na5  1  0.12762453  0.86252656  0.75117377  1
  Na  Na6  1  0.64209784  0.36241899  0.08685105  1
  Na  Na7  1  0.63310036  0.36359163  0.41602871  1
  Na  Na8  1  0.63292883  0.36552854  0.74728152  1
  Na  Na9  1  0.63751891  0.86325241  0.08688439  1
  Na  Na10  1  0.62597825  0.85396196  0.40172423  1
  Na  Na11  1  0.64883439  0.86356813  0.75794782  1
  Na  Na12  1  0.35897527  0.12821136  0.23679856  1
  Na  Na13  1  0.38479152  0.12574148  0.58200314  1
  Na  Na14  1  0.36307709  0.14526764  0.92724769  1
  Na  Na15  1  0.36013875  0.62949206  0.24201945  1
  Na  Na16  1  0.36482437  0.63368244  0.58350306  1
  Na  Na17  1  0.36907030  0.63818424  0.92318346  1
  Na  Na18  1  0.86689305  0.13331212  0.24716787  1
  Na  Na19  1  0.86853112  0.14531926  0.59621345  1
  Na  Na20  1  0.86726237  0.13632312  0.91490397  1
  Na  Na21  1  0.85941553  0.63487131  0.25054580  1
  Na  Na22  1  0.86766608  0.64563308  0.59534773  1
  Na  Na23  1  0.86219733  0.62607891  0.90983871  1
  Na  Na24  1  1.04034758  0.48709590  0.03942551  1
  Na  Na25  1  0.48736258  0.53933144  0.09540239  1
  Na  Na26  1  0.99177447  0.00334190  0.74882337  1
  Na  Na27  1  0.45546584  0.51049878  0.40334631  1
  Na  Na28  1  1.00226434  0.00345007  0.09265597  1
  Na  Na29  1  1.01184141  0.46902903  0.83852659  1
  Na  Na30  1  0.48185254  -0.00249595  0.09488043  1
  Na  Na31  1  0.48938725  0.51247812  0.75059406  1
  Na  Na32  1  0.50563296  0.00995506  0.72906616  1
  Na  Na33  1  0.50602862  0.99383566  0.91815493  1
  Na  Na34  1  0.01252340  0.49596607  0.24593678  1
  Na  Na35  1  0.00256997  1.00131937  0.56307212  1
  Na  Na36  1  0.51537485  0.48280869  0.57946352  1
  Na  Na37  1  -0.00029266  0.49313476  0.57897280  1
  Na  Na38  1  0.49983266  0.97784350  0.27903074  1
  Na  Na39  1  0.52171244  0.48399009  0.92215810  1
  Na  Na40  1  0.01914209  0.96534188  0.91810401  1
  Na  Na41  1  0.49684081  0.50527359  0.25235496  1
  Na  Na42  1  0.75096007  0.74787067  0.67812177  1
  Na  Na43  1  0.75866062  0.25517408  0.32320639  1
  Na  Na44  1  0.25044581  0.24674645  0.66829004  1
  Na  Na45  1  0.25728369  0.25938745  0.32165618  1
  Na  Na46  1  0.74036668  0.24495114  0.66850812  1
  Na  Na47  1  0.24306391  0.74709756  0.66970354  1
  Na  Na48  1  0.23717667  0.73722220  0.00644887  1
  Na  Na49  1  0.24642829  0.74725409  0.33233031  1
  Na  Na50  1  0.75709044  0.75235923  -0.00733360  1
  Na  Na51  1  0.75369311  0.25701192  0.00116041  1
  Na  Na52  1  0.25054726  0.75374672  0.49878878  1
  Na  Na53  1  0.75221513  0.75721359  0.48839440  1
  Na  Na54  1  0.74009622  0.24382711  0.50452444  1
  Na  Na55  1  0.24018788  0.24362187  0.84740612  1
  Na  Na56  1  0.23983193  0.74238525  0.84051765  1
  Na  Na57  1  0.77525502  0.27572117  0.83651249  1
  Na  Na58  1  0.73188366  0.73739931  0.18494525  1
  Na  Na59  1  0.26135453  0.25703952  0.15032147  1
  Na  Na60  1  0.25583147  0.25270774  0.49576506  1
  Na  Na61  1  0.23613794  0.73534571  0.16690820  1
  Fe  Fe62  1  0.46892017  0.30455113  0.78536156  1
  Fe  Fe63  1  0.96453309  0.30700189  0.11504724  1
  Fe  Fe64  1  0.46972496  0.30802128  0.11948670  1
  Fe  Fe65  1  0.46740616  0.29588489  0.45173750  1
  Fe  Fe66  1  0.96281472  0.30743367  0.44961270  1
  Fe  Fe67  1  0.96154067  0.81240703  0.12032451  1
  Fe  Fe68  1  0.46530938  0.80966456  0.45571849  1
  Fe  Fe69  1  0.95923661  0.80495982  0.44758436  1
  Fe  Fe70  1  0.46515198  0.80804462  0.78729215  1
  Fe  Fe71  1  0.47094611  0.79753985  0.12514635  1
  Fe  Fe72  1  0.19977688  0.53126378  0.37695054  1
  Fe  Fe73  1  0.19206571  0.03350099  0.71345403  1
  Fe  Fe74  1  0.68852100  0.53623959  0.37946630  1
  Fe  Fe75  1  0.19409590  0.53387167  0.71287812  1
  Fe  Fe76  1  0.69285078  0.03664604  0.71204631  1
  Fe  Fe77  1  0.18732684  0.03726089  0.37707106  1
  Fe  Fe78  1  0.69441112  0.53613932  0.71768939  1
  Fe  Fe79  1  0.70263302  0.53092500  0.04889788  1
  Fe  Fe80  1  0.69289130  0.03544216  0.38535107  1
  Fe  Fe81  1  0.69439003  0.03687075  0.05091942  1
  Fe  Fe82  1  0.03390495  0.19327313  0.21222767  1
  Fe  Fe83  1  0.02979002  0.69844771  0.87476620  1
  Fe  Fe84  1  0.53728774  0.69565508  0.88423859  1
  Fe  Fe85  1  0.03063187  0.69077911  0.54206918  1
  Fe  Fe86  1  0.53553137  0.69194134  0.54847306  1
  Fe  Fe87  1  0.03262747  0.19345364  0.54469201  1
  Fe  Fe88  1  0.53421269  0.19300246  0.88369941  1
  Fe  Fe89  1  0.03560520  0.19868001  0.87969151  1
  Fe  Fe90  1  0.03061058  0.69174681  0.20746968  1
  Fe  Fe91  1  0.54011679  0.19176746  0.21565956  1
  Fe  Fe92  1  0.81163384  0.46434694  0.28761901  1
  Fe  Fe93  1  0.81155660  0.46187004  0.62124152  1
  Fe  Fe94  1  0.80844002  0.96505593  0.28677972  1
  Fe  Fe95  1  0.29591299  0.96952724  0.95502345  1
  Fe  Fe96  1  0.80745372  0.96384972  0.61715357  1
  Fe  Fe97  1  0.30620856  0.46538897  0.61919783  1
  Fe  Fe98  1  0.30501298  0.96498006  0.61826160  1
  Fe  Fe99  1  0.30176016  0.46736436  0.95759228  1
  Fe  Fe100  1  0.80896465  0.96567014  0.95008671  1
  Fe  Fe101  1  0.30294690  0.96771099  0.28692287  1
  S  S102  1  0.36831246  0.13686168  0.08349862  1
  S  S103  1  0.35429688  0.14083639  0.41241715  1
  S  S104  1  0.36201221  0.13844331  0.74988498  1
  S  S105  1  0.35679720  0.64245916  0.07857096  1
  S  S106  1  0.35777714  0.64579581  0.42052011  1
  S  S107  1  0.36116153  0.64113009  0.75102590  1
  S  S108  1  0.85851958  0.14041310  0.08269023  1
  S  S109  1  0.85813317  0.13962593  0.41710165  1
  S  S110  1  0.86259083  0.13887382  0.75157079  1
  S  S111  1  0.85548747  0.64856547  0.08621584  1
  S  S112  1  0.85645943  0.64036678  0.41789802  1
  S  S113  1  0.86010820  0.63761442  0.74719450  1
  S  S114  1  0.13903546  0.35879843  0.24851131  1
  S  S115  1  0.14101078  0.35956357  0.58192457  1
  S  S116  1  0.14143435  0.35803149  0.91683445  1
  S  S117  1  0.13819568  0.86098219  0.24932902  1
  S  S118  1  0.13786295  0.85915067  0.58074094  1
  S  S119  1  0.14162413  0.85702460  0.91565923  1
  S  S120  1  0.64372221  0.35922154  0.25268586  1
  S  S121  1  0.63817133  0.36273362  0.58052230  1
  S  S122  1  0.64128072  0.35838270  0.92003631  1
  S  S123  1  0.63944037  0.86219094  0.25129077  1
  S  S124  1  0.63990862  0.85868405  0.58550504  1
  S  S125  1  0.64006496  0.86305453  0.91762102  1
  S  S126  1  0.06238002  0.16415044  0.04008205  1
  S  S127  1  0.06749790  0.17581875  0.37813192  1
  S  S128  1  0.06772733  0.16504621  0.70688216  1
  S  S129  1  0.06329669  0.67995036  0.04149239  1
  S  S130  1  0.06784856  0.67014786  0.37510026  1
  S  S131  1  0.07051800  0.66650232  0.70443112  1
  S  S132  1  0.57126551  0.16828410  0.04138067  1
  S  S133  1  0.56587822  0.16691299  0.37274251  1
  S  S134  1  0.57190300  0.17419379  0.71508473  1
  S  S135  1  0.57021995  0.66840816  0.04284507  1
  S  S136  1  0.55912590  0.66530159  0.37709565  1
  S  S137  1  0.56631332  0.67004282  0.70952589  1
  S  S138  1  0.34378375  0.43462896  0.12710459  1
  S  S139  1  0.33393138  0.43338036  0.45905243  1
  S  S140  1  0.33092091  0.43220486  0.79285460  1
  S  S141  1  0.33819930  0.92650130  0.12659033  1
  S  S142  1  0.32344439  0.93090060  0.45584220  1
  S  S143  1  0.32707777  0.93192690  0.79098025  1
  S  S144  1  0.83439815  0.43573012  0.12775726  1
  S  S145  1  0.82791479  0.43312214  0.45573523  1
  S  S146  1  0.82245102  0.43091027  0.78223536  1
  S  S147  1  0.82770201  0.93582568  0.12218555  1
  S  S148  1  0.82779683  0.93428673  0.45851013  1
  S  S149  1  0.83295942  0.94004999  0.79079695  1
  S  S150  1  0.43836589  0.32796201  0.28888197  1
  S  S151  1  0.43125024  0.33559753  0.62680366  1
  S  S152  1  0.43368348  0.33316853  0.95701105  1
  S  S153  1  0.42316542  0.82667222  0.29132979  1
  S  S154  1  0.43227218  0.83074150  0.62659593  1
  S  S155  1  0.43405730  0.83176601  0.95724873  1
  S  S156  1  0.93252977  0.32776411  0.29099729  1
  S  S157  1  0.93656505  0.33186561  0.62006389  1
  S  S158  1  0.94159775  0.32971206  0.95877263  1
  S  S159  1  0.92900135  0.82793089  0.28791776  1
  S  S160  1  0.93494785  0.83303208  0.62068627  1
  S  S161  1  0.93447978  0.83446655  0.96192594  1
  S  S162  1  0.16866306  0.06793103  0.20911148  1
  S  S163  1  0.17255073  0.06933181  0.54348570  1
  S  S164  1  0.16792679  0.06812108  0.87091694  1
  S  S165  1  0.16251816  0.56682678  0.20659029  1
  S  S166  1  0.17280060  0.56882663  0.54222902  1
  S  S167  1  0.17210343  0.56740738  0.87405879  1
  S  S168  1  0.67121320  0.06596188  0.20983785  1
  S  S169  1  0.67288602  0.06762227  0.54707412  1
  S  S170  1  0.66488275  0.06617496  0.87555605  1
  S  S171  1  0.66928845  0.55871954  0.21037266  1
  S  S172  1  0.66614354  0.56800592  0.54219666  1
  S  S173  1  0.66171646  0.56579031  0.87509837  1
  O  O174  1  0.38249804  0.21373085  0.07307332  1
  O  O175  1  0.36411926  0.22114288  0.40448346  1
  O  O176  1  0.37245268  0.21568792  0.73881245  1
  O  O177  1  0.37597900  0.71655483  0.06288442  1
  O  O178  1  0.36422041  0.72908383  0.42158132  1
  O  O179  1  0.36988753  0.71930586  0.74096156  1
  O  O180  1  0.86765582  0.22002545  0.07647033  1
  O  O181  1  0.86619723  0.21849043  0.40843907  1
  O  O182  1  0.86540382  0.21370522  0.73798120  1
  O  O183  1  0.86206449  0.73254591  0.08775902  1
  O  O184  1  0.86441820  0.71970955  0.41089868  1
  O  O185  1  0.86869063  0.71103975  0.73220524  1
  O  O186  1  0.29768872  0.13300801  0.10382156  1
  O  O187  1  0.27195278  0.13391214  0.41576590  1
  O  O188  1  0.28067825  0.12951230  0.75242267  1
  O  O189  1  0.27642936  0.64287555  0.08050201  1
  O  O190  1  0.27923541  0.63373947  0.42965381  1
  O  O191  1  0.28123989  0.63214123  0.75674057  1
  O  O192  1  0.78171645  0.13053654  0.09358468  1
  O  O193  1  0.77974916  0.13113719  0.42701790  1
  O  O194  1  0.78744807  0.12692412  0.76693194  1
  O  O195  1  0.77688699  0.63527575  0.09597215  1
  O  O196  1  0.77716948  0.62971564  0.42538334  1
  O  O197  1  0.78184010  0.62753645  0.75753602  1
  O  O198  1  0.12598893  0.28074416  0.25870991  1
  O  O199  1  0.13258905  0.27940500  0.58752158  1
  O  O200  1  0.13297437  0.27179278  0.91163371  1
  O  O201  1  0.12930504  0.78062556  0.25548819  1
  O  O202  1  0.12879580  0.77880197  0.58567564  1
  O  O203  1  0.13498173  0.77298939  0.91499588  1
  O  O204  1  0.63317339  0.28134694  0.26314383  1
  O  O205  1  0.63528651  0.28730406  0.59260967  1
  O  O206  1  0.62537757  0.28155227  0.93128063  1
  O  O207  1  0.63370722  0.78751849  0.26338661  1
  O  O208  1  0.63028987  0.78132994  0.59782173  1
  O  O209  1  0.63194040  0.78436018  0.92633152  1
  O  O210  1  0.21299251  0.36222617  0.23317044  1
  O  O211  1  0.21951825  0.36899967  0.57217025  1
  O  O212  1  0.22402091  0.36928079  0.91413131  1
  O  O213  1  0.21678712  0.86883224  0.23912512  1
  O  O214  1  0.21719196  0.86844888  0.57279961  1
  O  O215  1  0.22295225  0.86801211  0.90965850  1
  O  O216  1  0.72401389  0.36736749  0.24901648  1
  O  O217  1  0.71367332  0.37623574  0.56597079  1
  O  O218  1  0.71903390  0.36271450  0.91364191  1
  O  O219  1  0.71709642  0.87570033  0.24031698  1
  O  O220  1  0.71976613  0.86596606  0.57887433  1
  O  O221  1  0.71784034  0.87377071  0.90901925  1
  O  O222  1  0.43540362  0.12123423  0.14312029  1
  O  O223  1  0.40970752  0.13380915  0.47965492  1
  O  O224  1  0.41723123  0.13374723  0.82134964  1
  O  O225  1  0.41239254  0.63450949  0.14667484  1
  O  O226  1  0.41720155  0.63403160  0.48764160  1
  O  O227  1  0.41929750  0.63458619  0.82016288  1
  O  O228  1  0.92042794  0.12893884  0.14773572  1
  O  O229  1  0.91797344  0.13170662  0.48467698  1
  O  O230  1  0.92651282  0.13442264  0.82018437  1
  O  O231  1  0.91485460  0.63914039  0.15406947  1
  O  O232  1  0.91477084  0.63364946  0.48735763  1
  O  O233  1  0.91998328  0.63341538  0.81691400  1
  O  O234  1  0.36543305  0.07623576  0.01072439  1
  O  O235  1  0.36077047  0.08310626  0.34241756  1
  O  O236  1  0.37500224  0.07657250  0.68561129  1
  O  O237  1  0.36515259  0.57782480  0.01153696  1
  O  O238  1  0.36591951  0.59239366  0.35179529  1
  O  O239  1  0.37174303  0.58065896  0.68482782  1
  O  O240  1  0.86383505  0.08303985  0.01212461  1
  O  O241  1  0.86399809  0.08096138  0.34812906  1
  O  O242  1  0.87289175  0.07550120  0.68660441  1
  O  O243  1  0.86189039  0.59692353  0.01658339  1
  O  O244  1  0.86667232  0.58254836  0.35081475  1
  O  O245  1  0.86841683  0.57319081  0.68139955  1
  O  O246  1  0.07431737  0.37192664  0.18666151  1
  O  O247  1  0.08077783  0.37194887  0.51707092  1
  O  O248  1  0.08740999  0.37060922  0.85008827  1
  O  O249  1  0.07846094  0.87116259  0.18364318  1
  O  O250  1  0.07846610  0.87059938  0.51464689  1
  O  O251  1  0.08425280  0.86848742  0.85002199  1
  O  O252  1  0.58705118  0.36453480  0.18224561  1
  O  O253  1  0.57495979  0.36749760  0.51217599  1
  O  O254  1  0.58132081  0.36777701  0.85171793  1
  O  O255  1  0.57899871  0.86748646  0.18139498  1
  O  O256  1  0.58267987  0.86172080  0.51459305  1
  O  O257  1  0.57957312  0.87033634  0.84935727  1
  O  O258  1  0.13830378  0.41839856  0.32030575  1
  O  O259  1  0.13683997  0.41674140  0.65245257  1
  O  O260  1  0.13207534  0.40684837  0.98683944  1
  O  O261  1  0.13441938  0.91837286  0.31979113  1
  O  O262  1  0.13246520  0.91658546  0.65059520  1
  O  O263  1  0.13496434  0.90972861  0.98574115  1
  O  O264  1  0.63108463  0.41937106  0.31827121  1
  O  O265  1  0.62660637  0.42536443  0.64574342  1
  O  O266  1  0.63185005  0.42005000  0.98684295  1
  O  O267  1  0.62777706  0.92583003  0.31613886  1
  O  O268  1  0.62997961  0.91979848  0.65141190  1
  O  O269  1  0.62955807  0.92204858  0.98490504  1
  O  O270  1  0.02578683  0.20401811  0.10026603  1
  O  O271  1  0.02799985  0.20509596  0.43777560  1
  O  O272  1  0.03365111  0.18666118  0.76835645  1
  O  O273  1  0.02291713  0.71037384  0.10097917  1
  O  O274  1  0.02938100  0.69966615  0.43527790  1
  O  O275  1  0.03795096  0.68733933  0.76606092  1
  O  O276  1  0.54273777  0.20392587  0.10643173  1
  O  O277  1  0.52996874  0.19670421  0.43200630  1
  O  O278  1  0.53662784  0.20238074  0.77933696  1
  O  O279  1  0.53585962  0.69629170  0.10387545  1
  O  O280  1  0.52622195  0.69916012  0.44210207  1
  O  O281  1  0.53084189  0.70136319  0.77138916  1
  O  O282  1  0.31755357  0.46474424  0.06208803  1
  O  O283  1  0.30725014  0.47204034  0.40115452  1
  O  O284  1  0.30214112  0.47030765  0.73249797  1
  O  O285  1  0.32179224  0.96065220  0.06528549  1
  O  O286  1  0.29545923  0.97096159  0.39747331  1
  O  O287  1  0.29818713  0.96750288  0.72883729  1
  O  O288  1  0.80594333  0.47421521  0.07027963  1
  O  O289  1  0.79876534  0.47051505  0.39570441  1
  O  O290  1  0.78430391  0.46334860  0.71674491  1
  O  O291  1  0.79826402  0.97336816  0.06125120  1
  O  O292  1  0.79626005  0.96828833  0.39584160  1
  O  O293  1  0.79267257  0.96948673  0.72595744  1
  O  O294  1  0.47297617  0.29080101  0.22667564  1
  O  O295  1  0.46303178  0.31144475  0.56447384  1
  O  O296  1  0.46706814  0.30247194  0.89325606  1
  O  O297  1  0.45878497  0.80455585  0.23127496  1
  O  O298  1  0.46945004  0.80173475  0.56673390  1
  O  O299  1  0.47227153  0.80032867  0.89658100  1
  O  O300  1  0.96653881  0.29455601  0.22873070  1
  O  O301  1  0.96946039  0.29586404  0.55505724  1
  O  O302  1  0.97736269  0.29047992  0.89878879  1
  O  O303  1  0.97140611  0.80115176  0.23119505  1
  O  O304  1  0.96811386  0.79960370  0.55629283  1
  O  O305  1  0.97023123  0.80368710  0.90248927  1
  O  O306  1  0.19784518  0.03073900  0.27115695  1
  O  O307  1  0.20188873  0.03027770  0.60328567  1
  O  O308  1  0.19361877  0.03248130  0.93079773  1
  O  O309  1  0.18655531  0.53955988  0.27301133  1
  O  O310  1  0.20357801  0.53093459  0.60295018  1
  O  O311  1  0.20099122  0.52657355  0.93001950  1
  O  O312  1  0.70144755  0.03240161  0.27244608  1
  O  O313  1  0.71123952  0.02961960  0.60775448  1
  O  O314  1  0.69560627  0.03107392  0.93721734  1
  O  O315  1  0.70712470  0.52436419  0.27292875  1
  O  O316  1  0.69754352  0.53587500  0.60519042  1
  O  O317  1  0.68288155  0.52993145  0.93487887  1
  O  O318  1  0.05787317  0.08037030  0.03103255  1
  O  O319  1  0.08955355  0.09755985  0.37805347  1
  O  O320  1  0.08315621  0.08031446  0.69129502  1
  O  O321  1  0.08510682  0.60283662  0.04072970  1
  O  O322  1  0.08952070  0.59059098  0.37223602  1
  O  O323  1  0.09006329  0.58355878  0.68810352  1
  O  O324  1  0.58514586  0.08513550  0.03752116  1
  O  O325  1  0.58669080  0.08591747  0.36883275  1
  O  O326  1  0.59316868  0.09337222  0.71352564  1
  O  O327  1  0.58878675  0.58620906  0.03712885  1
  O  O328  1  0.58018738  0.58446228  0.37829310  1
  O  O329  1  0.58029812  0.58690368  0.70383754  1
  O  O330  1  0.42711035  0.41397767  0.13312422  1
  O  O331  1  0.41531224  0.41265542  0.46301104  1
  O  O332  1  0.41450438  0.41857283  0.80012546  1
  O  O333  1  0.42264942  0.90963744  0.14428359  1
  O  O334  1  0.40166707  0.90728429  0.45919681  1
  O  O335  1  0.41018153  0.91610845  0.79841127  1
  O  O336  1  0.91557776  0.41456914  0.13196051  1
  O  O337  1  0.90946268  0.41420704  0.46037315  1
  O  O338  1  0.89598834  0.40498723  0.77334621  1
  O  O339  1  0.90893153  0.91878651  0.12598208  1
  O  O340  1  0.90714683  0.91150486  0.45887847  1
  O  O341  1  0.91602286  0.93767331  0.79716585  1
  O  O342  1  0.43337153  0.41054559  0.29490829  1
  O  O343  1  0.41487211  0.42020304  0.63902001  1
  O  O344  1  0.41778279  0.41593276  0.96321571  1
  O  O345  1  0.40293985  0.90894874  0.30240129  1
  O  O346  1  0.41171344  0.91148918  0.63124727  1
  O  O347  1  0.41912959  0.91394930  0.96087010  1
  O  O348  1  0.91467652  0.40807373  0.29216469  1
  O  O349  1  0.91609288  0.41080851  0.61513791  1
  O  O350  1  0.92590611  0.40725619  0.95488256  1
  O  O351  1  0.90742795  0.90703462  0.29034037  1
  O  O352  1  0.91529287  0.91445186  0.62070356  1
  O  O353  1  0.91557944  0.91682178  0.96302693  1
  O  O354  1  0.08908427  0.09178280  0.20922973  1
  O  O355  1  0.09288460  0.09054043  0.54325974  1
  O  O356  1  0.08777999  0.09472171  0.86719582  1
  O  O357  1  0.07920933  0.58763201  0.19626964  1
  O  O358  1  0.09168526  0.58567915  0.53770311  1
  O  O359  1  0.09333427  0.59085930  0.87383396  1
  O  O360  1  0.58873618  0.08250678  0.20297468  1
  O  O361  1  0.59693947  0.08592252  0.55089740  1
  O  O362  1  0.58079532  0.07977294  0.86883913  1
  O  O363  1  0.58699772  0.56396160  0.20653015  1
  O  O364  1  0.58166149  0.58038213  0.53534869  1
  O  O365  1  0.57751719  0.58501666  0.86430079  1
  O  O366  1  0.14047101  0.20418043  0.05968534  1
  O  O367  1  0.13646422  0.23186163  0.39566595  1
  O  O368  1  0.14035640  0.21655084  0.72486422  1
  O  O369  1  0.13303832  0.73683597  0.06098761  1
  O  O370  1  0.13714028  0.72603150  0.39235103  1
  O  O371  1  0.14166591  0.72044872  0.72135270  1
  O  O372  1  0.64133986  0.21448787  0.04741756  1
  O  O373  1  0.63721684  0.21879232  0.38639683  1
  O  O374  1  0.64374348  0.22688919  0.73383341  1
  O  O375  1  0.64051035  0.72066273  0.05591514  1
  O  O376  1  0.62945775  0.71677649  0.39109990  1
  O  O377  1  0.63777700  0.71931076  0.72366625  1
  O  O378  1  0.29259102  0.36428187  0.11406121  1
  O  O379  1  0.28020422  0.36307066  0.44317133  1
  O  O380  1  0.28094175  0.35864289  0.77301106  1
  O  O381  1  0.28469592  0.85568230  0.10808969  1
  O  O382  1  0.26600948  0.86275275  0.43887374  1
  O  O383  1  0.27652884  0.85925521  0.77320254  1
  O  O384  1  0.78149599  0.36554413  0.11290884  1
  O  O385  1  0.77577327  0.36137047  0.43824359  1
  O  O386  1  0.76651238  0.36274779  0.77016883  1
  O  O387  1  0.77468316  0.86495208  0.10383262  1
  O  O388  1  0.77393612  0.86778856  0.44920120  1
  O  O389  1  0.79026341  0.86450616  0.77819288  1
  O  O390  1  0.36191317  0.28250178  0.27030031  1
  O  O391  1  0.35948587  0.28521342  0.61306491  1
  O  O392  1  0.36263339  0.28223799  0.94196332  1
  O  O393  1  0.35268505  0.77274885  0.27514327  1
  O  O394  1  0.36180936  0.77758401  0.61126191  1
  O  O395  1  0.36193977  0.78041935  0.93834821  1
  O  O396  1  0.86363505  0.27607411  0.28050370  1
  O  O397  1  0.86452287  0.28138139  0.60597064  1
  O  O398  1  0.87030913  0.27847408  0.94749172  1
  O  O399  1  0.86061660  0.77221033  0.27062881  1
  O  O400  1  0.86269928  0.78249414  0.60528980  1
  O  O401  1  0.86452726  0.78495877  0.95250824  1
  O  O402  1  0.22347217  0.13753620  0.22640114  1
  O  O403  1  0.22726778  0.13882381  0.56034450  1
  O  O404  1  0.22389530  0.13305407  0.88023518  1
  O  O405  1  0.21534035  0.63809523  0.22154413  1
  O  O406  1  0.22522165  0.64127318  0.56163304  1
  O  O407  1  0.22773558  0.63669442  0.88954735  1
  O  O408  1  0.72194890  0.13659103  0.22336305  1
  O  O409  1  0.72825394  0.13751614  0.56160796  1
  O  O410  1  0.71357599  0.13903339  0.89136509  1
  O  O411  1  0.71457182  0.63356752  0.22655517  1
  O  O412  1  0.71298896  0.64212930  0.55641494  1
  O  O413  1  0.71381511  0.63628178  0.89101511  1
  O  O414  1  0.49524347  0.33201394  0.02687016  1
  O  O415  1  0.49296284  0.32227195  0.36081256  1
  O  O416  1  0.49189752  0.33624610  0.69878259  1
  O  O417  1  0.49151747  0.83328424  0.03021480  1
  O  O418  1  0.48391603  0.82610184  0.36251428  1
  O  O419  1  0.49209805  0.83563749  0.70002263  1
  O  O420  1  1.00057288  0.33619581  0.03392700  1
  O  O421  1  0.99396890  0.33374110  0.36422720  1
  O  O422  1  0.99760094  0.33912713  0.69010167  1
  O  O423  1  0.99459854  0.84612857  0.03778996  1
  O  O424  1  0.98731548  0.83200974  0.36236331  1
  O  O425  1  0.99501217  0.83980174  0.69131684  1
  O  O426  1  0.16066185  0.00834181  0.13761258  1
  O  O427  1  0.16685082  0.01098627  0.46999872  1
  O  O428  1  0.15597423  0.00575079  0.79585737  1
  O  O429  1  0.16145932  0.50425991  0.13883835  1
  O  O430  1  0.17437113  0.51144535  0.47060705  1
  O  O431  1  0.16390085  0.51013822  0.79761198  1
  O  O432  1  0.66818786  0.00500324  0.13740898  1
  O  O433  1  0.67098278  0.00830885  0.47380301  1
  O  O434  1  0.66283744  0.00678312  0.80292818  1
  O  O435  1  0.67317032  0.50242816  0.13799046  1
  O  O436  1  0.66742155  0.50860825  0.47108950  1
  O  O437  1  0.65875823  0.50657569  0.80157377  1
  O  O438  1  0.00855579  0.17114473  0.30502279  1
  O  O439  1  0.00849221  0.16900034  0.63631531  1
  O  O440  1  0.01121030  0.17368254  0.96675934  1
  O  O441  1  0.00862470  0.66616791  0.30218470  1
  O  O442  1  0.00983056  0.66946625  0.63394861  1
  O  O443  1  0.00614145  0.67840801  0.96814913  1
  O  O444  1  0.50697970  0.16014076  0.29780960  1
  O  O445  1  0.51210629  0.17214395  0.64637013  1
  O  O446  1  0.50604744  0.16262509  0.97025425  1
  O  O447  1  0.49737794  0.65574564  0.30654809  1
  O  O448  1  0.50560368  0.66807921  0.63733461  1
  O  O449  1  0.50969898  0.66516454  0.96950185  1
  O  O450  1  0.35012931  0.49752004  0.19657634  1
  O  O451  1  0.33967217  0.49138016  0.53448569  1
  O  O452  1  0.32860339  0.48854265  0.86496056  1
  O  O453  1  0.33279335  0.98706180  0.19594973  1
  O  O454  1  0.32802969  0.98989767  0.52995430  1
  O  O455  1  0.32612069  0.99065389  0.86203086  1
  O  O456  1  0.84198746  0.49402354  0.20370679  1
  O  O457  1  0.83067695  0.49190848  0.52851505  1
  O  O458  1  0.83036291  0.49340185  0.85186826  1
  O  O459  1  0.82940429  0.99382268  0.19487142  1
  O  O460  1  0.83855155  0.99810152  0.53121164  1
  O  O461  1  0.82662100  0.99821114  0.86157827  1
