# generated using pymatgen
data_Na31Fe20(SO4)36
_symmetry_space_group_name_H-M   'P 1'
_cell_length_a   18.06886282
_cell_length_b   18.07750367
_cell_length_c   19.69707829
_cell_angle_alpha   107.59984300
_cell_angle_beta   107.59754145
_cell_angle_gamma   90.69891862
_symmetry_Int_Tables_number   1
_chemical_formula_structural   Na31Fe20(SO4)36
_chemical_formula_sum   'Na62 Fe40 S72 O288'
_cell_volume   5807.57108450
_cell_formula_units_Z   2
loop_
 _symmetry_equiv_pos_site_id
 _symmetry_equiv_pos_as_xyz
  1  'x, y, z'
loop_
 _atom_site_type_symbol
 _atom_site_label
 _atom_site_symmetry_multiplicity
 _atom_site_fract_x
 _atom_site_fract_y
 _atom_site_fract_z
 _atom_site_occupancy
  Na  Na0  1  0.13628060  0.37146524  0.08590393  1
  Na  Na1  1  0.12725311  0.36831027  0.41415341  1
  Na  Na2  1  0.13673646  0.36320186  0.75297504  1
  Na  Na3  1  0.13111644  0.86566140  0.08452920  1
  Na  Na4  1  0.10831511  0.85532866  0.39045463  1
  Na  Na5  1  0.13655718  0.85842181  0.74365396  1
  Na  Na6  1  0.63533652  0.35291245  0.07776607  1
  Na  Na7  1  0.63203762  0.35605925  0.40747254  1
  Na  Na8  1  0.64963829  0.36494803  0.76119436  1
  Na  Na9  1  0.62939539  0.88005521  0.08449679  1
  Na  Na10  1  0.63912782  0.86791646  0.41376947  1
  Na  Na11  1  0.63217627  0.86252152  0.74469569  1
  Na  Na12  1  0.37532393  0.13315959  0.24487550  1
  Na  Na13  1  0.37051074  0.13118891  0.58685465  1
  Na  Na14  1  0.36887004  0.14333996  0.92491989  1
  Na  Na15  1  0.37247539  0.63553178  0.25207761  1
  Na  Na16  1  0.36323084  0.63948475  0.59019648  1
  Na  Na17  1  0.37017054  0.63198512  0.91671930  1
  Na  Na18  1  0.84192884  0.12122161  0.22524760  1
  Na  Na19  1  0.85194949  0.12836137  0.56489343  1
  Na  Na20  1  0.83967638  0.16148959  0.91935125  1
  Na  Na21  1  0.86423643  0.63232946  0.24873097  1
  Na  Na22  1  0.85693070  0.62862245  0.57972654  1
  Na  Na23  1  0.87842212  0.64138398  0.93660576  1
  Na  Na24  1  0.49057697  0.01425822  0.74309371  1
  Na  Na25  1  0.50253304  0.49197414  0.77647205  1
  Na  Na26  1  0.99637039  -0.04669966  0.18878340  1
  Na  Na27  1  0.51118548  -0.00122900  0.42159016  1
  Na  Na28  1  0.51084787  0.49220654  0.06772643  1
  Na  Na29  1  0.49352212  0.51310543  0.41081185  1
  Na  Na30  1  0.95931247  0.51102579  0.74031511  1
  Na  Na31  1  0.98822670  0.01148539  0.75025059  1
  Na  Na32  1  0.81838217  -0.03132833  0.28837317  1
  Na  Na33  1  0.52101305  0.48781847  0.58838295  1
  Na  Na34  1  -0.02807427  1.02109200  0.95050974  1
  Na  Na35  1  0.52702921  0.99144771  0.94169355  1
  Na  Na36  1  0.00846840  0.48873478  0.92479304  1
  Na  Na37  1  -0.01106447  0.53370583  0.19886880  1
  Na  Na38  1  0.02099018  0.99765798  0.56729117  1
  Na  Na39  1  -0.00539065  0.49504183  0.57159410  1
  Na  Na40  1  0.50377816  0.42637007  0.21828103  1
  Na  Na41  1  0.56266101  1.01470320  0.26406426  1
  Na  Na42  1  0.24680692  0.74673566  0.00221845  1
  Na  Na43  1  0.77591986  0.76485157  0.00713481  1
  Na  Na44  1  0.71374701  0.20286464  0.32681175  1
  Na  Na45  1  0.76290495  0.76398893  0.32289130  1
  Na  Na46  1  0.74346547  0.24364020  0.67516114  1
  Na  Na47  1  0.24168002  0.23985585  0.68098482  1
  Na  Na48  1  0.25338075  0.25282204  0.33137613  1
  Na  Na49  1  0.74922452  0.74741409  0.66650223  1
  Na  Na50  1  0.23375566  0.73931588  0.34169139  1
  Na  Na51  1  0.26288800  0.26035911  -0.01492860  1
  Na  Na52  1  0.23712363  0.74387286  0.17636656  1
  Na  Na53  1  0.27176338  0.26033873  0.15597776  1
  Na  Na54  1  0.23251038  0.73887686  0.50984929  1
  Na  Na55  1  0.75989379  0.26570124  0.50140549  1
  Na  Na56  1  0.75596449  0.75699406  0.49452889  1
  Na  Na57  1  0.25808297  0.75638947  0.82090531  1
  Na  Na58  1  0.73047031  0.23363283  0.15282281  1
  Na  Na59  1  0.75217967  0.74795398  0.83796837  1
  Na  Na60  1  0.24449101  0.24374205  0.50565490  1
  Na  Na61  1  0.77662522  0.77325104  0.16350024  1
  Fe  Fe62  1  0.96300841  0.30608921  0.44778372  1
  Fe  Fe63  1  0.47020219  0.80944831  0.12120502  1
  Fe  Fe64  1  0.46622510  0.30811458  0.78909979  1
  Fe  Fe65  1  0.96482778  0.81619640  0.79297353  1
  Fe  Fe66  1  0.46378656  0.80635086  0.78430035  1
  Fe  Fe67  1  0.46566251  0.30899147  0.45426805  1
  Fe  Fe68  1  0.96193434  0.80477805  0.45329206  1
  Fe  Fe69  1  0.96651343  0.30876777  0.11878790  1
  Fe  Fe70  1  0.46400259  0.81006454  0.45205866  1
  Fe  Fe71  1  0.96512492  0.30591334  0.78365055  1
  Fe  Fe72  1  0.19170175  0.03335970  0.37782807  1
  Fe  Fe73  1  0.68606205  0.03919450  0.71578138  1
  Fe  Fe74  1  0.19124684  0.53463507  0.71415126  1
  Fe  Fe75  1  0.19509226  0.03585123  0.71814136  1
  Fe  Fe76  1  0.69299782  0.53314216  0.04844310  1
  Fe  Fe77  1  0.19284597  0.53944807  0.04803576  1
  Fe  Fe78  1  0.19191100  0.53455099  0.38255382  1
  Fe  Fe79  1  0.19439850  0.03153792  0.04687913  1
  Fe  Fe80  1  0.70429146  0.53068161  0.71411026  1
  Fe  Fe81  1  0.69284665  0.53075951  0.38069384  1
  Fe  Fe82  1  0.54187650  0.19661113  0.89075357  1
  Fe  Fe83  1  0.53479957  0.19257267  0.55213446  1
  Fe  Fe84  1  0.03415818  0.69712968  0.88234217  1
  Fe  Fe85  1  0.53774412  0.69150099  0.21399184  1
  Fe  Fe86  1  0.03726748  0.18913372  0.21091484  1
  Fe  Fe87  1  0.03527338  0.19517169  0.88354515  1
  Fe  Fe88  1  0.54040198  0.69337453  0.88327480  1
  Fe  Fe89  1  0.03539801  0.68843088  0.54778618  1
  Fe  Fe90  1  0.03273287  0.18961239  0.54118139  1
  Fe  Fe91  1  0.53351886  0.69425119  0.54804840  1
  Fe  Fe92  1  0.30828822  0.46394778  0.95028960  1
  Fe  Fe93  1  0.79631068  0.97155162  0.95710581  1
  Fe  Fe94  1  0.80256802  0.96792496  0.62114515  1
  Fe  Fe95  1  0.81538841  0.46017012  0.29111839  1
  Fe  Fe96  1  0.81476401  0.45990397  0.95844963  1
  Fe  Fe97  1  0.30592580  0.46743312  0.28367552  1
  Fe  Fe98  1  0.31411941  0.96678149  0.95612448  1
  Fe  Fe99  1  0.30730057  0.46595310  0.61935357  1
  Fe  Fe100  1  0.30494616  0.96233033  0.61598256  1
  Fe  Fe101  1  0.31137935  0.97064775  0.28645475  1
  S  S102  1  0.35307328  0.14001671  0.08117794  1
  S  S103  1  0.35883941  0.14235152  0.41983773  1
  S  S104  1  0.36083970  0.13765798  0.74708156  1
  S  S105  1  0.36227607  0.64300032  0.08171956  1
  S  S106  1  0.35938955  0.64322981  0.41853523  1
  S  S107  1  0.36329247  0.63777159  0.75308691  1
  S  S108  1  0.86747856  0.13933356  0.07701242  1
  S  S109  1  0.85799394  0.14864879  0.41784738  1
  S  S110  1  0.86069535  0.14062312  0.75270339  1
  S  S111  1  0.85844844  0.63225051  0.08824828  1
  S  S112  1  0.85685994  0.63795677  0.41923923  1
  S  S113  1  0.86022281  0.64717820  0.75221015  1
  S  S114  1  0.14194932  0.36019762  0.24962567  1
  S  S115  1  0.14075695  0.35883942  0.58067241  1
  S  S116  1  0.13982793  0.36051168  0.91707239  1
  S  S117  1  0.14912919  0.86249685  0.24817604  1
  S  S118  1  0.13843901  0.86060473  0.58421166  1
  S  S119  1  0.14458125  0.85982813  0.91472357  1
  S  S120  1  0.64964511  0.35713153  0.25526820  1
  S  S121  1  0.64015510  0.36045401  0.58976744  1
  S  S122  1  0.63956853  0.36588452  0.91474825  1
  S  S123  1  0.64096445  0.85827260  0.25342660  1
  S  S124  1  0.63872744  0.85855865  0.58281505  1
  S  S125  1  0.63942894  0.85491861  0.91007696  1
  S  S126  1  0.07583774  0.17412918  0.04462382  1
  S  S127  1  0.07181232  0.17425797  0.37621799  1
  S  S128  1  0.06377278  0.16534513  0.70481807  1
  S  S129  1  0.07394284  0.67218999  0.04181542  1
  S  S130  1  0.06411499  0.66599305  0.38148340  1
  S  S131  1  0.06457680  0.66667572  0.70994529  1
  S  S132  1  0.56252399  0.17234736  0.03835082  1
  S  S133  1  0.55951099  0.17111660  0.38577109  1
  S  S134  1  0.56650179  0.17384782  0.71353671  1
  S  S135  1  0.57142765  0.67003421  0.04433148  1
  S  S136  1  0.56685640  0.66949161  0.37779513  1
  S  S137  1  0.56888523  0.66698761  0.70954183  1
  S  S138  1  0.33036975  0.44104013  0.11907842  1
  S  S139  1  0.33236716  0.43757146  0.46042326  1
  S  S140  1  0.32701379  0.43244356  0.78762966  1
  S  S141  1  0.33285258  0.92982506  0.12307463  1
  S  S142  1  0.33028202  0.93218032  0.45595763  1
  S  S143  1  0.33097421  0.93185844  0.78987475  1
  S  S144  1  0.82786276  0.42558736  0.12559770  1
  S  S145  1  0.83025221  0.43472486  0.45991155  1
  S  S146  1  0.83717640  0.43596751  0.79450369  1
  S  S147  1  0.82381795  0.92796116  0.11191503  1
  S  S148  1  0.83463139  0.93006349  0.46610124  1
  S  S149  1  0.82514722  0.93498353  0.79125718  1
  S  S150  1  0.42860679  0.33673170  0.29627479  1
  S  S151  1  0.43176605  0.33473005  0.62708263  1
  S  S152  1  0.43586200  0.33462084  0.95585185  1
  S  S153  1  0.43258601  0.83182784  0.29124214  1
  S  S154  1  0.42992422  0.82796309  0.62086739  1
  S  S155  1  0.43468847  0.82679024  0.95371952  1
  S  S156  1  0.93207111  0.32107547  0.28396749  1
  S  S157  1  0.94364223  0.33154382  0.62532558  1
  S  S158  1  0.93836403  0.33530539  0.95915488  1
  S  S159  1  0.93844188  0.81829678  0.29038306  1
  S  S160  1  0.92948587  0.82784130  0.62782886  1
  S  S161  1  0.93335989  0.83784163  0.95874096  1
  S  S162  1  0.17252356  0.06888270  0.20947034  1
  S  S163  1  0.17390367  0.06764295  0.54349163  1
  S  S164  1  0.16615788  0.06574384  0.87381446  1
  S  S165  1  0.17799279  0.57129163  0.21474149  1
  S  S166  1  0.17037696  0.56559465  0.54604069  1
  S  S167  1  0.16737406  0.56645060  0.87317249  1
  S  S168  1  0.66249178  0.06791448  0.19617485  1
  S  S169  1  0.66572685  0.06485980  0.54763537  1
  S  S170  1  0.66223956  0.06118641  0.86849168  1
  S  S171  1  0.66753310  0.56671954  0.21026350  1
  S  S172  1  0.66295814  0.56624835  0.54186810  1
  S  S173  1  0.67904148  0.57271564  0.87868198  1
  O  O174  1  0.35189495  0.21645844  0.06922903  1
  O  O175  1  0.36651165  0.22269353  0.41444371  1
  O  O176  1  0.37087689  0.21433245  0.73467294  1
  O  O177  1  0.37365233  0.71984893  0.06986996  1
  O  O178  1  0.36854719  0.72146089  0.40937841  1
  O  O179  1  0.37198127  0.71776097  0.74775826  1
  O  O180  1  0.88512144  0.21277214  0.06181425  1
  O  O181  1  0.86662111  0.23401264  0.42209072  1
  O  O182  1  0.87056591  0.21805310  0.74142833  1
  O  O183  1  0.86681432  0.71059149  0.08227143  1
  O  O184  1  0.86337523  0.71820885  0.41308477  1
  O  O185  1  0.86821722  0.72900884  0.74964735  1
  O  O186  1  0.27329611  0.12467920  0.09043405  1
  O  O187  1  0.27922389  0.13152345  0.42646771  1
  O  O188  1  0.27974240  0.12965923  0.75057500  1
  O  O189  1  0.28316152  0.63806930  0.09018668  1
  O  O190  1  0.27870057  0.63424477  0.42326591  1
  O  O191  1  0.28578309  0.62830728  0.76398258  1
  O  O192  1  0.79298066  0.13760444  0.08993916  1
  O  O193  1  0.78378278  0.13767644  0.43182723  1
  O  O194  1  0.78157320  0.13142932  0.75835871  1
  O  O195  1  0.77795517  0.62235348  0.09671508  1
  O  O196  1  0.77936082  0.62857727  0.43131069  1
  O  O197  1  0.77882856  0.63566732  0.75489966  1
  O  O198  1  0.13256991  0.28198880  0.25876563  1
  O  O199  1  0.13589436  0.27764151  0.58511245  1
  O  O200  1  0.13078494  0.28132859  0.92474629  1
  O  O201  1  0.15198418  0.78560295  0.25815508  1
  O  O202  1  0.12776627  0.78283319  0.59337331  1
  O  O203  1  0.13444854  0.77972078  0.92012407  1
  O  O204  1  0.63864303  0.28544382  0.27201838  1
  O  O205  1  0.62606528  0.28328553  0.60095924  1
  O  O206  1  0.63096203  0.28699252  0.92020878  1
  O  O207  1  0.62707315  0.77922281  0.26324043  1
  O  O208  1  0.62965700  0.77998430  0.59331921  1
  O  O209  1  0.63969290  0.77351613  0.91479214  1
  O  O210  1  0.21942568  0.36732178  0.23736607  1
  O  O211  1  0.21797087  0.37120361  0.56956392  1
  O  O212  1  0.21927556  0.37054813  0.91156391  1
  O  O213  1  0.22700650  0.88069075  0.23824127  1
  O  O214  1  0.21766976  0.86808151  0.57615100  1
  O  O215  1  0.22421347  0.86946919  0.90770295  1
  O  O216  1  0.73230866  0.36851478  0.25477888  1
  O  O217  1  0.71651511  0.36657119  0.58089036  1
  O  O218  1  0.71685677  0.37881154  0.90471709  1
  O  O219  1  0.72104339  0.86301730  0.24992757  1
  O  O220  1  0.71956482  0.86664024  0.57824966  1
  O  O221  1  0.71934659  0.87111511  0.90324893  1
  O  O222  1  0.41276195  0.13474773  0.14682859  1
  O  O223  1  0.41679112  0.13308318  0.48777891  1
  O  O224  1  0.41800702  0.13093582  0.81581259  1
  O  O225  1  0.42073779  0.63663977  0.15090254  1
  O  O226  1  0.41601335  0.63649166  0.48869360  1
  O  O227  1  0.42481877  0.62613215  0.81827255  1
  O  O228  1  0.93021941  0.12641993  0.14017929  1
  O  O229  1  0.92214275  0.13425136  0.48105394  1
  O  O230  1  0.91921371  0.13570057  0.82323560  1
  O  O231  1  0.91580672  0.61837525  0.15189230  1
  O  O232  1  0.91835396  0.63064064  0.48603908  1
  O  O233  1  0.91609137  0.63858488  0.82246595  1
  O  O234  1  0.35739613  0.07997574  0.00997559  1
  O  O235  1  0.36798781  0.08542904  0.35114265  1
  O  O236  1  0.37077841  0.07516858  0.68078933  1
  O  O237  1  0.36886777  0.58083183  0.01469569  1
  O  O238  1  0.37165026  0.58322481  0.35320866  1
  O  O239  1  0.36867047  0.58069243  0.68278327  1
  O  O240  1  0.86676380  0.07471420  0.00479971  1
  O  O241  1  0.86274415  0.10032409  0.34533085  1
  O  O242  1  0.87321680  0.07910634  0.68779384  1
  O  O243  1  0.86174551  0.57389581  0.01607672  1
  O  O244  1  0.86104227  0.58085997  0.34903526  1
  O  O245  1  0.87270341  0.59186516  0.68630703  1
  O  O246  1  0.08116969  0.37082592  0.18419950  1
  O  O247  1  0.07876129  0.36955824  0.51570309  1
  O  O248  1  0.08131188  0.36757830  0.84804504  1
  O  O249  1  0.08704502  0.86755604  0.18257717  1
  O  O250  1  0.07966141  0.87012875  0.51681775  1
  O  O251  1  0.08619960  0.86772697  0.84632766  1
  O  O252  1  0.59787223  0.36200425  0.18375907  1
  O  O253  1  0.57795953  0.37157429  0.52388357  1
  O  O254  1  0.57877225  0.37642959  0.84771421  1
  O  O255  1  0.58460697  0.86191011  0.18073272  1
  O  O256  1  0.58267483  0.86157202  0.51135692  1
  O  O257  1  0.58138911  0.85804043  0.83858187  1
  O  O258  1  0.13955514  0.41929558  0.32027144  1
  O  O259  1  0.13517762  0.41465989  0.65143365  1
  O  O260  1  0.12847832  0.41967129  0.98364448  1
  O  O261  1  0.14068198  0.92135548  0.31777025  1
  O  O262  1  0.13131075  0.92183789  0.65206639  1
  O  O263  1  0.13662216  0.91689026  0.98363028  1
  O  O264  1  0.63307735  0.42284570  0.31784360  1
  O  O265  1  0.63290933  0.42146301  0.65884254  1
  O  O266  1  0.63173997  0.42349007  0.98423043  1
  O  O267  1  0.62786886  0.91887029  0.31614550  1
  O  O268  1  0.62776230  0.91818529  0.64811698  1
  O  O269  1  0.62446614  0.90939240  0.97415407  1
  O  O270  1  0.04467559  0.20703141  0.10842838  1
  O  O271  1  0.03219407  0.20529728  0.43494057  1
  O  O272  1  0.03010987  0.19653957  0.76780827  1
  O  O273  1  0.04420079  0.69140609  0.10354219  1
  O  O274  1  0.02976433  0.70367957  0.44455289  1
  O  O275  1  0.02818144  0.69665378  0.77079171  1
  O  O276  1  0.52915920  0.20948733  0.09612331  1
  O  O277  1  0.52662861  0.20963170  0.45066970  1
  O  O278  1  0.53233801  0.20534881  0.77611917  1
  O  O279  1  0.53309811  0.70142381  0.10416013  1
  O  O280  1  0.52723147  0.69947935  0.43695723  1
  O  O281  1  0.53065863  0.69646230  0.76889520  1
  O  O282  1  0.29085827  0.47793499  0.05916174  1
  O  O283  1  0.30100379  0.47343312  0.39933203  1
  O  O284  1  0.29692240  0.46847261  0.72574054  1
  O  O285  1  0.30152149  0.96427820  0.06057735  1
  O  O286  1  0.30126669  0.97122467  0.39692653  1
  O  O287  1  0.29942748  0.96779911  0.72818018  1
  O  O288  1  0.79536059  0.45904093  0.06259178  1
  O  O289  1  0.79904803  0.47014029  0.39706614  1
  O  O290  1  0.81112015  0.47638263  0.73765324  1
  O  O291  1  0.79297905  0.96709151  0.05183046  1
  O  O292  1  0.82524405  0.96203184  0.40561346  1
  O  O293  1  0.79475005  0.97131997  0.73050518  1
  O  O294  1  0.45785759  0.31470176  0.23328577  1
  O  O295  1  0.46500709  0.30243100  0.56480713  1
  O  O296  1  0.46629065  0.29770530  0.89013781  1
  O  O297  1  0.46638455  0.80052237  0.22883084  1
  O  O298  1  0.46882044  0.80118329  0.56107980  1
  O  O299  1  0.47463121  0.79574611  0.89469267  1
  O  O300  1  0.97224690  0.29242325  0.22465661  1
  O  O301  1  0.97962097  0.29452737  0.56487934  1
  O  O302  1  0.97255259  0.30139510  0.89593071  1
  O  O303  1  0.99660120  0.77712386  0.26223250  1
  O  O304  1  0.96721677  0.79906128  0.56838890  1
  O  O305  1  0.96965246  0.80828085  0.89537579  1
  O  O306  1  0.20651835  0.03736385  0.27360893  1
  O  O307  1  0.20074455  0.02907340  0.60355349  1
  O  O308  1  0.19343045  0.02846018  0.93359064  1
  O  O309  1  0.20925243  0.52953074  0.27326743  1
  O  O310  1  0.20373582  0.53224991  0.60987388  1
  O  O311  1  0.19960113  0.53042894  0.93411443  1
  O  O312  1  0.69368035  0.04718022  0.26742342  1
  O  O313  1  0.70037519  0.03276919  0.61308422  1
  O  O314  1  0.69764490  0.02639272  0.92900039  1
  O  O315  1  0.69742650  0.53207327  0.27183817  1
  O  O316  1  0.68507280  0.53286861  0.60348207  1
  O  O317  1  0.70152838  0.53720115  0.93961034  1
  O  O318  1  0.09237815  0.09234689  0.03979831  1
  O  O319  1  0.09589152  0.09723673  0.37948815  1
  O  O320  1  0.08248403  0.08330545  0.70175165  1
  O  O321  1  0.09319200  0.58778718  0.02236202  1
  O  O322  1  0.10180871  0.59768333  0.39788313  1
  O  O323  1  0.08005156  0.58357934  0.70307507  1
  O  O324  1  0.58354533  0.09377859  0.03567826  1
  O  O325  1  0.57106611  0.09077450  0.38644358  1
  O  O326  1  0.58017202  0.09124167  0.70864022  1
  O  O327  1  0.58668174  0.58854569  0.04172123  1
  O  O328  1  0.58343241  0.58797727  0.37424656  1
  O  O329  1  0.58931463  0.58656193  0.70585199  1
  O  O330  1  0.40946827  0.43061060  0.11557711  1
  O  O331  1  0.41550868  0.42315308  0.46741290  1
  O  O332  1  0.40771190  0.41350802  0.79078637  1
  O  O333  1  0.41315426  0.91021786  0.12697839  1
  O  O334  1  0.41179637  0.91473311  0.45901396  1
  O  O335  1  0.41335343  0.91571298  0.79381471  1
  O  O336  1  0.91036756  0.41061322  0.12878978  1
  O  O337  1  0.90811130  0.40851606  0.45594088  1
  O  O338  1  0.92022970  0.41778712  0.79861567  1
  O  O339  1  0.88902643  0.88605107  0.09736913  1
  O  O340  1  0.91570737  0.90848117  0.49388530  1
  O  O341  1  0.90955563  0.92444375  0.80023420  1
  O  O342  1  0.40805458  0.42096885  0.30809003  1
  O  O343  1  0.41847115  0.41840040  0.63291882  1
  O  O344  1  0.40954045  0.41237022  0.95028875  1
  O  O345  1  0.41697866  0.91441882  0.29885481  1
  O  O346  1  0.41218402  0.90988806  0.62928025  1
  O  O347  1  0.41660291  0.90695784  0.95412036  1
  O  O348  1  0.91278575  0.40101819  0.28644065  1
  O  O349  1  0.93841272  0.41382205  0.62963794  1
  O  O350  1  0.92795852  0.41864416  0.96503710  1
  O  O351  1  0.91488590  0.88416001  0.26214539  1
  O  O352  1  0.90953607  0.90925930  0.63630041  1
  O  O353  1  0.89752804  0.91143364  0.95070012  1
  O  O354  1  0.09029296  0.08250474  0.20488548  1
  O  O355  1  0.09403921  0.08960020  0.54152268  1
  O  O356  1  0.08383958  0.08494137  0.86703350  1
  O  O357  1  0.10420605  0.59709366  0.22061117  1
  O  O358  1  0.08930459  0.58224136  0.54470054  1
  O  O359  1  0.08499636  0.58252217  0.86712642  1
  O  O360  1  0.57984829  0.08075324  0.18690706  1
  O  O361  1  0.58661923  0.08780853  0.54957068  1
  O  O362  1  0.58059694  0.07646959  0.86729495  1
  O  O363  1  0.58413349  0.58255596  0.20237032  1
  O  O364  1  0.57872394  0.58422640  0.52978700  1
  O  O365  1  0.59639764  0.59202139  0.86725949  1
  O  O366  1  0.14480991  0.22549718  0.05417819  1
  O  O367  1  0.14132982  0.23029335  0.39322657  1
  O  O368  1  0.13354783  0.21651690  0.71710606  1
  O  O369  1  0.14556645  0.72384386  0.05426597  1
  O  O370  1  0.12609891  0.72495994  0.38775244  1
  O  O371  1  0.13649811  0.71699796  0.72615170  1
  O  O372  1  0.63121205  0.22161567  0.03991634  1
  O  O373  1  0.63431933  0.21954327  0.40366184  1
  O  O374  1  0.63839955  0.22214576  0.72654547  1
  O  O375  1  0.64267803  0.72056459  0.05924649  1
  O  O376  1  0.63868399  0.72112848  0.39615151  1
  O  O377  1  0.63882710  0.72095927  0.72497950  1
  O  O378  1  0.28146216  0.36762082  0.10334249  1
  O  O379  1  0.28298860  0.36487745  0.44449203  1
  O  O380  1  0.27483386  0.36221021  0.77245249  1
  O  O381  1  0.27985120  0.85974976  0.10848175  1
  O  O382  1  0.27832553  0.86130349  0.44016079  1
  O  O383  1  0.28062134  0.86024850  0.77435118  1
  O  O384  1  0.77944791  0.35497305  0.11446197  1
  O  O385  1  0.77412561  0.36858552  0.44785931  1
  O  O386  1  0.78601124  0.36381139  0.77557102  1
  O  O387  1  0.75972839  0.86995048  0.10411492  1
  O  O388  1  0.77734452  0.85960356  0.44449483  1
  O  O389  1  0.77702640  0.86048568  0.77220836  1
  O  O390  1  0.35841673  0.28506385  0.28516912  1
  O  O391  1  0.35885282  0.28674795  0.61342033  1
  O  O392  1  0.36956605  0.28218198  0.94874739  1
  O  O393  1  0.36184269  0.78073274  0.27782053  1
  O  O394  1  0.35936475  0.77477515  0.60226111  1
  O  O395  1  0.36292521  0.77408848  0.93479195  1
  O  O396  1  0.86356944  0.26599583  0.26640691  1
  O  O397  1  0.86821731  0.28656216  0.60980906  1
  O  O398  1  0.86394295  0.29128240  0.94403523  1
  O  O399  1  0.86568512  0.76512489  0.27493325  1
  O  O400  1  0.85897405  0.77396771  0.61101734  1
  O  O401  1  0.86953702  0.77704323  0.94451841  1
  O  O402  1  0.22106104  0.14145423  0.22294446  1
  O  O403  1  0.22867876  0.13823851  0.56272942  1
  O  O404  1  0.21849782  0.13526070  0.88778886  1
  O  O405  1  0.23737700  0.63748115  0.23110789  1
  O  O406  1  0.22059806  0.63650565  0.55922756  1
  O  O407  1  0.21835020  0.63812929  0.88828936  1
  O  O408  1  0.71112856  0.14168895  0.20723800  1
  O  O409  1  0.71865390  0.13450190  0.56076558  1
  O  O410  1  0.70884503  0.13150802  0.87648207  1
  O  O411  1  0.71763851  0.63858597  0.22555683  1
  O  O412  1  0.71448960  0.63822934  0.55837707  1
  O  O413  1  0.73323665  0.64287575  0.89591706  1
  O  O414  1  0.50147372  0.35133862  0.02550820  1
  O  O415  1  0.49048299  0.34146690  0.36940722  1
  O  O416  1  0.49160334  0.33714247  0.69962618  1
  O  O417  1  0.49153283  0.82944612  0.02693261  1
  O  O418  1  0.49367722  0.83375412  0.36345054  1
  O  O419  1  0.48915124  0.82752198  0.69272965  1
  O  O420  1  0.99817881  0.33331289  0.02998604  1
  O  O421  1  0.99154625  0.32626228  0.35767623  1
  O  O422  1  0.99915985  0.32803410  0.69863276  1
  O  O423  1  0.99653600  0.85426273  0.02889670  1
  O  O424  1  0.97405512  0.85169689  0.37649652  1
  O  O425  1  0.98948069  0.83079183  0.70101460  1
  O  O426  1  0.17211290  0.00770742  0.13881811  1
  O  O427  1  0.17028031  0.00941174  0.47097791  1
  O  O428  1  0.16237581  0.00492590  0.80059409  1
  O  O429  1  0.16978466  0.51297837  0.13949504  1
  O  O430  1  0.16909914  0.50391406  0.47552800  1
  O  O431  1  0.16611671  0.50662249  0.80076997  1
  O  O432  1  0.67078080  0.00520894  0.13214132  1
  O  O433  1  0.65585021  0.00169412  0.47777767  1
  O  O434  1  0.65456224  -0.00047809  0.79377387  1
  O  O435  1  0.66475055  0.50645199  0.13763310  1
  O  O436  1  0.66407650  0.50661225  0.47082289  1
  O  O437  1  0.67869627  0.51225044  0.80708192  1
  O  O438  1  0.01433301  0.16632013  0.30179637  1
  O  O439  1  0.00268351  0.15843282  0.63173870  1
  O  O440  1  0.01166936  0.16807302  0.97283825  1
  O  O441  1  0.00066242  0.64019527  0.31064506  1
  O  O442  1  0.00582351  0.66516698  0.63697744  1
  O  O443  1  0.01294845  0.67496691  0.97005215  1
  O  O444  1  0.50259750  0.17230391  0.31577859  1
  O  O445  1  0.50539781  0.17350037  0.64225760  1
  O  O446  1  0.50024470  0.16383040  0.96068004  1
  O  O447  1  0.50957086  0.66848458  0.30472193  1
  O  O448  1  0.50924390  0.66286785  0.63596645  1
  O  O449  1  0.51237188  0.66705504  0.97079977  1
  O  O450  1  0.33406119  0.49617600  0.19439634  1
  O  O451  1  0.33317347  0.49662443  0.53286780  1
  O  O452  1  0.32876061  0.49323734  0.85893365  1
  O  O453  1  0.33603258  0.99130759  0.19473320  1
  O  O454  1  0.33312161  0.99032853  0.52958907  1
  O  O455  1  0.33285008  0.99172179  0.86173439  1
  O  O456  1  0.83250947  0.48823011  0.19763185  1
  O  O457  1  0.84443775  0.49693337  0.53180223  1
  O  O458  1  0.84220571  0.49137662  0.87004646  1
  O  O459  1  0.84808164  0.98999439  0.18535425  1
  O  O460  1  0.82453803  0.99136686  0.53382934  1
  O  O461  1  0.82164447  0.99181943  0.86308060  1
