# generated using pymatgen
data_Na31Fe20(SO4)36
_symmetry_space_group_name_H-M   'P 1'
_cell_length_a   18.08220948
_cell_length_b   18.08159390
_cell_length_c   19.72520748
_cell_angle_alpha   107.55998055
_cell_angle_beta   107.58842864
_cell_angle_gamma   90.78125684
_symmetry_Int_Tables_number   1
_chemical_formula_structural   Na31Fe20(SO4)36
_chemical_formula_sum   'Na62 Fe40 S72 O288'
_cell_volume   5822.18907082
_cell_formula_units_Z   2
loop_
 _symmetry_equiv_pos_site_id
 _symmetry_equiv_pos_as_xyz
  1  'x, y, z'
loop_
 _atom_site_type_symbol
 _atom_site_label
 _atom_site_symmetry_multiplicity
 _atom_site_fract_x
 _atom_site_fract_y
 _atom_site_fract_z
 _atom_site_occupancy
  Na  Na0  1  0.12378564  0.37166382  0.07919651  1
  Na  Na1  1  0.14317750  0.36377086  0.42314452  1
  Na  Na2  1  0.13474222  0.36901145  0.74937945  1
  Na  Na3  1  0.14107657  0.86957684  0.09034339  1
  Na  Na4  1  0.13715266  0.85874919  0.41178932  1
  Na  Na5  1  0.14550182  0.86914498  0.76004188  1
  Na  Na6  1  0.63299575  0.36381424  0.08082594  1
  Na  Na7  1  0.63149552  0.35374787  0.41476080  1
  Na  Na8  1  0.63607837  0.36083212  0.74967479  1
  Na  Na9  1  0.63313301  0.87315803  0.08437784  1
  Na  Na10  1  0.62733984  0.87149594  0.41340623  1
  Na  Na11  1  0.64888069  0.86791764  0.75582328  1
  Na  Na12  1  0.38140224  0.15169535  0.27582443  1
  Na  Na13  1  0.36019383  0.15367059  0.58239019  1
  Na  Na14  1  0.36425968  0.13199528  0.91997297  1
  Na  Na15  1  0.35198249  0.65947068  0.24755676  1
  Na  Na16  1  0.36284085  0.63815201  0.58427089  1
  Na  Na17  1  0.37680744  0.65834835  0.94012608  1
  Na  Na18  1  0.86035375  0.12782138  0.23749488  1
  Na  Na19  1  0.87473734  0.12950223  0.58621674  1
  Na  Na20  1  0.85969520  0.12760513  0.90703353  1
  Na  Na21  1  0.86121023  0.63219845  0.24673968  1
  Na  Na22  1  0.87159399  0.62757640  0.58566383  1
  Na  Na23  1  0.87355591  0.61022571  0.91925675  1
  Na  Na24  1  0.48843554  0.51673737  0.74476866  1
  Na  Na25  1  0.45602191  0.00503599  0.06919651  1
  Na  Na26  1  0.99396299  0.50368985  0.42664170  1
  Na  Na27  1  0.49929351  0.56221420  0.09702430  1
  Na  Na28  1  0.52369364  -0.01086065  0.72989555  1
  Na  Na29  1  0.49578962  0.50328711  0.41780902  1
  Na  Na30  1  0.99277508  0.01617239  0.73365345  1
  Na  Na31  1  0.99030607  0.50263914  0.75423066  1
  Na  Na32  1  0.98677438  -0.00075908  0.43024810  1
  Na  Na33  1  0.51799722  0.48613666  0.91493080  1
  Na  Na34  1  0.01787717  0.99628385  0.23840356  1
  Na  Na35  1  0.49032302  1.05095969  0.53706986  1
  Na  Na36  1  0.00358839  0.49859266  0.23382971  1
  Na  Na37  1  0.50886376  0.95085016  0.24347360  1
  Na  Na38  1  0.00571495  0.98259287  0.94329915  1
  Na  Na39  1  0.53546088  0.98718945  0.92759439  1
  Na  Na40  1  0.49653748  0.42217128  0.55573761  1
  Na  Na41  1  0.48060216  0.52602902  0.24095258  1
  Na  Na42  1  0.75070353  0.74423764  0.00316218  1
  Na  Na43  1  0.72421115  0.21919039  0.66981104  1
  Na  Na44  1  0.25076352  0.25682881  0.66069007  1
  Na  Na45  1  0.24773279  0.75006221  0.01511980  1
  Na  Na46  1  0.25009223  0.24415958  0.35378974  1
  Na  Na47  1  0.75277154  0.74907207  0.66627891  1
  Na  Na48  1  0.73591708  0.74219789  0.33566330  1
  Na  Na49  1  0.74252584  0.23717848  0.33789028  1
  Na  Na50  1  0.74362777  0.23905129  0.00297291  1
  Na  Na51  1  0.24431611  0.24933322  0.00436436  1
  Na  Na52  1  0.74186709  0.23740965  0.83453644  1
  Na  Na53  1  0.74400026  0.74693292  0.50038118  1
  Na  Na54  1  0.73621362  0.74090841  0.17079001  1
  Na  Na55  1  0.25116160  0.75328151  0.49925555  1
  Na  Na56  1  0.74601423  0.73699722  0.83729163  1
  Na  Na57  1  0.25261947  0.25149264  0.17758231  1
  Na  Na58  1  0.26585197  0.76995223  0.83001507  1
  Na  Na59  1  0.73512488  0.23274746  0.51110671  1
  Na  Na60  1  0.25138978  0.25205985  0.83442438  1
  Na  Na61  1  0.74268278  0.23634919  0.16789129  1
  Fe  Fe62  1  0.46600708  0.81331841  0.45410921  1
  Fe  Fe63  1  0.46329847  0.81026947  0.78441158  1
  Fe  Fe64  1  0.96509556  0.80811910  0.45684681  1
  Fe  Fe65  1  0.96461345  0.80451074  0.78967950  1
  Fe  Fe66  1  0.96625567  0.80381572  0.12131508  1
  Fe  Fe67  1  0.46512587  0.31490565  0.12162707  1
  Fe  Fe68  1  0.96642473  0.30427005  0.11298002  1
  Fe  Fe69  1  0.96263450  0.31131974  0.78676725  1
  Fe  Fe70  1  0.96509764  0.30804673  0.45233699  1
  Fe  Fe71  1  0.46126409  0.30759304  0.78413224  1
  Fe  Fe72  1  0.70532784  0.52753550  0.04386192  1
  Fe  Fe73  1  0.19995547  0.03446962  0.04594026  1
  Fe  Fe74  1  0.18797323  0.53800709  0.04883051  1
  Fe  Fe75  1  0.19036155  0.53990552  0.71367423  1
  Fe  Fe76  1  0.69134513  0.03316831  0.37477169  1
  Fe  Fe77  1  0.18874333  0.53984789  0.38172153  1
  Fe  Fe78  1  0.19361696  0.03054936  0.71314020  1
  Fe  Fe79  1  0.19386178  0.03743899  0.38511919  1
  Fe  Fe80  1  0.68953827  0.53362952  0.37683412  1
  Fe  Fe81  1  0.69230206  0.52585606  0.70905328  1
  Fe  Fe82  1  0.53450619  0.19019885  0.21081168  1
  Fe  Fe83  1  0.03836262  0.19510609  0.54766977  1
  Fe  Fe84  1  0.03724793  0.19166665  0.21307640  1
  Fe  Fe85  1  0.53660352  0.69183871  0.87935182  1
  Fe  Fe86  1  0.03609882  0.69556850  0.55378671  1
  Fe  Fe87  1  0.53337669  0.69205379  0.54552005  1
  Fe  Fe88  1  0.53227825  0.18758192  0.87837400  1
  Fe  Fe89  1  0.04004399  0.69247608  0.21543820  1
  Fe  Fe90  1  0.03395155  0.69424163  0.88630857  1
  Fe  Fe91  1  0.03445885  0.19648237  0.88011759  1
  Fe  Fe92  1  0.30439427  0.47099759  0.28481260  1
  Fe  Fe93  1  0.31086311  0.96533643  0.29203632  1
  Fe  Fe94  1  0.80844591  0.45967229  0.61565045  1
  Fe  Fe95  1  0.80584650  0.96620455  0.28253050  1
  Fe  Fe96  1  0.30498154  0.47002942  0.95303805  1
  Fe  Fe97  1  0.30324426  0.46848381  0.61575964  1
  Fe  Fe98  1  0.80117735  0.97001565  0.95771621  1
  Fe  Fe99  1  0.81026599  0.46065045  0.28554381  1
  Fe  Fe100  1  0.80236894  0.96521738  0.62298629  1
  Fe  Fe101  1  0.30860112  0.96628372  0.62053054  1
  S  S102  1  0.35744362  0.15100722  0.08749871  1
  S  S103  1  0.35585308  0.13786235  0.41761596  1
  S  S104  1  0.35479482  0.14228101  0.75125985  1
  S  S105  1  0.35612398  0.63928089  0.08354348  1
  S  S106  1  0.35917277  0.64381667  0.41618255  1
  S  S107  1  0.35851291  0.64160503  0.74983807  1
  S  S108  1  0.86385656  0.14072508  0.08183715  1
  S  S109  1  0.86372005  0.13798437  0.41579201  1
  S  S110  1  0.86420285  0.13919695  0.74714218  1
  S  S111  1  0.86304092  0.64007424  0.09011188  1
  S  S112  1  0.86112323  0.63919667  0.41809419  1
  S  S113  1  0.86078343  0.63389877  0.74949542  1
  S  S114  1  0.13868955  0.36185550  0.25078193  1
  S  S115  1  0.13857944  0.36484958  0.58210643  1
  S  S116  1  0.13919563  0.36376169  0.91488232  1
  S  S117  1  0.14090141  0.86420750  0.25270673  1
  S  S118  1  0.14009571  0.85837271  0.58434279  1
  S  S119  1  0.13821664  0.86035513  0.91928039  1
  S  S120  1  0.64331713  0.35744635  0.24975563  1
  S  S121  1  0.64489928  0.35259007  0.57809552  1
  S  S122  1  0.63794871  0.35554384  0.91652308  1
  S  S123  1  0.64645878  0.85777547  0.24750989  1
  S  S124  1  0.64146794  0.85434244  0.58653904  1
  S  S125  1  0.64348456  0.85352032  0.91013732  1
  S  S126  1  0.07269092  0.17207676  0.04278862  1
  S  S127  1  0.06586782  0.16910557  0.37339479  1
  S  S128  1  0.07239802  0.17347009  0.70951967  1
  S  S129  1  0.06863842  0.67363341  0.04555694  1
  S  S130  1  0.06282564  0.66830484  0.37772021  1
  S  S131  1  0.06766805  0.67290233  0.71533037  1
  S  S132  1  0.55805169  0.17048826  0.04308954  1
  S  S133  1  0.57222737  0.16296226  0.37039857  1
  S  S134  1  0.55495951  0.17069733  0.71013462  1
  S  S135  1  0.57668885  0.66043091  0.03613058  1
  S  S136  1  0.56324374  0.66652201  0.37473303  1
  S  S137  1  0.56744709  0.66479852  0.70581242  1
  S  S138  1  0.32394493  0.43525641  0.12280740  1
  S  S139  1  0.32688099  0.44316965  0.45327678  1
  S  S140  1  0.32784135  0.43792464  0.79185326  1
  S  S141  1  0.33019676  0.93982776  0.12837574  1
  S  S142  1  0.32727072  0.93295802  0.46159946  1
  S  S143  1  0.33591835  0.93873907  0.79134294  1
  S  S144  1  0.83083993  0.42706429  0.12554921  1
  S  S145  1  0.83062005  0.43082050  0.45309823  1
  S  S146  1  0.82687903  0.42688583  0.78299867  1
  S  S147  1  0.83582413  0.92927014  0.12500917  1
  S  S148  1  0.82815975  0.92975094  0.45735182  1
  S  S149  1  0.83751394  0.92982024  0.79582689  1
  S  S150  1  0.43745560  0.34532172  0.29225370  1
  S  S151  1  0.42731838  0.33897587  0.63273807  1
  S  S152  1  0.42962808  0.33716863  0.95965131  1
  S  S153  1  0.43152221  0.84041603  0.29982684  1
  S  S154  1  0.43338366  0.82877563  0.62135556  1
  S  S155  1  0.44700643  0.83218018  0.95390575  1
  S  S156  1  0.93584065  0.32847534  0.29065069  1
  S  S157  1  0.93432549  0.32861636  0.62152724  1
  S  S158  1  0.92903050  0.32510248  0.95028891  1
  S  S159  1  0.93324622  0.82995066  0.29390129  1
  S  S160  1  0.92964324  0.82696806  0.62568666  1
  S  S161  1  0.92685361  0.82471241  0.95878981  1
  S  S162  1  0.17525937  0.07059138  0.21248640  1
  S  S163  1  0.16738658  0.06670849  0.54347736  1
  S  S164  1  0.16588658  0.07145806  0.87393528  1
  S  S165  1  0.16648923  0.56721876  0.20971262  1
  S  S166  1  0.16725867  0.57007785  0.54065483  1
  S  S167  1  0.16920633  0.57075042  0.87619436  1
  S  S168  1  0.67130825  0.06632682  0.20377091  1
  S  S169  1  0.67942170  0.06596295  0.54288351  1
  S  S170  1  0.66665631  0.06333434  0.87517789  1
  S  S171  1  0.67201023  0.55885424  0.21055446  1
  S  S172  1  0.67180101  0.56674690  0.54049074  1
  S  S173  1  0.66814839  0.56242482  0.87051749  1
  O  O174  1  0.36561426  0.23159371  0.08120095  1
  O  O175  1  0.37032735  0.21091822  0.40417340  1
  O  O176  1  0.36073987  0.22351533  0.74674791  1
  O  O177  1  0.36723786  0.71313383  0.07029824  1
  O  O178  1  0.37231005  0.72390955  0.41451303  1
  O  O179  1  0.36957959  0.72010979  0.74292606  1
  O  O180  1  0.87448715  0.21893983  0.07073067  1
  O  O181  1  0.87339310  0.21646355  0.40664121  1
  O  O182  1  0.87854143  0.21485271  0.73400593  1
  O  O183  1  0.86785662  0.72249236  0.08712686  1
  O  O184  1  0.86896866  0.71852249  0.41040662  1
  O  O185  1  0.86936430  0.71253168  0.74046276  1
  O  O186  1  0.27603693  0.14135535  0.09040513  1
  O  O187  1  0.27277105  0.13172586  0.42038201  1
  O  O188  1  0.27554855  0.13030234  0.75846816  1
  O  O189  1  0.27407555  0.62747272  0.08502520  1
  O  O190  1  0.28029178  0.63505703  0.42476277  1
  O  O191  1  0.27955645  0.63323005  0.75800520  1
  O  O192  1  0.78842325  0.13452792  0.09352693  1
  O  O193  1  0.78524307  0.12974425  0.42386135  1
  O  O194  1  0.78580408  0.13396047  0.75322726  1
  O  O195  1  0.78597604  0.62866204  0.10371308  1
  O  O196  1  0.78097224  0.62904846  0.42353766  1
  O  O197  1  0.78106354  0.62412083  0.75522211  1
  O  O198  1  0.13114078  0.28194332  0.25777129  1
  O  O199  1  0.13116743  0.28608883  0.59160673  1
  O  O200  1  0.13318678  0.28453000  0.92358990  1
  O  O201  1  0.13081343  0.78670367  0.26168554  1
  O  O202  1  0.13020241  0.77920602  0.59080331  1
  O  O203  1  0.12598312  0.78318340  0.93131519  1
  O  O204  1  0.63132905  0.27785257  0.25554826  1
  O  O205  1  0.64669558  0.27812323  0.59265524  1
  O  O206  1  0.62294126  0.27883742  0.92888064  1
  O  O207  1  0.64018292  0.77936142  0.25319270  1
  O  O208  1  0.63279517  0.77177874  0.58989086  1
  O  O209  1  0.63926022  0.77029732  0.91051209  1
  O  O210  1  0.21753396  0.37230188  0.24323166  1
  O  O211  1  0.21562907  0.37476380  0.57116586  1
  O  O212  1  0.21758821  0.37355795  0.90482041  1
  O  O213  1  0.21996388  0.87670276  0.24601997  1
  O  O214  1  0.21841880  0.86888835  0.57582094  1
  O  O215  1  0.21407369  0.86825636  0.90944522  1
  O  O216  1  0.72308327  0.36326095  0.24220180  1
  O  O217  1  0.72253326  0.37017961  0.56744234  1
  O  O218  1  0.71129365  0.35700239  0.90082823  1
  O  O219  1  0.72845387  0.87118345  0.24284323  1
  O  O220  1  0.72344071  0.86228102  0.58319122  1
  O  O221  1  0.72160992  0.86711803  0.90087695  1
  O  O222  1  0.41284321  0.14579057  0.15916067  1
  O  O223  1  0.40869400  0.12739246  0.48526324  1
  O  O224  1  0.41341389  0.13496892  0.81934832  1
  O  O225  1  0.41099532  0.63003210  0.15213017  1
  O  O226  1  0.41817690  0.62894568  0.48155342  1
  O  O227  1  0.41765299  0.62941775  0.81588167  1
  O  O228  1  0.92642994  0.13424069  0.14918636  1
  O  O229  1  0.92374377  0.12986750  0.48362100  1
  O  O230  1  0.92313436  0.13158923  0.81625815  1
  O  O231  1  0.92494321  0.63413917  0.15809560  1
  O  O232  1  0.91916463  0.63185342  0.48729492  1
  O  O233  1  0.91947736  0.62664191  0.81800177  1
  O  O234  1  0.37038587  0.09332676  0.02331597  1
  O  O235  1  0.36065626  0.07306452  0.34907602  1
  O  O236  1  0.36292413  0.08671234  0.68208943  1
  O  O237  1  0.36841394  0.57570166  0.01721926  1
  O  O238  1  0.36456742  0.58677687  0.34559456  1
  O  O239  1  0.36534415  0.58232180  0.68064628  1
  O  O240  1  0.87039422  0.08094676  0.01340986  1
  O  O241  1  0.87219940  0.07784328  0.34850843  1
  O  O242  1  0.87513590  0.07583226  0.68220054  1
  O  O243  1  0.86648681  0.58464162  0.02146446  1
  O  O244  1  0.87241718  0.58032355  0.35169548  1
  O  O245  1  0.87138283  0.57457062  0.68256290  1
  O  O246  1  0.07923940  0.36984497  0.18261019  1
  O  O247  1  0.07762595  0.37089829  0.51444811  1
  O  O248  1  0.07953919  0.36986745  0.84664692  1
  O  O249  1  0.08140903  0.87233054  0.18436105  1
  O  O250  1  0.08062384  0.86646641  0.51617366  1
  O  O251  1  0.07564782  0.86631361  0.85130115  1
  O  O252  1  0.58618787  0.36870027  0.18258157  1
  O  O253  1  0.58367336  0.35409270  0.51019751  1
  O  O254  1  0.57361412  0.36861457  0.85356976  1
  O  O255  1  0.58998694  0.87051239  0.18260933  1
  O  O256  1  0.58710428  0.86037778  0.51532851  1
  O  O257  1  0.58330915  0.86226323  0.84208015  1
  O  O258  1  0.12864804  0.41966282  0.31826338  1
  O  O259  1  0.13244901  0.42365450  0.65100402  1
  O  O260  1  0.13216984  0.42177299  0.98320588  1
  O  O261  1  0.13075418  0.92494099  0.31956462  1
  O  O262  1  0.13215700  0.91643704  0.65308943  1
  O  O263  1  0.12852296  0.92216172  0.98610400  1
  O  O264  1  0.63786772  0.41535986  0.31923520  1
  O  O265  1  0.63309664  0.41487044  0.64433288  1
  O  O266  1  0.63662497  0.41719190  0.98678627  1
  O  O267  1  0.63966957  0.91612555  0.31800660  1
  O  O268  1  0.63030529  0.90955917  0.65240707  1
  O  O269  1  0.63424289  0.90696737  0.97804609  1
  O  O270  1  0.03660920  0.20222572  0.10399420  1
  O  O271  1  0.03262648  0.20116949  0.43655710  1
  O  O272  1  0.03783502  0.20522410  0.77102763  1
  O  O273  1  0.03168379  0.70422740  0.10696762  1
  O  O274  1  0.02618147  0.69755583  0.43843555  1
  O  O275  1  0.02843172  0.70124085  0.77475949  1
  O  O276  1  0.52448229  0.20950581  0.10563475  1
  O  O277  1  0.54033160  0.17752974  0.43078356  1
  O  O278  1  0.52230539  0.20635970  0.77593106  1
  O  O279  1  0.54555751  0.68309280  0.09790443  1
  O  O280  1  0.53329093  0.69819517  0.44031200  1
  O  O281  1  0.52945320  0.69355779  0.76520775  1
  O  O282  1  0.29147606  0.46630195  0.05879306  1
  O  O283  1  0.28855873  0.47821109  0.39184054  1
  O  O284  1  0.29720356  0.47195311  0.72929032  1
  O  O285  1  0.29999154  0.98414389  0.07494954  1
  O  O286  1  0.29517244  0.96615066  0.39748067  1
  O  O287  1  0.30003534  0.96814931  0.72388817  1
  O  O288  1  0.80156134  0.46272650  0.06645697  1
  O  O289  1  0.79998469  0.46993851  0.39412738  1
  O  O290  1  0.79493442  0.46203783  0.71924781  1
  O  O291  1  0.81468780  0.96319148  0.06403864  1
  O  O292  1  0.80133302  0.96834276  0.39789202  1
  O  O293  1  0.82061336  0.96464603  0.73543416  1
  O  O294  1  0.46941746  0.31206897  0.22821518  1
  O  O295  1  0.45408659  0.30856864  0.56887933  1
  O  O296  1  0.46215027  0.30344856  0.89727321  1
  O  O297  1  0.46505433  0.82523863  0.23989836  1
  O  O298  1  0.47159901  0.80029736  0.56157204  1
  O  O299  1  0.47681803  0.79136942  0.88677755  1
  O  O300  1  0.97065635  0.29873173  0.22893937  1
  O  O301  1  0.97172096  0.29889119  0.56066804  1
  O  O302  1  0.97079196  0.29299522  0.89108815  1
  O  O303  1  0.97169392  0.80183699  0.23475613  1
  O  O304  1  0.96794851  0.79818007  0.56564219  1
  O  O305  1  0.96158037  0.79227258  0.89620143  1
  O  O306  1  0.20307630  0.02996289  0.27080700  1
  O  O307  1  0.19579394  0.02913239  0.60344257  1
  O  O308  1  0.18534748  0.03851002  0.93550726  1
  O  O309  1  0.19809980  0.53034215  0.27113031  1
  O  O310  1  0.19946143  0.53680694  0.60372883  1
  O  O311  1  0.19670013  0.53206335  0.93536336  1
  O  O312  1  0.70377386  0.03480721  0.26981205  1
  O  O313  1  0.70604799  0.02009627  0.59537085  1
  O  O314  1  0.69986286  0.03228559  0.93839017  1
  O  O315  1  0.70894303  0.52326971  0.27234315  1
  O  O316  1  0.70188723  0.53230052  0.60235872  1
  O  O317  1  0.69098733  0.52762886  0.93072007  1
  O  O318  1  0.09493943  0.09288261  0.04109652  1
  O  O319  1  0.08379884  0.08754500  0.37011950  1
  O  O320  1  0.08985306  0.09231934  0.70601920  1
  O  O321  1  0.08921172  0.59485601  0.04459974  1
  O  O322  1  0.07739121  0.58453064  0.37072506  1
  O  O323  1  0.08496913  0.59160859  0.71103916  1
  O  O324  1  0.56225180  0.08854828  0.03831203  1
  O  O325  1  0.58772732  0.07894974  0.34346822  1
  O  O326  1  0.56987045  0.09077170  0.70710031  1
  O  O327  1  0.59747195  0.57703267  0.02552771  1
  O  O328  1  0.58235525  0.58376032  0.37148198  1
  O  O329  1  0.58385501  0.58253811  0.69963183  1
  O  O330  1  0.40615886  0.41929317  0.12833088  1
  O  O331  1  0.40801110  0.43613903  0.45471407  1
  O  O332  1  0.41028598  0.42125912  0.79863557  1
  O  O333  1  0.41144170  0.92903720  0.13192119  1
  O  O334  1  0.40951573  0.91853064  0.46889240  1
  O  O335  1  0.41588300  0.91724569  0.78921722  1
  O  O336  1  0.91193262  0.40675582  0.13048345  1
  O  O337  1  0.91209390  0.41443295  0.45513875  1
  O  O338  1  0.90869109  0.41075593  0.78232042  1
  O  O339  1  0.91826750  0.90818410  0.13846495  1
  O  O340  1  0.90927123  0.90990911  0.46023181  1
  O  O341  1  0.92204137  0.91363150  0.81521413  1
  O  O342  1  0.41233074  0.42491697  0.28947070  1
  O  O343  1  0.40905740  0.42310824  0.63828492  1
  O  O344  1  0.41490828  0.41946496  0.96304547  1
  O  O345  1  0.41097087  0.92556385  0.31689473  1
  O  O346  1  0.41423601  0.91003656  0.62655053  1
  O  O347  1  0.44089998  0.91360058  0.95395992  1
  O  O348  1  0.92066782  0.41179892  0.29820793  1
  O  O349  1  0.91667815  0.41008597  0.62630199  1
  O  O350  1  0.90841721  0.40108281  0.94966843  1
  O  O351  1  0.91564071  0.91212409  0.30058685  1
  O  O352  1  0.90815467  0.90643505  0.62839562  1
  O  O353  1  0.90699573  0.90422917  0.95955466  1
  O  O354  1  0.09428377  0.08923611  0.21111607  1
  O  O355  1  0.08581657  0.08618400  0.53758149  1
  O  O356  1  0.08256046  0.09049032  0.85728919  1
  O  O357  1  0.08528486  0.58396616  0.20974463  1
  O  O358  1  0.08662071  0.58984336  0.53888368  1
  O  O359  1  0.08713258  0.58862341  0.86952065  1
  O  O360  1  0.59032324  0.08683989  0.19947599  1
  O  O361  1  0.60806183  0.09790954  0.55065781  1
  O  O362  1  0.58534839  0.08423800  0.87632287  1
  O  O363  1  0.59085486  0.56779174  0.20840561  1
  O  O364  1  0.59050185  0.58546251  0.53469548  1
  O  O365  1  0.58520512  0.58296943  0.85947871  1
  O  O366  1  0.14097171  0.22809208  0.05796022  1
  O  O367  1  0.13463926  0.22105101  0.38479806  1
  O  O368  1  0.14352633  0.22521093  0.72331912  1
  O  O369  1  0.13572055  0.72845631  0.05838207  1
  O  O370  1  0.13536684  0.71791150  0.39520278  1
  O  O371  1  0.13793213  0.72593135  0.73299911  1
  O  O372  1  0.63451819  0.21537698  0.05999166  1
  O  O373  1  0.64696643  0.21477553  0.39049492  1
  O  O374  1  0.62852874  0.22189216  0.72855858  1
  O  O375  1  0.64636659  0.71276933  0.04690238  1
  O  O376  1  0.63590876  0.71617623  0.38872711  1
  O  O377  1  0.64020346  0.71591019  0.72356435  1
  O  O378  1  0.27341486  0.36481404  0.11152533  1
  O  O379  1  0.28100903  0.36869712  0.43785629  1
  O  O380  1  0.27694904  0.36553370  0.77586798  1
  O  O381  1  0.27854935  0.86740292  0.10720569  1
  O  O382  1  0.27669574  0.86295150  0.44933442  1
  O  O383  1  0.28467549  0.86933378  0.78052687  1
  O  O384  1  0.77846242  0.35704654  0.11361034  1
  O  O385  1  0.78007197  0.35860642  0.43555234  1
  O  O386  1  0.77792947  0.35302441  0.76507365  1
  O  O387  1  0.78086754  0.86039237  0.10949677  1
  O  O388  1  0.77517901  0.85845667  0.44014083  1
  O  O389  1  0.78588550  0.85627179  0.77446767  1
  O  O390  1  0.36878938  0.29273003  0.28208515  1
  O  O391  1  0.35804190  0.29263093  0.63018501  1
  O  O392  1  0.35707588  0.28872342  0.94763873  1
  O  O393  1  0.36197284  0.78956653  0.28691467  1
  O  O394  1  0.36358913  0.77530094  0.60433484  1
  O  O395  1  0.36992205  0.78883027  0.93716767  1
  O  O396  1  0.86378109  0.27841809  0.27566341  1
  O  O397  1  0.86432530  0.27557287  0.60457624  1
  O  O398  1  0.86217961  0.26611718  0.93361332  1
  O  O399  1  0.86260062  0.77708232  0.27750613  1
  O  O400  1  0.86058402  0.77098320  0.60832081  1
  O  O401  1  0.85772770  0.77113433  0.94581093  1
  O  O402  1  0.22755820  0.14293648  0.23228419  1
  O  O403  1  0.21971995  0.13734686  0.56012126  1
  O  O404  1  0.21976102  0.14247268  0.89147628  1
  O  O405  1  0.21559433  0.63764976  0.22307817  1
  O  O406  1  0.21902215  0.63753934  0.54915975  1
  O  O407  1  0.22186078  0.64177490  0.89392965  1
  O  O408  1  0.72406120  0.13935428  0.22247040  1
  O  O409  1  0.74176260  0.13079628  0.56072318  1
  O  O410  1  0.71645788  0.13572873  0.88710353  1
  O  O411  1  0.72023549  0.63379832  0.22942371  1
  O  O412  1  0.72517162  0.63709927  0.55559386  1
  O  O413  1  0.72244060  0.63239784  0.88674222  1
  O  O414  1  0.48962639  0.34007716  0.03228164  1
  O  O415  1  0.50008696  0.35891389  0.36337252  1
  O  O416  1  0.49206752  0.34773695  0.70569719  1
  O  O417  1  0.50400140  0.82666031  0.02179345  1
  O  O418  1  0.49381872  0.84053394  0.37171230  1
  O  O419  1  0.49309994  0.83207932  0.69425004  1
  O  O420  1  0.98928534  0.32641827  0.02344192  1
  O  O421  1  0.99551010  0.33006332  0.36295993  1
  O  O422  1  0.99419336  0.33230656  0.69430326  1
  O  O423  1  0.98877393  0.82952459  0.03034018  1
  O  O424  1  0.99248043  0.83280009  0.36730484  1
  O  O425  1  0.98862660  0.83202576  0.69899883  1
  O  O426  1  0.17136853  0.01459936  0.13878166  1
  O  O427  1  0.16310388  0.00703898  0.47042483  1
  O  O428  1  0.16910772  0.01036105  0.80398382  1
  O  O429  1  0.16111127  0.50640647  0.13707036  1
  O  O430  1  0.15799514  0.50629679  0.46801255  1
  O  O431  1  0.16626457  0.51169409  0.80284786  1
  O  O432  1  0.67093846  0.00703674  0.13529919  1
  O  O433  1  0.66689833  0.01186906  0.46424035  1
  O  O434  1  0.65718390  0.00345396  0.80293891  1
  O  O435  1  0.67456934  0.50413974  0.13801888  1
  O  O436  1  0.66903359  0.50643868  0.46831275  1
  O  O437  1  0.66532051  0.50257325  0.79752150  1
  O  O438  1  0.00379696  0.16292197  0.30085390  1
  O  O439  1  0.01273897  0.17104597  0.63713825  1
  O  O440  1  0.01251599  0.16487072  0.96952037  1
  O  O441  1  0.00535725  0.66723940  0.30499509  1
  O  O442  1  0.00902622  0.67068880  0.64219912  1
  O  O443  1  0.00647780  0.66699814  0.97279958  1
  O  O444  1  0.51501365  0.17816196  0.30293924  1
  O  O445  1  0.49568710  0.17296424  0.64136934  1
  O  O446  1  0.50255875  0.17687990  0.97169069  1
  O  O447  1  0.50154343  0.66186550  0.30549019  1
  O  O448  1  0.50927577  0.66509860  0.63350003  1
  O  O449  1  0.51438023  0.65591705  0.96305944  1
  O  O450  1  0.32697346  0.49808980  0.19361835  1
  O  O451  1  0.32569017  0.49921804  0.52653273  1
  O  O452  1  0.32864186  0.49746708  0.86313378  1
  O  O453  1  0.33018561  0.99127447  0.20597018  1
  O  O454  1  0.32813515  0.99621202  0.53197620  1
  O  O455  1  0.34322906  1.00258632  0.85934476  1
  O  O456  1  0.83918144  0.48765900  0.20086542  1
  O  O457  1  0.83335282  0.48818847  0.52651613  1
  O  O458  1  0.82894102  0.48513081  0.85240793  1
  O  O459  1  0.83792145  0.99112860  0.19674047  1
  O  O460  1  0.83223001  0.98681535  0.53069042  1
  O  O461  1  0.82895035  0.98785761  0.86456116  1
