# generated using pymatgen
data_Na31Fe20(SO4)36
_symmetry_space_group_name_H-M   'P 1'
_cell_length_a   18.07495686
_cell_length_b   18.07259836
_cell_length_c   19.71296253
_cell_angle_alpha   107.56321085
_cell_angle_beta   107.57008133
_cell_angle_gamma   90.69705399
_symmetry_Int_Tables_number   1
_chemical_formula_structural   Na31Fe20(SO4)36
_chemical_formula_sum   'Na62 Fe40 S72 O288'
_cell_volume   5814.98660547
_cell_formula_units_Z   2
loop_
 _symmetry_equiv_pos_site_id
 _symmetry_equiv_pos_as_xyz
  1  'x, y, z'
loop_
 _atom_site_type_symbol
 _atom_site_label
 _atom_site_symmetry_multiplicity
 _atom_site_fract_x
 _atom_site_fract_y
 _atom_site_fract_z
 _atom_site_occupancy
  Na  Na0  1  0.13622150  0.36972046  0.08661554  1
  Na  Na1  1  0.12128256  0.37294775  0.41674400  1
  Na  Na2  1  0.13143255  0.37475211  0.75296166  1
  Na  Na3  1  0.14771636  0.87043255  0.09332013  1
  Na  Na4  1  0.13391682  0.86565845  0.41431357  1
  Na  Na5  1  0.12347691  0.86631801  0.74414280  1
  Na  Na6  1  0.63640212  0.35731994  0.08491995  1
  Na  Na7  1  0.63449742  0.36686380  0.42396365  1
  Na  Na8  1  0.64205516  0.35764487  0.75126771  1
  Na  Na9  1  0.63881003  0.86229905  0.08670407  1
  Na  Na10  1  0.64290845  0.86654299  0.41530021  1
  Na  Na11  1  0.62954970  0.85397533  0.73241168  1
  Na  Na12  1  0.37490647  0.13299687  0.25387416  1
  Na  Na13  1  0.36678816  0.13291782  0.58267129  1
  Na  Na14  1  0.36366625  0.13294750  0.91479628  1
  Na  Na15  1  0.36842830  0.63829290  0.25144509  1
  Na  Na16  1  0.36641568  0.64370615  0.59064040  1
  Na  Na17  1  0.35811753  0.63455935  0.91329647  1
  Na  Na18  1  0.87705406  0.13619911  0.26526784  1
  Na  Na19  1  0.85914441  0.12552164  0.56696804  1
  Na  Na20  1  0.85788024  0.13438424  0.90519557  1
  Na  Na21  1  0.85054284  0.66369872  0.27122547  1
  Na  Na22  1  0.86663140  0.61562713  0.57679215  1
  Na  Na23  1  0.87024642  0.63520324  0.92233590  1
  Na  Na24  1  0.49445866  0.51399274  0.73164729  1
  Na  Na25  1  0.48681278  0.03629182  0.10559094  1
  Na  Na26  1  0.47051832  0.01466285  0.40454614  1
  Na  Na27  1  0.48983153  0.01212116  0.75102194  1
  Na  Na28  1  0.48763916  0.50540597  0.08956071  1
  Na  Na29  1  0.96407906  0.50878145  0.73637732  1
  Na  Na30  1  0.99070108  0.00118064  0.10253646  1
  Na  Na31  1  1.00012751  -0.01765256  0.44949907  1
  Na  Na32  1  0.99440581  0.51648629  0.07491719  1
  Na  Na33  1  0.55432485  0.99411903  0.27636905  1
  Na  Na34  1  -0.02804583  0.51421169  0.27888194  1
  Na  Na35  1  0.48400733  0.54414651  0.52119563  1
  Na  Na36  1  -0.00232295  0.45144309  0.55687860  1
  Na  Na37  1  0.50726399  0.48079712  0.27113805  1
  Na  Na38  1  0.51524007  0.49234436  0.91671075  1
  Na  Na39  1  0.50984211  0.98088555  0.92036996  1
  Na  Na40  1  0.51533117  0.98045367  0.57804903  1
  Na  Na41  1  0.01348568  0.99806466  0.90189880  1
  Na  Na42  1  0.24679297  0.24908876  0.33588510  1
  Na  Na43  1  0.75017208  0.74423405  0.65300891  1
  Na  Na44  1  0.75873305  0.25633694  -0.01286104  1
  Na  Na45  1  0.74176208  0.73910466  0.01340983  1
  Na  Na46  1  0.73790400  0.23430470  0.33882019  1
  Na  Na47  1  0.25845143  0.76476053  0.32516447  1
  Na  Na48  1  0.23237159  0.73312583  0.67550491  1
  Na  Na49  1  0.24528445  0.24855820  0.00182788  1
  Na  Na50  1  0.75561484  0.25632480  0.66340652  1
  Na  Na51  1  0.25107420  0.25797448  0.66725419  1
  Na  Na52  1  0.75812026  0.25628280  0.49923704  1
  Na  Na53  1  0.24870016  0.24693384  0.17015535  1
  Na  Na54  1  0.24755900  0.25102475  0.50100834  1
  Na  Na55  1  0.75201178  0.75390095  0.82962949  1
  Na  Na56  1  0.74010682  0.23860688  0.17465780  1
  Na  Na57  1  0.24475239  0.74886118  0.50104796  1
  Na  Na58  1  0.26786115  0.76698846  0.15396570  1
  Na  Na59  1  0.76954818  0.75245494  0.47907239  1
  Na  Na60  1  0.23280964  0.73203620  0.84438799  1
  Na  Na61  1  0.24990726  0.25297568  0.83287806  1
  Fe  Fe62  1  0.96121934  0.80800002  0.78551904  1
  Fe  Fe63  1  0.46703742  0.29901319  0.12481383  1
  Fe  Fe64  1  0.96288888  0.81341287  0.12376518  1
  Fe  Fe65  1  0.46571618  0.31269459  0.45778339  1
  Fe  Fe66  1  0.46588840  0.30603020  0.78661143  1
  Fe  Fe67  1  0.46891208  0.80189141  0.78137204  1
  Fe  Fe68  1  0.96439702  0.30921916  0.11755021  1
  Fe  Fe69  1  0.46680183  0.80960801  0.12103937  1
  Fe  Fe70  1  0.47345263  0.79743369  0.45217670  1
  Fe  Fe71  1  0.96261760  0.31194555  0.78691536  1
  Fe  Fe72  1  0.20260034  0.02992162  0.37323916  1
  Fe  Fe73  1  0.69897518  0.53031878  0.70791535  1
  Fe  Fe74  1  0.19705184  0.03246331  0.04595025  1
  Fe  Fe75  1  0.69242240  0.03505474  0.05010510  1
  Fe  Fe76  1  0.18774020  0.03523154  0.70781831  1
  Fe  Fe77  1  0.69333697  0.03856004  0.71498113  1
  Fe  Fe78  1  0.69550891  0.52980579  0.38698382  1
  Fe  Fe79  1  0.69475851  0.53611941  0.05580780  1
  Fe  Fe80  1  0.18715582  0.54117876  0.04610252  1
  Fe  Fe81  1  0.18871676  0.53839473  0.37903065  1
  Fe  Fe82  1  0.02816382  0.69874833  0.54551185  1
  Fe  Fe83  1  0.03363054  0.19535058  0.21405594  1
  Fe  Fe84  1  0.53579250  0.19298571  0.88340126  1
  Fe  Fe85  1  0.02790179  0.70162167  0.21933881  1
  Fe  Fe86  1  0.03436806  0.19156730  0.87256495  1
  Fe  Fe87  1  0.03419592  0.19625557  0.53706757  1
  Fe  Fe88  1  0.03725052  0.69110349  0.88105363  1
  Fe  Fe89  1  0.54291209  0.68929447  0.21709634  1
  Fe  Fe90  1  0.53696405  0.69056305  0.88158848  1
  Fe  Fe91  1  0.53551295  0.19013610  0.54916486  1
  Fe  Fe92  1  0.29660354  0.47052815  0.62367687  1
  Fe  Fe93  1  0.80826059  0.96863897  0.61376804  1
  Fe  Fe94  1  0.80625218  0.96581018  0.95336749  1
  Fe  Fe95  1  0.80192038  0.96224760  0.29229364  1
  Fe  Fe96  1  0.80628413  0.45810786  0.28840700  1
  Fe  Fe97  1  0.31026976  0.96085974  0.95114158  1
  Fe  Fe98  1  0.80676176  0.46377425  0.95154110  1
  Fe  Fe99  1  0.30273945  0.46817797  0.95247377  1
  Fe  Fe100  1  0.30631269  0.96355144  0.61728320  1
  Fe  Fe101  1  0.30534278  0.46926245  0.28918786  1
  S  S102  1  0.35566711  0.14098096  0.07897397  1
  S  S103  1  0.36052130  0.14623024  0.42030079  1
  S  S104  1  0.35949721  0.13897628  0.75079847  1
  S  S105  1  0.36271514  0.63963368  0.08599960  1
  S  S106  1  0.35431900  0.64285007  0.41468515  1
  S  S107  1  0.36127673  0.64172545  0.75090189  1
  S  S108  1  0.85807716  0.14048046  0.08040005  1
  S  S109  1  0.86358924  0.13536188  0.41551400  1
  S  S110  1  0.85962035  0.14168663  0.74886423  1
  S  S111  1  0.86042996  0.63986103  0.08358177  1
  S  S112  1  0.86378158  0.63052433  0.41498644  1
  S  S113  1  0.85857800  0.64668257  0.75688925  1
  S  S114  1  0.13931095  0.36211777  0.24816123  1
  S  S115  1  0.14138789  0.35740958  0.58351869  1
  S  S116  1  0.13910175  0.36080465  0.91855657  1
  S  S117  1  0.14080689  0.85871171  0.24730161  1
  S  S118  1  0.14180839  0.86172538  0.58383161  1
  S  S119  1  0.13996810  0.86084489  0.91460208  1
  S  S120  1  0.63831850  0.35647810  0.24768354  1
  S  S121  1  0.63832525  0.35729842  0.59022249  1
  S  S122  1  0.63985465  0.36046109  0.91944942  1
  S  S123  1  0.64454528  0.84923423  0.24362907  1
  S  S124  1  0.64257073  0.86297303  0.58432245  1
  S  S125  1  0.64094563  0.85832259  0.91626997  1
  S  S126  1  0.06746679  0.16989900  0.03831280  1
  S  S127  1  0.07710852  0.16780344  0.37417881  1
  S  S128  1  0.07322863  0.17757670  0.70699447  1
  S  S129  1  0.06727349  0.67723977  0.04809386  1
  S  S130  1  0.06842547  0.67448878  0.37664584  1
  S  S131  1  0.05634436  0.66698548  0.70944582  1
  S  S132  1  0.56264004  0.16520015  0.04048648  1
  S  S133  1  0.56045804  0.17205556  0.38289545  1
  S  S134  1  0.56495403  0.16825247  0.71193366  1
  S  S135  1  0.56468701  0.66357978  0.03931391  1
  S  S136  1  0.56949243  0.66636193  0.37404792  1
  S  S137  1  0.56780137  0.66473750  0.70926725  1
  S  S138  1  0.33215011  0.43296229  0.12544535  1
  S  S139  1  0.32324150  0.43514305  0.45932454  1
  S  S140  1  0.33609815  0.43237096  0.79635204  1
  S  S141  1  0.33803796  0.93851152  0.12343586  1
  S  S142  1  0.33558711  0.93286895  0.45880293  1
  S  S143  1  0.33351893  0.93049463  0.78937117  1
  S  S144  1  0.82951568  0.43244221  0.12204657  1
  S  S145  1  0.82627609  0.42183384  0.45036953  1
  S  S146  1  0.83245416  0.43647044  0.79376551  1
  S  S147  1  0.82533153  0.93425937  0.12277702  1
  S  S148  1  0.83090037  0.92709741  0.45569062  1
  S  S149  1  0.82515120  0.93308941  0.79035187  1
  S  S150  1  0.42805862  0.33659071  0.29563800  1
  S  S151  1  0.42769396  0.33272026  0.62754350  1
  S  S152  1  0.43180918  0.32932445  0.95940086  1
  S  S153  1  0.44398665  0.82974593  0.29021755  1
  S  S154  1  0.43327890  0.83425819  0.62316329  1
  S  S155  1  0.43502265  0.82785176  0.95437409  1
  S  S156  1  0.93232779  0.32397659  0.28280294  1
  S  S157  1  0.93896730  0.32517278  0.62401922  1
  S  S158  1  0.93315460  0.32882252  0.95822040  1
  S  S159  1  0.93383717  0.84203989  0.29365696  1
  S  S160  1  0.92700895  0.82766952  0.62518651  1
  S  S161  1  0.93461018  0.83718641  0.96111285  1
  S  S162  1  0.17271861  0.07348306  0.20640026  1
  S  S163  1  0.17660497  0.07249654  0.54137639  1
  S  S164  1  0.17163527  0.06728163  0.87450564  1
  S  S165  1  0.16767470  0.57246711  0.20940897  1
  S  S166  1  0.17026797  0.57379794  0.54255685  1
  S  S167  1  0.16878519  0.56631518  0.87858451  1
  S  S168  1  0.67015073  0.06012497  0.20927177  1
  S  S169  1  0.66284551  0.06517091  0.54322429  1
  S  S170  1  0.66512839  0.06375695  0.87516974  1
  S  S171  1  0.66794207  0.55866562  0.20440145  1
  S  S172  1  0.67463978  0.56703213  0.54537636  1
  S  S173  1  0.67161084  0.56453334  0.87584506  1
  O  O174  1  0.36695880  0.21983607  0.06999346  1
  O  O175  1  0.36571544  0.22840256  0.41787878  1
  O  O176  1  0.36847194  0.21872550  0.74451766  1
  O  O177  1  0.37291662  0.71979007  0.08192001  1
  O  O178  1  0.36825228  0.72131373  0.40619864  1
  O  O179  1  0.37433770  0.71755739  0.73622802  1
  O  O180  1  0.86811241  0.21919764  0.07256313  1
  O  O181  1  0.87204780  0.20661492  0.39682877  1
  O  O182  1  0.86786762  0.22224903  0.74429367  1
  O  O183  1  0.87051406  0.71619872  0.07059501  1
  O  O184  1  0.86957272  0.70613744  0.40427646  1
  O  O185  1  0.86132286  0.72991280  0.75622929  1
  O  O186  1  0.27243682  0.13461058  0.07867133  1
  O  O187  1  0.28150339  0.13326346  0.42762745  1
  O  O188  1  0.28144566  0.12971600  0.76033481  1
  O  O189  1  0.28556952  0.63068790  0.09768179  1
  O  O190  1  0.27147362  0.63681840  0.41513898  1
  O  O191  1  0.28470213  0.63798606  0.76055166  1
  O  O192  1  0.77940664  0.13246099  0.08951296  1
  O  O193  1  0.79431504  0.13042974  0.43840899  1
  O  O194  1  0.78440497  0.13032014  0.76309253  1
  O  O195  1  0.77864858  0.62993720  0.08340607  1
  O  O196  1  0.78555706  0.61780166  0.42476168  1
  O  O197  1  0.77992078  0.63185144  0.76421568  1
  O  O198  1  0.13256507  0.28167688  0.25366305  1
  O  O199  1  0.13294080  0.27176955  0.58196441  1
  O  O200  1  0.12965578  0.27996158  0.92399349  1
  O  O201  1  0.12492614  0.78136082  0.25806362  1
  O  O202  1  0.13116807  0.78390173  0.59453504  1
  O  O203  1  0.12928385  0.78028931  0.91705242  1
  O  O204  1  0.63528543  0.28016805  0.25786801  1
  O  O205  1  0.62012275  0.28198910  0.60433611  1
  O  O206  1  0.62888154  0.28319535  0.93105442  1
  O  O207  1  0.63885435  0.76699084  0.24228321  1
  O  O208  1  0.63483246  0.78976936  0.59946737  1
  O  O209  1  0.63288535  0.77994109  0.92579314  1
  O  O210  1  0.21839792  0.37301120  0.23976196  1
  O  O211  1  0.22415425  0.36626224  0.58166163  1
  O  O212  1  0.21893456  0.36905747  0.91103260  1
  O  O213  1  0.21539634  0.85924891  0.23247495  1
  O  O214  1  0.22462406  0.86870488  0.58080683  1
  O  O215  1  0.21726477  0.86911390  0.90276930  1
  O  O216  1  0.71353321  0.36995796  0.23220037  1
  O  O217  1  0.71565660  0.35558014  0.58147763  1
  O  O218  1  0.72009304  0.36800820  0.91559734  1
  O  O219  1  0.72238251  0.86681497  0.23503791  1
  O  O220  1  0.72101646  0.87492128  0.57637970  1
  O  O221  1  0.72078757  0.86872102  0.91089736  1
  O  O222  1  0.40890777  0.13364598  0.14790676  1
  O  O223  1  0.41888236  0.13756486  0.48963357  1
  O  O224  1  0.41993802  0.12925721  0.81753139  1
  O  O225  1  0.42406623  0.62550228  0.14987163  1
  O  O226  1  0.40666903  0.63442718  0.48383725  1
  O  O227  1  0.42244687  0.63485960  0.81892192  1
  O  O228  1  0.91837505  0.12892203  0.14605331  1
  O  O229  1  0.93352233  0.12762538  0.47976856  1
  O  O230  1  0.92287379  0.13219325  0.81430199  1
  O  O231  1  0.91538651  0.63599873  0.15546695  1
  O  O232  1  0.92358672  0.62386720  0.48336639  1
  O  O233  1  0.91821710  0.63997734  0.82631433  1
  O  O234  1  0.36676259  0.08139311  0.01205161  1
  O  O235  1  0.37168962  0.09109373  0.35409052  1
  O  O236  1  0.36744578  0.08086168  0.68229398  1
  O  O237  1  0.36713275  0.58194695  0.01514285  1
  O  O238  1  0.36292958  0.58324508  0.34664641  1
  O  O239  1  0.36941020  0.57857723  0.68463215  1
  O  O240  1  0.86330347  0.08202422  0.01040783  1
  O  O241  1  0.86434422  0.06774913  0.34795708  1
  O  O242  1  0.86390015  0.08560691  0.67810107  1
  O  O243  1  0.87534842  0.57725039  0.02048519  1
  O  O244  1  0.87181527  0.56799531  0.34721381  1
  O  O245  1  0.87142712  0.59375515  0.69047052  1
  O  O246  1  0.08055204  0.36992518  0.18016943  1
  O  O247  1  0.08687584  0.36823459  0.51645484  1
  O  O248  1  0.08059598  0.36937029  0.85163216  1
  O  O249  1  0.07817834  0.87124715  0.18344212  1
  O  O250  1  0.08795177  0.87094042  0.51645123  1
  O  O251  1  0.07884451  0.87620722  0.85117400  1
  O  O252  1  0.57574744  0.36200462  0.17906872  1
  O  O253  1  0.57964264  0.36784722  0.52301993  1
  O  O254  1  0.58294132  0.36522911  0.84858592  1
  O  O255  1  0.58374222  0.86020543  0.17604096  1
  O  O256  1  0.58290124  0.86704443  0.51407800  1
  O  O257  1  0.58333468  0.86486960  0.84647734  1
  O  O258  1  0.13148721  0.41926946  0.31668433  1
  O  O259  1  0.13213955  0.40850048  0.65243304  1
  O  O260  1  0.13414531  0.41796047  0.98860451  1
  O  O261  1  0.14277403  0.91887811  0.31884157  1
  O  O262  1  0.13695085  0.92143791  0.65382437  1
  O  O263  1  0.13643418  0.91727889  0.98621925  1
  O  O264  1  0.62783500  0.41856798  0.31310517  1
  O  O265  1  0.63422429  0.41983224  0.65842728  1
  O  O266  1  0.62700425  0.42223189  0.98358482  1
  O  O267  1  0.63347843  0.90264026  0.31120029  1
  O  O268  1  0.62990215  0.92790096  0.64837333  1
  O  O269  1  0.62893338  0.91808751  0.98198464  1
  O  O270  1  0.03008140  0.19830839  0.09840723  1
  O  O271  1  0.04209651  0.19174283  0.43569820  1
  O  O272  1  0.03142599  0.20508275  0.76428170  1
  O  O273  1  0.02824802  0.70572002  0.10724133  1
  O  O274  1  0.04083983  0.69682420  0.44113818  1
  O  O275  1  0.02234829  0.70700472  0.77247518  1
  O  O276  1  0.52602149  0.19266484  0.09948719  1
  O  O277  1  0.52806531  0.21199101  0.44790487  1
  O  O278  1  0.52992323  0.20047018  0.77477227  1
  O  O279  1  0.52830501  0.69424594  0.09917901  1
  O  O280  1  0.53083487  0.69466952  0.43164042  1
  O  O281  1  0.53617200  0.69909572  0.77500898  1
  O  O282  1  0.30407524  0.46775869  0.06340333  1
  O  O283  1  0.29440250  0.47301698  0.39869853  1
  O  O284  1  0.31172273  0.46586716  0.73548071  1
  O  O285  1  0.30313608  0.96951796  0.05651107  1
  O  O286  1  0.30771128  0.97146683  0.40107079  1
  O  O287  1  0.30593387  0.97009371  0.73112154  1
  O  O288  1  0.79735027  0.47069047  0.06227377  1
  O  O289  1  0.78697337  0.45567533  0.38606543  1
  O  O290  1  0.80472145  0.47556358  0.73653760  1
  O  O291  1  0.79748328  0.97430323  0.06296652  1
  O  O292  1  0.80114535  0.95756276  0.38986773  1
  O  O293  1  0.79940610  0.96998893  0.72997358  1
  O  O294  1  0.46115322  0.31153339  0.23362729  1
  O  O295  1  0.46178309  0.30481079  0.56579842  1
  O  O296  1  0.46803104  0.29943369  0.89795832  1
  O  O297  1  0.47855098  0.79077397  0.22835051  1
  O  O298  1  0.46733367  0.81475397  0.56216826  1
  O  O299  1  0.47277916  0.79979342  0.89369479  1
  O  O300  1  0.96755482  0.29372449  0.21791366  1
  O  O301  1  0.97705049  0.28951007  0.56519462  1
  O  O302  1  0.96859924  0.30062028  0.89646654  1
  O  O303  1  0.96056554  0.80404761  0.22514492  1
  O  O304  1  0.96536525  0.79717913  0.56774360  1
  O  O305  1  0.97284636  0.80904613  0.90206817  1
  O  O306  1  0.19787161  0.04011699  0.26730723  1
  O  O307  1  0.20215753  0.03454616  0.60212241  1
  O  O308  1  0.20025648  0.02889502  0.93403275  1
  O  O309  1  0.19485438  0.53164539  0.26726033  1
  O  O310  1  0.19963701  0.53392601  0.59938559  1
  O  O311  1  0.20003110  0.53336451  0.94489567  1
  O  O312  1  0.70646996  0.02198782  0.26705007  1
  O  O313  1  0.70135956  0.03749500  0.61047273  1
  O  O314  1  0.69498242  0.02712049  0.93599143  1
  O  O315  1  0.70073081  0.52989409  0.26943740  1
  O  O316  1  0.70084126  0.52973264  0.60519229  1
  O  O317  1  0.69990714  0.52840441  0.93743086  1
  O  O318  1  0.08723692  0.08828949  0.03191569  1
  O  O319  1  0.10192970  0.08920686  0.36735235  1
  O  O320  1  0.09525859  0.09909975  0.70699350  1
  O  O321  1  0.08278853  0.59474658  0.04337852  1
  O  O322  1  0.08637256  0.59072129  0.35935927  1
  O  O323  1  0.05997130  0.58517846  0.70541155  1
  O  O324  1  0.57969079  0.08196094  0.03337561  1
  O  O325  1  0.56895169  0.09140962  0.38504980  1
  O  O326  1  0.57708832  0.08461764  0.70675928  1
  O  O327  1  0.58310003  0.58155760  0.03732555  1
  O  O328  1  0.59053389  0.58535426  0.36961846  1
  O  O329  1  0.59280148  0.58699117  0.71309870  1
  O  O330  1  0.41482157  0.41559923  0.13320758  1
  O  O331  1  0.40455702  0.41673575  0.46400709  1
  O  O332  1  0.41985373  0.41414581  0.80831728  1
  O  O333  1  0.41842250  0.91761755  0.12149900  1
  O  O334  1  0.41635889  0.91175002  0.46122062  1
  O  O335  1  0.41671103  0.91402105  0.79575782  1
  O  O336  1  0.91204693  0.41867602  0.12574438  1
  O  O337  1  0.90068594  0.39787040  0.44202049  1
  O  O338  1  0.91397813  0.41805155  0.79674029  1
  O  O339  1  0.90742215  0.91885468  0.12729325  1
  O  O340  1  0.91107319  0.91050520  0.46577218  1
  O  O341  1  0.90728445  0.91469586  0.80111449  1
  O  O342  1  0.40921276  0.41949549  0.30402361  1
  O  O343  1  0.40511058  0.41282333  0.63322514  1
  O  O344  1  0.41644843  0.41227852  0.96633857  1
  O  O345  1  0.43933419  0.91171561  0.29384624  1
  O  O346  1  0.41732312  0.91891803  0.63949835  1
  O  O347  1  0.42191339  0.91195550  0.96245910  1
  O  O348  1  0.90807154  0.40237464  0.28033565  1
  O  O349  1  0.92631172  0.40501418  0.62377350  1
  O  O350  1  0.91342719  0.41008533  0.96551792  1
  O  O351  1  0.90092882  0.91658921  0.28515204  1
  O  O352  1  0.90451535  0.90649232  0.62689218  1
  O  O353  1  0.91708337  0.91999915  0.96691195  1
  O  O354  1  0.09034970  0.09419168  0.19431772  1
  O  O355  1  0.09549111  0.09409036  0.53464900  1
  O  O356  1  0.09056627  0.08617397  0.87075851  1
  O  O357  1  0.08644098  0.59216435  0.20307088  1
  O  O358  1  0.09367798  0.59974642  0.54512757  1
  O  O359  1  0.08896654  0.58892699  0.87724655  1
  O  O360  1  0.59083867  0.07371406  0.21172734  1
  O  O361  1  0.58054588  0.08119474  0.54510752  1
  O  O362  1  0.58215819  0.07966776  0.87065460  1
  O  O363  1  0.58599253  0.57727422  0.20072482  1
  O  O364  1  0.60023604  0.59787261  0.54357642  1
  O  O365  1  0.58733504  0.57835862  0.86768761  1
  O  O366  1  0.13818172  0.22416358  0.05624214  1
  O  O367  1  0.14353598  0.22650711  0.38925866  1
  O  O368  1  0.14342189  0.23345270  0.72700532  1
  O  O369  1  0.13972102  0.72738030  0.06609306  1
  O  O370  1  0.13825353  0.72674055  0.38824282  1
  O  O371  1  0.13338935  0.71269064  0.72882069  1
  O  O372  1  0.63524793  0.21512889  0.05578947  1
  O  O373  1  0.63665038  0.21745636  0.39962998  1
  O  O374  1  0.63784289  0.21518372  0.72708032  1
  O  O375  1  0.63412427  0.71426561  0.05050139  1
  O  O376  1  0.63860421  0.71934745  0.38726513  1
  O  O377  1  0.63572250  0.71885509  0.72060535  1
  O  O378  1  0.28017355  0.36129796  0.10920376  1
  O  O379  1  0.26992273  0.36440987  0.44151226  1
  O  O380  1  0.28499242  0.36083165  0.78220660  1
  O  O381  1  0.28703381  0.86831568  0.11050343  1
  O  O382  1  0.28197589  0.86296115  0.44448017  1
  O  O383  1  0.28194413  0.85936469  0.77241456  1
  O  O384  1  0.77989307  0.35873660  0.10275268  1
  O  O385  1  0.77029377  0.35371081  0.43855020  1
  O  O386  1  0.78101080  0.36498314  0.77801409  1
  O  O387  1  0.77438598  0.86132254  0.10033824  1
  O  O388  1  0.77673032  0.85955347  0.44401452  1
  O  O389  1  0.77145953  0.86241536  0.77265738  1
  O  O390  1  0.35674321  0.28467543  0.28078682  1
  O  O391  1  0.35974601  0.27732921  0.61473444  1
  O  O392  1  0.35878258  0.27866570  0.94088900  1
  O  O393  1  0.36719593  0.78468372  0.27203593  1
  O  O394  1  0.36179614  0.78259836  0.60595742  1
  O  O395  1  0.36166625  0.77895674  0.93515757  1
  O  O396  1  0.86268391  0.26920313  0.26527089  1
  O  O397  1  0.86628930  0.27477080  0.60834928  1
  O  O398  1  0.86462440  0.27511030  0.94445073  1
  O  O399  1  0.87316682  0.78934961  0.29388653  1
  O  O400  1  0.85783447  0.77308446  0.61177872  1
  O  O401  1  0.86291298  0.78540136  0.94390414  1
  O  O402  1  0.22614885  0.14368376  0.22056355  1
  O  O403  1  0.23149865  0.14291029  0.56166591  1
  O  O404  1  0.22396732  0.13948188  0.89282437  1
  O  O405  1  0.22287775  0.64159094  0.22735424  1
  O  O406  1  0.22728698  0.64217542  0.55724405  1
  O  O407  1  0.22308762  0.63555289  0.89474278  1
  O  O408  1  0.71970890  0.13268772  0.22312696  1
  O  O409  1  0.70861725  0.13891675  0.55474459  1
  O  O410  1  0.71493074  0.13581921  0.89153112  1
  O  O411  1  0.71711814  0.62502961  0.20742264  1
  O  O412  1  0.73531306  0.63008822  0.55703731  1
  O  O413  1  0.72049276  0.63897684  0.89564767  1
  O  O414  1  0.48947833  0.32846253  0.03118615  1
  O  O415  1  0.48813957  0.33818362  0.36739282  1
  O  O416  1  0.48996638  0.33721987  0.69996257  1
  O  O417  1  0.49271575  0.82450283  0.02531680  1
  O  O418  1  0.49813952  0.82455938  0.36244721  1
  O  O419  1  0.49320416  0.82975827  0.69355485  1
  O  O420  1  0.99519843  0.33234595  0.03044498  1
  O  O421  1  0.99366675  0.32905894  0.35130685  1
  O  O422  1  0.99455877  0.32890108  0.69960312  1
  O  O423  1  0.99213268  0.84110005  0.03537600  1
  O  O424  1  1.00389227  0.86381204  0.35995402  1
  O  O425  1  0.98605121  0.83614595  0.70120434  1
  O  O426  1  0.17121210  0.01181265  0.13454399  1
  O  O427  1  0.17607427  0.01328825  0.47024066  1
  O  O428  1  0.17078416  0.00997622  0.80209272  1
  O  O429  1  0.16492866  0.51356214  0.13550790  1
  O  O430  1  0.16089496  0.51620538  0.46618506  1
  O  O431  1  0.16502141  0.50406103  0.81063443  1
  O  O432  1  0.66363476  0.00437693  0.13240932  1
  O  O433  1  0.65670123  0.00272719  0.47464770  1
  O  O434  1  0.66198764  0.00576926  0.80180450  1
  O  O435  1  0.65941644  0.49311149  0.13240599  1
  O  O436  1  0.66602092  0.50373793  0.47162206  1
  O  O437  1  0.67383247  0.50737681  0.80482600  1
  O  O438  1  0.01510906  0.16517843  0.30247683  1
  O  O439  1  0.01851830  0.17229210  0.63135465  1
  O  O440  1  0.00902498  0.16675717  0.96490200  1
  O  O441  1  0.00371691  0.67577976  0.30753471  1
  O  O442  1  0.00286395  0.67433534  0.63819756  1
  O  O443  1  0.01024642  0.67692767  0.97520445  1
  O  O444  1  0.50402348  0.17355038  0.31283316  1
  O  O445  1  0.50438066  0.16864018  0.64130076  1
  O  O446  1  0.50478661  0.16289273  0.96620880  1
  O  O447  1  0.50976599  0.65850781  0.29830409  1
  O  O448  1  0.50340394  0.65416907  0.63971876  1
  O  O449  1  0.50463284  0.65518545  0.96451403  1
  O  O450  1  0.33182142  0.49257733  0.19678234  1
  O  O451  1  0.32614110  0.49389989  0.53201019  1
  O  O452  1  0.33636277  0.49269590  0.86835932  1
  O  O453  1  0.34430417  1.00156977  0.19157248  1
  O  O454  1  0.34245242  0.99082954  0.53470653  1
  O  O455  1  0.33670903  0.98869873  0.86353258  1
  O  O456  1  0.83064399  0.48896619  0.19506044  1
  O  O457  1  0.83562489  0.48348763  0.52135060  1
  O  O458  1  0.83694649  0.49325149  0.86943375  1
  O  O459  1  0.82284517  0.99021341  0.19443855  1
  O  O460  1  0.82684988  0.99264813  0.52368509  1
  O  O461  1  0.82481527  0.99272022  0.86237481  1
