# generated using pymatgen
data_Na31Fe20(SO4)36
_symmetry_space_group_name_H-M   'P 1'
_cell_length_a   18.07917058
_cell_length_b   18.07929187
_cell_length_c   19.72278462
_cell_angle_alpha   107.57388522
_cell_angle_beta   107.59375228
_cell_angle_gamma   90.75023903
_symmetry_Int_Tables_number   1
_chemical_formula_structural   Na31Fe20(SO4)36
_chemical_formula_sum   'Na62 Fe40 S72 O288'
_cell_volume   5819.45976768
_cell_formula_units_Z   2
loop_
 _symmetry_equiv_pos_site_id
 _symmetry_equiv_pos_as_xyz
  1  'x, y, z'
loop_
 _atom_site_type_symbol
 _atom_site_label
 _atom_site_symmetry_multiplicity
 _atom_site_fract_x
 _atom_site_fract_y
 _atom_site_fract_z
 _atom_site_occupancy
  Na  Na0  1  0.12869530  0.36991636  0.08522793  1
  Na  Na1  1  0.13276196  0.35339938  0.41014043  1
  Na  Na2  1  0.13507794  0.37815223  0.76241036  1
  Na  Na3  1  0.12871774  0.87911936  0.07830581  1
  Na  Na4  1  0.13956920  0.86987465  0.42013136  1
  Na  Na5  1  0.14264980  0.86391877  0.74982655  1
  Na  Na6  1  0.63976482  0.36604771  0.08505072  1
  Na  Na7  1  0.63362545  0.34934053  0.40936624  1
  Na  Na8  1  0.63343654  0.36714252  0.75045871  1
  Na  Na9  1  0.63323150  0.85249615  0.07052289  1
  Na  Na10  1  0.62731155  0.86546970  0.41102351  1
  Na  Na11  1  0.63492935  0.86626495  0.75121520  1
  Na  Na12  1  0.37310519  0.13921187  0.26038700  1
  Na  Na13  1  0.34242806  0.15137523  0.55396888  1
  Na  Na14  1  0.36111700  0.14430112  0.92024100  1
  Na  Na15  1  0.36101356  0.63275409  0.24616970  1
  Na  Na16  1  0.36392362  0.63506567  0.58538716  1
  Na  Na17  1  0.36674413  0.63289941  0.92445532  1
  Na  Na18  1  0.86762593  0.13860094  0.24490869  1
  Na  Na19  1  0.86700793  0.13213133  0.58181652  1
  Na  Na20  1  0.87382408  0.12907056  0.91703196  1
  Na  Na21  1  0.86461270  0.62973626  0.24269133  1
  Na  Na22  1  0.86778687  0.63348202  0.58284763  1
  Na  Na23  1  0.85410004  0.63353036  0.91422181  1
  Na  Na24  1  0.99519458  0.00678288  0.75043494  1
  Na  Na25  1  0.50881508  0.47465917  0.42422415  1
  Na  Na26  1  0.48695931  0.51354630  0.74837751  1
  Na  Na27  1  0.45574561  0.51377468  0.07215855  1
  Na  Na28  1  0.99843360  0.00618639  0.43124803  1
  Na  Na29  1  0.51275985  -0.04526189  0.14465215  1
  Na  Na30  1  1.01438036  0.05739380  0.10597620  1
  Na  Na31  1  0.50313483  0.04895974  0.40876431  1
  Na  Na32  1  0.48837590  0.00993633  0.74734597  1
  Na  Na33  1  0.06540790  1.00672180  0.28167429  1
  Na  Na34  1  0.47982940  1.00575885  0.93842154  1
  Na  Na35  1  0.49724071  0.43053964  0.56584839  1
  Na  Na36  1  0.47744180  1.04291533  0.55875323  1
  Na  Na37  1  0.00709651  0.48008872  0.25520385  1
  Na  Na38  1  0.01326006  0.48976162  0.58353870  1
  Na  Na39  1  0.51136481  0.48831170  0.91480694  1
  Na  Na40  1  -0.03934217  0.51065642  0.96401037  1
  Na  Na41  1  0.50962961  0.49145694  0.24861206  1
  Na  Na42  1  0.25452850  0.75448165  0.33196032  1
  Na  Na43  1  0.75697229  0.75610207  0.32372928  1
  Na  Na44  1  0.23753505  0.22123973  0.35640370  1
  Na  Na45  1  0.25350162  0.25877636  0.65948782  1
  Na  Na46  1  0.26073008  0.76101894  -0.00488436  1
  Na  Na47  1  0.74612074  0.74524986  0.66899775  1
  Na  Na48  1  0.73910643  0.24669933  0.66930405  1
  Na  Na49  1  0.75602818  0.25292193  0.32143516  1
  Na  Na50  1  0.23974462  0.24127443  0.01040772  1
  Na  Na51  1  0.74943404  0.24900007  0.00768282  1
  Na  Na52  1  0.24152463  0.74234093  0.51217197  1
  Na  Na53  1  0.25740184  0.75755116  0.82627305  1
  Na  Na54  1  0.75193180  0.25550927  0.83632243  1
  Na  Na55  1  0.75191534  0.75198872  0.49637225  1
  Na  Na56  1  0.25476096  0.26303303  0.83458334  1
  Na  Na57  1  0.76157338  0.75601534  0.14940494  1
  Na  Na58  1  0.23280686  0.22827957  0.17733579  1
  Na  Na59  1  0.73244364  0.23826324  0.50292432  1
  Na  Na60  1  0.26012579  0.76031820  0.15670556  1
  Na  Na61  1  0.74058276  0.74344868  0.84573917  1
  Fe  Fe62  1  0.96734635  0.80768803  0.45370618  1
  Fe  Fe63  1  0.46425681  0.81127956  0.45642194  1
  Fe  Fe64  1  0.46470543  0.30658546  0.78397991  1
  Fe  Fe65  1  0.46715388  0.30925735  0.11551759  1
  Fe  Fe66  1  0.46130923  0.81286091  0.78692316  1
  Fe  Fe67  1  0.96272196  0.30636029  0.45048280  1
  Fe  Fe68  1  0.96755749  0.30012330  0.12371212  1
  Fe  Fe69  1  0.96749916  0.80749753  0.11777376  1
  Fe  Fe70  1  0.96668893  0.80993824  0.78735571  1
  Fe  Fe71  1  0.96123821  0.30992057  0.78992090  1
  Fe  Fe72  1  0.69531897  0.53559457  0.38018622  1
  Fe  Fe73  1  0.69375531  0.02883522  0.37483191  1
  Fe  Fe74  1  0.70430458  0.52959436  0.04410010  1
  Fe  Fe75  1  0.18796236  0.03685529  0.71235134  1
  Fe  Fe76  1  0.19691830  0.53725268  0.71907071  1
  Fe  Fe77  1  0.69242341  0.53457363  0.71399384  1
  Fe  Fe78  1  0.19583536  0.52980912  0.04271011  1
  Fe  Fe79  1  0.19301442  0.53360809  0.38141453  1
  Fe  Fe80  1  0.69548099  0.03508232  0.04739477  1
  Fe  Fe81  1  0.68761645  0.03589712  0.71004823  1
  Fe  Fe82  1  0.53275528  0.69261627  0.54581776  1
  Fe  Fe83  1  0.03850710  0.68789260  0.54478991  1
  Fe  Fe84  1  0.53613023  0.19294333  0.88351304  1
  Fe  Fe85  1  0.53675622  0.19098845  0.20994883  1
  Fe  Fe86  1  0.03576213  0.19376793  0.55154907  1
  Fe  Fe87  1  0.03877880  0.68386785  0.20748670  1
  Fe  Fe88  1  0.53413636  0.69718089  0.88490882  1
  Fe  Fe89  1  0.03435053  0.69237941  0.87893224  1
  Fe  Fe90  1  0.52720058  0.69925931  0.20893606  1
  Fe  Fe91  1  0.03651652  0.19371245  0.88245925  1
  Fe  Fe92  1  0.81034719  0.96437406  0.95247094  1
  Fe  Fe93  1  0.30211799  0.96790616  0.28978884  1
  Fe  Fe94  1  0.31007836  0.46234959  0.28556303  1
  Fe  Fe95  1  0.81593679  0.46669588  0.62620077  1
  Fe  Fe96  1  0.80836456  0.96269196  0.28134673  1
  Fe  Fe97  1  0.30186992  0.96796958  0.61603451  1
  Fe  Fe98  1  0.29803260  0.97060339  0.96420225  1
  Fe  Fe99  1  0.80642863  0.96303994  0.61741569  1
  Fe  Fe100  1  0.30500148  0.46374537  0.61617972  1
  Fe  Fe101  1  0.81176360  0.46498146  0.28766563  1
  S  S102  1  0.36233643  0.14477152  0.08062297  1
  S  S103  1  0.36714988  0.13511700  0.41373389  1
  S  S104  1  0.35997114  0.13913496  0.75063104  1
  S  S105  1  0.35394545  0.64242359  0.08664740  1
  S  S106  1  0.35932440  0.64142490  0.41748170  1
  S  S107  1  0.36217222  0.64173249  0.74946197  1
  S  S108  1  0.85787039  0.13843696  0.08122037  1
  S  S109  1  0.85835009  0.13665345  0.41760086  1
  S  S110  1  0.85824505  0.13811234  0.74780256  1
  S  S111  1  0.86531806  0.64225578  0.08400982  1
  S  S112  1  0.86046351  0.64250632  0.41618554  1
  S  S113  1  0.85819596  0.64404722  0.75064624  1
  S  S114  1  0.14184353  0.35887382  0.25137083  1
  S  S115  1  0.13756184  0.36425802  0.58718980  1
  S  S116  1  0.13820058  0.36022649  0.91617844  1
  S  S117  1  0.14137605  0.85199899  0.24788591  1
  S  S118  1  0.13877125  0.85906119  0.58251241  1
  S  S119  1  0.13817211  0.85726695  0.91206226  1
  S  S120  1  0.64078113  0.36329079  0.25068210  1
  S  S121  1  0.64625608  0.36417019  0.57955944  1
  S  S122  1  0.64073914  0.36003840  0.91661940  1
  S  S123  1  0.64550108  0.85529539  0.24642350  1
  S  S124  1  0.64123360  0.85724234  0.58425364  1
  S  S125  1  0.63808752  0.86287230  0.91462532  1
  S  S126  1  0.06792224  0.17444174  0.04333879  1
  S  S127  1  0.05608048  0.16856576  0.38453166  1
  S  S128  1  0.06515325  0.17232187  0.71266868  1
  S  S129  1  0.06902256  0.66861030  0.04063859  1
  S  S130  1  0.06894814  0.67080008  0.37509431  1
  S  S131  1  0.06704396  0.67001621  0.70764073  1
  S  S132  1  0.57055238  0.16928900  0.04061127  1
  S  S133  1  0.58060219  0.16397965  0.36651783  1
  S  S134  1  0.56365473  0.17039624  0.71040996  1
  S  S135  1  0.56986058  0.66173723  0.04179011  1
  S  S136  1  0.56738973  0.67022076  0.37446023  1
  S  S137  1  0.56697493  0.67183867  0.70980508  1
  S  S138  1  0.33279198  0.43272259  0.12469992  1
  S  S139  1  0.32872573  0.43469302  0.45318008  1
  S  S140  1  0.33384368  0.43789465  0.79279399  1
  S  S141  1  0.32122877  0.92768007  0.12380450  1
  S  S142  1  0.32966082  0.93131358  0.45802709  1
  S  S143  1  0.33194617  0.93820428  0.79394921  1
  S  S144  1  0.83232940  0.43004130  0.12678077  1
  S  S145  1  0.82952483  0.43342129  0.45766968  1
  S  S146  1  0.82767168  0.43440655  0.79076250  1
  S  S147  1  0.83081984  0.93155867  0.12277470  1
  S  S148  1  0.83014789  0.93043027  0.45580308  1
  S  S149  1  0.82760774  0.93218388  0.78631993  1
  S  S150  1  0.43715932  0.33302055  0.28616796  1
  S  S151  1  0.42933025  0.33367823  0.62908878  1
  S  S152  1  0.43994730  0.33348534  0.95618118  1
  S  S153  1  0.42970892  0.82933453  0.29431760  1
  S  S154  1  0.43136130  0.83285321  0.62400436  1
  S  S155  1  0.43213308  0.83356147  0.95780773  1
  S  S156  1  0.93259745  0.33335534  0.29348277  1
  S  S157  1  0.93070630  0.32820683  0.62374769  1
  S  S158  1  0.92738645  0.32074221  0.95690017  1
  S  S159  1  0.93610803  0.82984329  0.29104956  1
  S  S160  1  0.93182160  0.82859546  0.62251495  1
  S  S161  1  0.93132959  0.82748025  0.95388018  1
  S  S162  1  0.17345049  0.06377196  0.21491928  1
  S  S163  1  0.16559178  0.06616744  0.54705031  1
  S  S164  1  0.17078385  0.06876927  0.87320592  1
  S  S165  1  0.17322867  0.56574768  0.21132687  1
  S  S166  1  0.17026723  0.56530002  0.54192254  1
  S  S167  1  0.17098693  0.57488469  0.87732305  1
  S  S168  1  0.67281739  0.06351117  0.20542444  1
  S  S169  1  0.67012881  0.06142249  0.54160741  1
  S  S170  1  0.66822198  0.06666627  0.87374970  1
  S  S171  1  0.67079365  0.56726249  0.20842727  1
  S  S172  1  0.66885648  0.57067122  0.54066505  1
  S  S173  1  0.66349610  0.56861415  0.87200865  1
  O  O174  1  0.37903091  0.21800421  0.06272165  1
  O  O175  1  0.38234634  0.20422570  0.39413205  1
  O  O176  1  0.36917835  0.21839230  0.74335312  1
  O  O177  1  0.35683180  0.72240536  0.08418922  1
  O  O178  1  0.37000262  0.72056938  0.41022607  1
  O  O179  1  0.37218087  0.71985789  0.74103468  1
  O  O180  1  0.86935431  0.21902391  0.07609701  1
  O  O181  1  0.86450923  0.21640660  0.41108432  1
  O  O182  1  0.86684211  0.21783819  0.74109958  1
  O  O183  1  0.87098944  0.72550083  0.08507082  1
  O  O184  1  0.86831012  0.72260172  0.40934284  1
  O  O185  1  0.86802111  0.72295059  0.74206399  1
  O  O186  1  0.28479179  0.14550780  0.08854075  1
  O  O187  1  0.28969569  0.13082626  0.42321510  1
  O  O188  1  0.28243615  0.13181093  0.76168732  1
  O  O189  1  0.27843550  0.62576366  0.10058944  1
  O  O190  1  0.28010572  0.63353959  0.42536004  1
  O  O191  1  0.28316718  0.63299196  0.75706917  1
  O  O192  1  0.77663486  0.13051963  0.08416596  1
  O  O193  1  0.78197279  0.12544725  0.43052710  1
  O  O194  1  0.77862791  0.12961156  0.75528444  1
  O  O195  1  0.78656546  0.62804898  0.09196241  1
  O  O196  1  0.78140580  0.63290746  0.42489266  1
  O  O197  1  0.77749104  0.63523310  0.75607341  1
  O  O198  1  0.13901456  0.28362931  0.26371877  1
  O  O199  1  0.12831950  0.28735474  0.59880692  1
  O  O200  1  0.13123104  0.28130074  0.92658469  1
  O  O201  1  0.13274878  0.76978036  0.24966736  1
  O  O202  1  0.13000437  0.77824258  0.58607108  1
  O  O203  1  0.13192542  0.77559608  0.91655841  1
  O  O204  1  0.62955937  0.28458375  0.25801457  1
  O  O205  1  0.64211071  0.28693542  0.58824078  1
  O  O206  1  0.62968783  0.28151700  0.92666981  1
  O  O207  1  0.63065609  0.77571514  0.25185448  1
  O  O208  1  0.62978481  0.77853184  0.59299791  1
  O  O209  1  0.62892825  0.78469090  0.92380271  1
  O  O210  1  0.21748521  0.37317609  0.23792040  1
  O  O211  1  0.21542322  0.37163271  0.57766914  1
  O  O212  1  0.21127535  0.37120558  0.90176106  1
  O  O213  1  0.22336500  0.86347530  0.24543495  1
  O  O214  1  0.21787147  0.87031479  0.57475105  1
  O  O215  1  0.21912840  0.86838025  0.90624409  1
  O  O216  1  0.72094573  0.37333359  0.24779628  1
  O  O217  1  0.72651797  0.37992936  0.57414367  1
  O  O218  1  0.71473025  0.36715248  0.90321736  1
  O  O219  1  0.72945328  0.86086666  0.24703428  1
  O  O220  1  0.72164929  0.86344775  0.57834937  1
  O  O221  1  0.71636935  0.87149937  0.90473215  1
  O  O222  1  0.42164747  0.13955819  0.15004398  1
  O  O223  1  0.42725855  0.12388455  0.47918195  1
  O  O224  1  0.42087177  0.12924271  0.81726776  1
  O  O225  1  0.41719144  0.63340865  0.15420330  1
  O  O226  1  0.41783428  0.63454287  0.48663822  1
  O  O227  1  0.42121474  0.63317914  0.81771375  1
  O  O228  1  0.91479973  0.12622392  0.14599598  1
  O  O229  1  0.92052807  0.12584522  0.48260043  1
  O  O230  1  0.91739442  0.12719810  0.81387771  1
  O  O231  1  0.92389171  0.63323250  0.15277309  1
  O  O232  1  0.91938820  0.63560249  0.48440999  1
  O  O233  1  0.91495081  0.63702226  0.81937797  1
  O  O234  1  0.36864491  0.07923538  0.01493273  1
  O  O235  1  0.37228161  0.06503203  0.34561364  1
  O  O236  1  0.36695927  0.07961771  0.68235082  1
  O  O237  1  0.36251130  0.58580417  0.01934368  1
  O  O238  1  0.36779759  0.58236837  0.35013840  1
  O  O239  1  0.37096265  0.58111450  0.68243051  1
  O  O240  1  0.86478149  0.08126555  0.01049440  1
  O  O241  1  0.86243098  0.07886367  0.34727234  1
  O  O242  1  0.86597131  0.07994265  0.67897276  1
  O  O243  1  0.87492045  0.58971978  0.01584694  1
  O  O244  1  0.86688801  0.58506441  0.34745002  1
  O  O245  1  0.86538469  0.58517188  0.68210674  1
  O  O246  1  0.07826041  0.36425726  0.18310052  1
  O  O247  1  0.07688681  0.37352215  0.52059462  1
  O  O248  1  0.07238452  0.36636782  0.85102751  1
  O  O249  1  0.08584213  0.86135548  0.17838420  1
  O  O250  1  0.08013241  0.86797566  0.51451420  1
  O  O251  1  0.08229245  0.86024577  0.83913511  1
  O  O252  1  0.58368543  0.37274185  0.18199388  1
  O  O253  1  0.58826190  0.37275840  0.51224564  1
  O  O254  1  0.57592596  0.37060946  0.85239643  1
  O  O255  1  0.59429395  0.86629297  0.17829283  1
  O  O256  1  0.58487705  0.86397125  0.51486960  1
  O  O257  1  0.57849619  0.86994573  0.84628100  1
  O  O258  1  0.13118541  0.42186268  0.31681530  1
  O  O259  1  0.13034275  0.42558353  0.65514280  1
  O  O260  1  0.13232699  0.41869184  0.98616174  1
  O  O261  1  0.12953794  0.90602653  0.31464116  1
  O  O262  1  0.13088124  0.91550339  0.65132483  1
  O  O263  1  0.12587590  0.91383481  0.97567811  1
  O  O264  1  0.62915626  0.42284081  0.31771114  1
  O  O265  1  0.63386979  0.42328814  0.64752024  1
  O  O266  1  0.63600899  0.41970363  0.98661317  1
  O  O267  1  0.63774627  0.91273687  0.31560128  1
  O  O268  1  0.63306187  0.91680933  0.65149233  1
  O  O269  1  0.63096248  0.92296455  0.98212717  1
  O  O270  1  0.02579025  0.20458552  0.09994069  1
  O  O271  1  0.02704508  0.21259813  0.45096178  1
  O  O272  1  0.02799444  0.20341963  0.77305277  1
  O  O273  1  0.03100423  0.69988853  0.10087816  1
  O  O274  1  0.03050500  0.69868586  0.43511808  1
  O  O275  1  0.02533760  0.69660091  0.76452884  1
  O  O276  1  0.54004844  0.20293562  0.10490056  1
  O  O277  1  0.55933430  0.18820037  0.43435304  1
  O  O278  1  0.53435896  0.20261808  0.77693780  1
  O  O279  1  0.53074039  0.67727234  0.09952592  1
  O  O280  1  0.53134624  0.69842791  0.43582639  1
  O  O281  1  0.53162828  0.70254955  0.77113811  1
  O  O282  1  0.30113437  0.46685505  0.06449641  1
  O  O283  1  0.29421644  0.47369259  0.39368752  1
  O  O284  1  0.30063516  0.47018237  0.72783734  1
  O  O285  1  0.30003926  0.97166809  0.06947497  1
  O  O286  1  0.30284779  0.95841387  0.39222163  1
  O  O287  1  0.29927518  0.96969059  0.72992814  1
  O  O288  1  0.80711457  0.46794441  0.06859600  1
  O  O289  1  0.80276030  0.47327147  0.39864541  1
  O  O290  1  0.79700390  0.47137364  0.72847243  1
  O  O291  1  0.80052603  0.96810583  0.06125006  1
  O  O292  1  0.79964698  0.96596221  0.39439896  1
  O  O293  1  0.79577383  0.97047809  0.72671392  1
  O  O294  1  0.46892517  0.30356172  0.22075664  1
  O  O295  1  0.45684605  0.30754860  0.56518068  1
  O  O296  1  0.46986562  0.29197232  0.89213744  1
  O  O297  1  0.47021939  0.80423462  0.23820800  1
  O  O298  1  0.47110509  0.80428350  0.56509287  1
  O  O299  1  0.46658202  0.80242392  0.89372075  1
  O  O300  1  0.96530705  0.30671723  0.23085376  1
  O  O301  1  0.96569998  0.29515672  0.56212282  1
  O  O302  1  0.96706095  0.28986596  0.89721308  1
  O  O303  1  0.97391552  0.80378855  0.23159837  1
  O  O304  1  0.96801191  0.80032548  0.56159350  1
  O  O305  1  0.97051002  0.79942550  0.89421975  1
  O  O306  1  0.20617780  0.02081049  0.27216806  1
  O  O307  1  0.20080794  0.03336892  0.61213928  1
  O  O308  1  0.19957847  0.03300333  0.93221144  1
  O  O309  1  0.20563566  0.52993730  0.27263468  1
  O  O310  1  0.20342833  0.53173156  0.60488937  1
  O  O311  1  0.19126034  0.54130112  0.93863684  1
  O  O312  1  0.70255908  0.02455584  0.26500808  1
  O  O313  1  0.70350537  0.02303362  0.60186246  1
  O  O314  1  0.69978597  0.03038081  0.93399533  1
  O  O315  1  0.70191803  0.53134945  0.27057321  1
  O  O316  1  0.69896400  0.53976392  0.60440162  1
  O  O317  1  0.69083190  0.53612034  0.93351519  1
  O  O318  1  0.09015346  0.09838497  0.04574218  1
  O  O319  1  0.06884287  0.09070910  0.39302156  1
  O  O320  1  0.08144130  0.09097209  0.70961722  1
  O  O321  1  0.08789977  0.58841840  0.03957839  1
  O  O322  1  0.08829786  0.58966571  0.36995861  1
  O  O323  1  0.08794824  0.58924972  0.70155140  1
  O  O324  1  0.58940556  0.08832342  0.03762368  1
  O  O325  1  0.59304458  0.07809478  0.34948990  1
  O  O326  1  0.58202923  0.08775738  0.70687214  1
  O  O327  1  0.59268966  0.58031588  0.02730829  1
  O  O328  1  0.58599584  0.58808199  0.36820553  1
  O  O329  1  0.58312059  0.58973156  0.70365034  1
  O  O330  1  0.41690041  0.41878393  0.12864081  1
  O  O331  1  0.40959250  0.42425647  0.45466794  1
  O  O332  1  0.41473171  0.41673305  0.79287724  1
  O  O333  1  0.39804390  0.90142429  0.13092626  1
  O  O334  1  0.41389963  0.91665753  0.47257176  1
  O  O335  1  0.41597551  0.92420285  0.79896921  1
  O  O336  1  0.91262930  0.40499420  0.13322127  1
  O  O337  1  0.91080569  0.41358949  0.46428939  1
  O  O338  1  0.90481239  0.40822045  0.78810627  1
  O  O339  1  0.91054849  0.91082194  0.12541961  1
  O  O340  1  0.91081863  0.91193903  0.45841014  1
  O  O341  1  0.90776162  0.91366505  0.78660239  1
  O  O342  1  0.41962160  0.41684859  0.29220005  1
  O  O343  1  0.41192009  0.41888429  0.63929193  1
  O  O344  1  0.43753540  0.41583974  0.96050897  1
  O  O345  1  0.40476399  0.90896623  0.29970736  1
  O  O346  1  0.41059251  0.91351343  0.62787965  1
  O  O347  1  0.40261123  0.90970846  0.95401613  1
  O  O348  1  0.91673263  0.41684301  0.30270640  1
  O  O349  1  0.91632291  0.40992758  0.62515768  1
  O  O350  1  0.90508679  0.39711323  0.95593847  1
  O  O351  1  0.91652859  0.91178577  0.29940463  1
  O  O352  1  0.91156120  0.90985082  0.62865500  1
  O  O353  1  0.91080085  0.90747526  0.95777063  1
  O  O354  1  0.10003662  0.09021574  0.22749518  1
  O  O355  1  0.08671734  0.08828868  0.55026880  1
  O  O356  1  0.08856735  0.08727157  0.86500562  1
  O  O357  1  0.09119176  0.58002236  0.20829792  1
  O  O358  1  0.08928912  0.58254663  0.54093692  1
  O  O359  1  0.08942389  0.59518541  0.86252371  1
  O  O360  1  0.59152058  0.08200411  0.19959082  1
  O  O361  1  0.58971310  0.07447971  0.53807824  1
  O  O362  1  0.58565800  0.08243029  0.86903963  1
  O  O363  1  0.58839603  0.58196466  0.20319270  1
  O  O364  1  0.58596294  0.58715855  0.53251353  1
  O  O365  1  0.57977253  0.58661438  0.86277365  1
  O  O366  1  0.13612139  0.23242990  0.06083701  1
  O  O367  1  0.12836233  0.21489300  0.39474542  1
  O  O368  1  0.13718174  0.22319403  0.72850406  1
  O  O369  1  0.13809770  0.72183895  0.05467514  1
  O  O370  1  0.13996359  0.72457893  0.39407434  1
  O  O371  1  0.13646712  0.72472696  0.72593150  1
  O  O372  1  0.63750562  0.22037147  0.04717082  1
  O  O373  1  0.65290391  0.21129004  0.37422413  1
  O  O374  1  0.63631923  0.21988523  0.72408704  1
  O  O375  1  0.63788316  0.71928763  0.06228122  1
  O  O376  1  0.63872354  0.72272550  0.39129978  1
  O  O377  1  0.63951419  0.72302223  0.72637443  1
  O  O378  1  0.28652116  0.35969220  0.11318938  1
  O  O379  1  0.27936174  0.36240290  0.43650522  1
  O  O380  1  0.28214427  0.36620168  0.77769460  1
  O  O381  1  0.26027639  0.86053706  0.10132123  1
  O  O382  1  0.28005269  0.85987227  0.44673135  1
  O  O383  1  0.28513376  0.86546950  0.78140834  1
  O  O384  1  0.77644176  0.36274416  0.11296929  1
  O  O385  1  0.77540892  0.36278197  0.43752156  1
  O  O386  1  0.77141179  0.36558962  0.77429505  1
  O  O387  1  0.77594869  0.86374143  0.10893490  1
  O  O388  1  0.77771418  0.85924837  0.44060453  1
  O  O389  1  0.77523153  0.86096858  0.77009229  1
  O  O390  1  0.36575299  0.28313006  0.27128244  1
  O  O391  1  0.35929249  0.28620902  0.62320090  1
  O  O392  1  0.36371900  0.29175500  0.94337977  1
  O  O393  1  0.36082673  0.77292856  0.27764928  1
  O  O394  1  0.36286110  0.77791138  0.60710383  1
  O  O395  1  0.36618364  0.77560619  0.94437696  1
  O  O396  1  0.86151132  0.28309127  0.28025808  1
  O  O397  1  0.85758585  0.27862230  0.60809038  1
  O  O398  1  0.85900295  0.26354293  0.93983329  1
  O  O399  1  0.86538345  0.77544272  0.27246407  1
  O  O400  1  0.86138469  0.77484160  0.60610611  1
  O  O401  1  0.86190410  0.77280244  0.93618217  1
  O  O402  1  0.23144136  0.13182466  0.23268354  1
  O  O403  1  0.21747367  0.13592287  0.56031113  1
  O  O404  1  0.22182781  0.14083445  0.88770086  1
  O  O405  1  0.22278460  0.63896103  0.22885284  1
  O  O406  1  0.22061593  0.63587900  0.55411255  1
  O  O407  1  0.22702968  0.64370551  0.89318754  1
  O  O408  1  0.72565161  0.13370260  0.22227875  1
  O  O409  1  0.72202647  0.13407554  0.56102143  1
  O  O410  1  0.71807979  0.13878142  0.88870801  1
  O  O411  1  0.72205647  0.63961018  0.22584705  1
  O  O412  1  0.71966937  0.64196070  0.55321242  1
  O  O413  1  0.71374318  0.63905780  0.88343803  1
  O  O414  1  0.49792541  0.32866186  0.02746175  1
  O  O415  1  0.49975222  0.33785766  0.35538071  1
  O  O416  1  0.49385552  0.33799155  0.70087901  1
  O  O417  1  0.49538460  0.84598670  0.02846738  1
  O  O418  1  0.48810345  0.83492836  0.36968197  1
  O  O419  1  0.49070086  0.83855619  0.69798208  1
  O  O420  1  0.98558295  0.32476831  0.03134354  1
  O  O421  1  0.99349035  0.33358122  0.36467654  1
  O  O422  1  0.98875457  0.33035758  0.69624820  1
  O  O423  1  0.99047580  0.82978821  0.02643334  1
  O  O424  1  0.99418982  0.83162110  0.36432148  1
  O  O425  1  0.99141469  0.83190853  0.69484422  1
  O  O426  1  0.15669194  0.00916998  0.13908283  1
  O  O427  1  0.15641991  0.00292082  0.47759768  1
  O  O428  1  0.16719262  0.00921661  0.79883098  1
  O  O429  1  0.17264908  0.50864230  0.13882123  1
  O  O430  1  0.16550986  0.50455484  0.46967863  1
  O  O431  1  0.17372277  0.51341615  0.80699443  1
  O  O432  1  0.66960742  0.00327329  0.13287082  1
  O  O433  1  0.67045528  0.00528625  0.46809705  1
  O  O434  1  0.66502006  0.00767331  0.80043406  1
  O  O435  1  0.67278269  0.50934569  0.13712218  1
  O  O436  1  0.66642868  0.50939131  0.46878458  1
  O  O437  1  0.66042669  0.50725663  0.79925796  1
  O  O438  1  -0.00593457  0.16250165  0.31502984  1
  O  O439  1  0.00629689  0.17078744  0.64030653  1
  O  O440  1  0.01084552  0.16786845  0.96730899  1
  O  O441  1  0.01086624  0.66873390  0.30243452  1
  O  O442  1  0.00860940  0.66616102  0.63318696  1
  O  O443  1  0.00812317  0.66245657  0.96740130  1
  O  O444  1  0.51589392  0.16911452  0.29931196  1
  O  O445  1  0.50110893  0.16708652  0.64226818  1
  O  O446  1  0.50499597  0.16016727  0.96860686  1
  O  O447  1  0.50853948  0.66839172  0.30226927  1
  O  O448  1  0.50849299  0.67221735  0.63776393  1
  O  O449  1  0.50993063  0.66481996  0.97030951  1
  O  O450  1  0.33818432  0.49198194  0.19918854  1
  O  O451  1  0.33029654  0.49175062  0.52760967  1
  O  O452  1  0.34177273  0.49868850  0.86315930  1
  O  O453  1  0.32102515  0.98346611  0.19897483  1
  O  O454  1  0.32762500  0.99526557  0.52683425  1
  O  O455  1  0.33548272  0.99937033  0.86560892  1
  O  O456  1  0.84013306  0.49075954  0.20184681  1
  O  O457  1  0.83202749  0.49202607  0.53066822  1
  O  O458  1  0.83716897  0.49505625  0.86220518  1
  O  O459  1  0.83600709  0.99262943  0.19552424  1
  O  O460  1  0.83298993  0.98933705  0.52834800  1
  O  O461  1  0.83116315  0.98968866  0.85979352  1
