# generated using pymatgen
data_Na31Fe20(SO4)36
_symmetry_space_group_name_H-M   'P 1'
_cell_length_a   18.08201277
_cell_length_b   18.08308042
_cell_length_c   19.72152828
_cell_angle_alpha   107.58380343
_cell_angle_beta   107.57755281
_cell_angle_gamma   90.71894300
_symmetry_Int_Tables_number   1
_chemical_formula_structural   Na31Fe20(SO4)36
_chemical_formula_sum   'Na62 Fe40 S72 O288'
_cell_volume   5821.85802691
_cell_formula_units_Z   2
loop_
 _symmetry_equiv_pos_site_id
 _symmetry_equiv_pos_as_xyz
  1  'x, y, z'
loop_
 _atom_site_type_symbol
 _atom_site_label
 _atom_site_symmetry_multiplicity
 _atom_site_fract_x
 _atom_site_fract_y
 _atom_site_fract_z
 _atom_site_occupancy
  Na  Na0  1  0.14275463  0.36072797  0.09234208  1
  Na  Na1  1  0.15557575  0.35105467  0.42342550  1
  Na  Na2  1  0.13783789  0.34699480  0.73906073  1
  Na  Na3  1  0.14112208  0.87093273  0.09138875  1
  Na  Na4  1  0.13346156  0.86293272  0.41115409  1
  Na  Na5  1  0.13555457  0.87426693  0.75154706  1
  Na  Na6  1  0.63503776  0.36990755  0.08935455  1
  Na  Na7  1  0.62964052  0.35396816  0.40865898  1
  Na  Na8  1  0.63565918  0.36765153  0.74771740  1
  Na  Na9  1  0.52703644  0.94909902  0.12537679  1
  Na  Na10  1  0.62068110  0.90535702  0.42553730  1
  Na  Na11  1  0.63567857  0.86589479  0.75133229  1
  Na  Na12  1  0.40698517  0.10609294  0.26281315  1
  Na  Na13  1  0.33826879  0.15225175  0.57974911  1
  Na  Na14  1  0.36369278  0.12826875  0.90793776  1
  Na  Na15  1  0.37560936  0.62394411  0.24708328  1
  Na  Na16  1  0.37160999  0.62819558  0.58399799  1
  Na  Na17  1  0.37121527  0.64362734  0.92674422  1
  Na  Na18  1  0.86517693  0.13487568  0.25463538  1
  Na  Na19  1  0.85481639  0.12704478  0.57602750  1
  Na  Na20  1  0.86031865  0.13485212  0.91288977  1
  Na  Na21  1  0.86647595  0.63482422  0.25014991  1
  Na  Na22  1  0.86287985  0.63550297  0.58039144  1
  Na  Na23  1  0.87197276  0.64122540  0.92292222  1
  Na  Na24  1  0.95275644  0.01336094  0.72875382  1
  Na  Na25  1  0.98102568  0.00868515  0.41738895  1
  Na  Na26  1  0.98591584  0.00987072  0.07965950  1
  Na  Na27  1  0.99182216  0.50174645  0.41645271  1
  Na  Na28  1  0.99268229  0.50874985  0.08338649  1
  Na  Na29  1  0.48993909  0.50803165  0.08630197  1
  Na  Na30  1  0.48018728  -0.00357758  0.76648873  1
  Na  Na31  1  0.99169671  0.50689332  0.74977706  1
  Na  Na32  1  0.50451851  0.49317304  0.41537783  1
  Na  Na33  1  0.01407050  0.48789845  0.91704578  1
  Na  Na34  1  0.01788172  0.98798167  0.25174835  1
  Na  Na35  1  0.50758326  0.46348059  0.58337752  1
  Na  Na36  1  0.48811604  1.02984146  0.53923702  1
  Na  Na37  1  0.03471364  0.98598235  0.59541706  1
  Na  Na38  1  0.48730871  0.53755052  0.85977739  1
  Na  Na39  1  0.01522555  0.99249295  0.91181615  1
  Na  Na40  1  0.01211987  0.48574397  0.25004662  1
  Na  Na41  1  0.01254786  0.48304499  0.58364733  1
  Na  Na42  1  0.24291710  0.23566660  0.01031029  1
  Na  Na43  1  0.74198707  0.24635700  0.00504059  1
  Na  Na44  1  0.26498052  0.76299915  0.32081460  1
  Na  Na45  1  0.75361965  0.76421968  0.33431904  1
  Na  Na46  1  0.25865630  0.74930780  0.66033403  1
  Na  Na47  1  0.26305611  0.75959912  -0.00221683  1
  Na  Na48  1  0.75044230  0.75953945  0.66305073  1
  Na  Na49  1  0.70771652  0.20568274  0.33376053  1
  Na  Na50  1  0.27582321  0.24794812  0.32696205  1
  Na  Na51  1  0.71834780  0.74474142  0.00437992  1
  Na  Na52  1  0.25417453  0.75459669  0.49564455  1
  Na  Na53  1  0.75846214  0.26071784  0.82050898  1
  Na  Na54  1  0.25644176  0.75626353  0.82542182  1
  Na  Na55  1  0.73973056  0.23604626  0.51874076  1
  Na  Na56  1  0.29563086  0.79574102  0.17296693  1
  Na  Na57  1  0.25058615  0.24392951  0.82668930  1
  Na  Na58  1  0.73578788  0.74146444  0.83958734  1
  Na  Na59  1  0.73023227  0.23634245  0.17783430  1
  Na  Na60  1  0.73857142  0.74675529  0.16421578  1
  Na  Na61  1  0.75949665  0.77382542  0.49883279  1
  Fe  Fe62  1  0.96357476  0.80561525  0.11670503  1
  Fe  Fe63  1  0.96854386  0.80431409  0.45360940  1
  Fe  Fe64  1  0.96452827  0.80753768  0.78373398  1
  Fe  Fe65  1  0.46456860  0.81120140  0.45545161  1
  Fe  Fe66  1  0.46792176  0.30303980  0.12553132  1
  Fe  Fe67  1  0.96861747  0.30395376  0.44886452  1
  Fe  Fe68  1  0.96372236  0.30460343  0.11628845  1
  Fe  Fe69  1  0.96144160  0.30784603  0.77970963  1
  Fe  Fe70  1  0.46972020  0.79902679  0.79349496  1
  Fe  Fe71  1  0.46574355  0.30935770  0.78741077  1
  Fe  Fe72  1  0.19432734  0.53030848  0.71675264  1
  Fe  Fe73  1  0.68919361  0.53438993  0.04170664  1
  Fe  Fe74  1  0.19941751  0.03076741  0.38077201  1
  Fe  Fe75  1  0.69332317  0.53727527  0.71258117  1
  Fe  Fe76  1  0.69420460  0.03487769  0.70902955  1
  Fe  Fe77  1  0.19436723  0.53427618  0.38559672  1
  Fe  Fe78  1  0.19624619  0.53135873  0.05269388  1
  Fe  Fe79  1  0.68442524  0.03254494  0.04179994  1
  Fe  Fe80  1  0.69065630  0.53655640  0.37695715  1
  Fe  Fe81  1  0.19377709  0.04514515  0.05675109  1
  Fe  Fe82  1  0.04111098  0.18800949  0.54911721  1
  Fe  Fe83  1  0.03815593  0.69389834  0.88340922  1
  Fe  Fe84  1  0.03631405  0.68668284  0.54978704  1
  Fe  Fe85  1  0.53693896  0.69888395  0.20910679  1
  Fe  Fe86  1  0.53462714  0.69446670  0.54313666  1
  Fe  Fe87  1  0.52734061  0.20364991  0.53761940  1
  Fe  Fe88  1  0.03459114  0.19345361  0.21800604  1
  Fe  Fe89  1  0.03327322  0.19060267  0.87888944  1
  Fe  Fe90  1  0.03576068  0.69183786  0.21680866  1
  Fe  Fe91  1  0.53679297  0.19246262  0.87610410  1
  Fe  Fe92  1  0.80680995  0.46388101  0.28174841  1
  Fe  Fe93  1  0.80253554  0.96455029  0.28783864  1
  Fe  Fe94  1  0.30717791  0.46319520  0.28471978  1
  Fe  Fe95  1  0.30651601  0.97182396  0.95656614  1
  Fe  Fe96  1  0.31229672  0.45743505  0.61976053  1
  Fe  Fe97  1  0.80753400  0.46471304  0.61431521  1
  Fe  Fe98  1  0.80913401  0.46421056  0.94779794  1
  Fe  Fe99  1  0.30698603  0.46273539  0.95185587  1
  Fe  Fe100  1  0.80550562  0.96398063  0.95125789  1
  Fe  Fe101  1  0.29663744  0.97098416  0.62650383  1
  S  S102  1  0.35659916  0.14182843  0.08128040  1
  S  S103  1  0.35741035  0.13819453  0.42522878  1
  S  S104  1  0.36231865  0.14025002  0.75295751  1
  S  S105  1  0.35871111  0.63686051  0.08788633  1
  S  S106  1  0.35829511  0.64172593  0.41575195  1
  S  S107  1  0.35519808  0.63398991  0.74862409  1
  S  S108  1  0.85793804  0.13885524  0.08255548  1
  S  S109  1  0.86486328  0.14136032  0.41524802  1
  S  S110  1  0.85664863  0.14676560  0.75272651  1
  S  S111  1  0.86391307  0.63692449  0.08199789  1
  S  S112  1  0.86192135  0.63585129  0.41578692  1
  S  S113  1  0.86148131  0.64058716  0.74885976  1
  S  S114  1  0.13659614  0.36183437  0.25135601  1
  S  S115  1  0.14014491  0.35846006  0.58313478  1
  S  S116  1  0.13801473  0.35972288  0.91617000  1
  S  S117  1  0.13814937  0.85566221  0.24845914  1
  S  S118  1  0.14126954  0.84845331  0.58203881  1
  S  S119  1  0.13880556  0.86263081  0.91741453  1
  S  S120  1  0.64354907  0.36169423  0.24954874  1
  S  S121  1  0.64304761  0.36563854  0.58280632  1
  S  S122  1  0.64391054  0.35946299  0.91628335  1
  S  S123  1  0.64638966  0.85556403  0.24843893  1
  S  S124  1  0.63877858  0.86221667  0.58535437  1
  S  S125  1  0.64145942  0.86037408  0.91153217  1
  S  S126  1  0.06113606  0.17019865  0.04072978  1
  S  S127  1  0.06920048  0.16697144  0.37487430  1
  S  S128  1  0.05604318  0.16725824  0.70972382  1
  S  S129  1  0.07151567  0.66741239  0.04410892  1
  S  S130  1  0.06472649  0.66250550  0.37544168  1
  S  S131  1  0.06531472  0.66377458  0.70957325  1
  S  S132  1  0.56996933  0.17769241  0.04114285  1
  S  S133  1  0.56599570  0.17734075  0.38421413  1
  S  S134  1  0.57056941  0.17725381  0.71098533  1
  S  S135  1  0.56196690  0.64983945  0.03769747  1
  S  S136  1  0.57428849  0.67513402  0.37653659  1
  S  S137  1  0.56713796  0.66865175  0.70340311  1
  S  S138  1  0.32752470  0.42667470  0.11955340  1
  S  S139  1  0.33319948  0.43972133  0.45623876  1
  S  S140  1  0.32675282  0.42988314  0.79319939  1
  S  S141  1  0.32347465  0.94341768  0.11921384  1
  S  S142  1  0.32099747  0.92526767  0.46117158  1
  S  S143  1  0.32800443  0.92625925  0.79045008  1
  S  S144  1  0.83546776  0.43448613  0.12275842  1
  S  S145  1  0.83536230  0.43173018  0.45564490  1
  S  S146  1  0.83712067  0.44034441  0.79344840  1
  S  S147  1  0.83589526  0.92839922  0.12528220  1
  S  S148  1  0.85145171  0.93396597  0.46314488  1
  S  S149  1  0.83428794  0.93603564  0.79197719  1
  S  S150  1  0.43406809  0.34503028  0.29300688  1
  S  S151  1  0.43727572  0.33378236  0.63182931  1
  S  S152  1  0.43294323  0.32891895  0.95972862  1
  S  S153  1  0.43601367  0.82167324  0.29093246  1
  S  S154  1  0.42754045  0.82652809  0.62674458  1
  S  S155  1  0.42195946  0.82862596  0.95551031  1
  S  S156  1  0.93296080  0.33201791  0.28825668  1
  S  S157  1  0.93637000  0.33524124  0.62403568  1
  S  S158  1  0.93673379  0.33326743  0.95839417  1
  S  S159  1  0.93224455  0.82654043  0.28814321  1
  S  S160  1  0.93942208  0.82611643  0.62279489  1
  S  S161  1  0.93441547  0.83054895  0.95544037  1
  S  S162  1  0.15519547  0.06798007  0.20767032  1
  S  S163  1  0.15933628  0.05872594  0.53813550  1
  S  S164  1  0.16460135  0.06504712  0.87528185  1
  S  S165  1  0.16499542  0.56506390  0.21110400  1
  S  S166  1  0.16579569  0.55943509  0.54169819  1
  S  S167  1  0.16657585  0.56452174  0.87609522  1
  S  S168  1  0.67589354  0.06129062  0.20598609  1
  S  S169  1  0.66913788  0.08329956  0.55015251  1
  S  S170  1  0.67324049  0.06929682  0.87482210  1
  S  S171  1  0.67608213  0.57355704  0.20987445  1
  S  S172  1  0.67365274  0.57073283  0.54193099  1
  S  S173  1  0.68135341  0.57129541  0.87974454  1
  O  O174  1  0.37360125  0.21940681  0.07138395  1
  O  O175  1  0.35758162  0.21808945  0.42397991  1
  O  O176  1  0.37473934  0.22175962  0.75229164  1
  O  O177  1  0.35996767  0.71561464  0.08234279  1
  O  O178  1  0.36716628  0.72253694  0.41217461  1
  O  O179  1  0.36612011  0.71307884  0.74105951  1
  O  O180  1  0.86774098  0.21560900  0.06957273  1
  O  O181  1  0.87994522  0.21567724  0.39944668  1
  O  O182  1  0.86429913  0.23048779  0.75614324  1
  O  O183  1  0.87341616  0.71345237  0.06959792  1
  O  O184  1  0.87178063  0.71436528  0.40741539  1
  O  O185  1  0.87055869  0.71810837  0.73793009  1
  O  O186  1  0.27303395  0.14040614  0.08030950  1
  O  O187  1  0.28507456  0.11770852  0.44314905  1
  O  O188  1  0.29202305  0.13041891  0.77237493  1
  O  O189  1  0.28559961  0.61947965  0.10406653  1
  O  O190  1  0.28157395  0.63260621  0.42894959  1
  O  O191  1  0.27280624  0.62759336  0.75270803  1
  O  O192  1  0.77799894  0.12991456  0.08697403  1
  O  O193  1  0.78847016  0.13958524  0.42562455  1
  O  O194  1  0.78036368  0.13364238  0.76471128  1
  O  O195  1  0.78490276  0.62844282  0.08908471  1
  O  O196  1  0.78430009  0.62822980  0.42619210  1
  O  O197  1  0.78301051  0.63301635  0.75759339  1
  O  O198  1  0.12716871  0.28405118  0.26056126  1
  O  O199  1  0.12887014  0.28220482  0.59430355  1
  O  O200  1  0.12827824  0.28130574  0.92450250  1
  O  O201  1  0.12566963  0.77970228  0.26341154  1
  O  O202  1  0.13403981  0.76696034  0.58697172  1
  O  O203  1  0.13225447  0.78344139  0.92636822  1
  O  O204  1  0.64322682  0.28506162  0.25954290  1
  O  O205  1  0.62767956  0.28548374  0.58528066  1
  O  O206  1  0.63477211  0.27867829  0.91976829  1
  O  O207  1  0.63656266  0.76769924  0.24323100  1
  O  O208  1  0.62536112  0.78140891  0.59118378  1
  O  O209  1  0.63601104  0.78063589  0.91385720  1
  O  O210  1  0.21323413  0.37209549  0.24101687  1
  O  O211  1  0.21784613  0.36869283  0.57483667  1
  O  O212  1  0.21585760  0.36808978  0.90637305  1
  O  O213  1  0.21467082  0.85988155  0.23911014  1
  O  O214  1  0.22345767  0.86140841  0.58339829  1
  O  O215  1  0.21755663  0.87288299  0.90879390  1
  O  O216  1  0.71778970  0.37655352  0.23182150  1
  O  O217  1  0.72536494  0.37151011  0.58003855  1
  O  O218  1  0.72191133  0.36885622  0.90505764  1
  O  O219  1  0.73156560  0.86285163  0.24905103  1
  O  O220  1  0.71516918  0.86914412  0.57596566  1
  O  O221  1  0.71935197  0.87409983  0.89872212  1
  O  O222  1  0.40914685  0.12897419  0.14655431  1
  O  O223  1  0.42414307  0.13405468  0.49547078  1
  O  O224  1  0.43039714  0.12240397  0.81111300  1
  O  O225  1  0.42569752  0.62788761  0.15181611  1
  O  O226  1  0.42112608  0.63071865  0.47993546  1
  O  O227  1  0.40983442  0.62441601  0.81581796  1
  O  O228  1  0.91559642  0.13534560  0.15327101  1
  O  O229  1  0.92620635  0.13491028  0.48336814  1
  O  O230  1  0.91823370  0.13352249  0.81870140  1
  O  O231  1  0.92238172  0.63146837  0.15204998  1
  O  O232  1  0.92188497  0.62509745  0.48219397  1
  O  O233  1  0.92117703  0.63381343  0.81744505  1
  O  O234  1  0.36059191  0.08235168  0.00867985  1
  O  O235  1  0.36392133  0.08103719  0.35810227  1
  O  O236  1  0.35955852  0.08560764  0.67795137  1
  O  O237  1  0.36380644  0.57901404  0.01729641  1
  O  O238  1  0.36019238  0.58545964  0.34425905  1
  O  O239  1  0.36048727  0.57552286  0.67876174  1
  O  O240  1  0.87067079  0.07663772  0.01823272  1
  O  O241  1  0.87153672  0.07623048  0.34900197  1
  O  O242  1  0.86387198  0.09401970  0.68344608  1
  O  O243  1  0.87640347  0.57533758  0.01761370  1
  O  O244  1  0.86924315  0.57655644  0.34711383  1
  O  O245  1  0.87014872  0.57963208  0.68189536  1
  O  O246  1  0.07517475  0.37032329  0.18365611  1
  O  O247  1  0.08064768  0.36671473  0.51431081  1
  O  O248  1  0.07779671  0.37037162  0.84976522  1
  O  O249  1  0.07704466  0.86087088  0.17920663  1
  O  O250  1  0.08837992  0.85163432  0.50838862  1
  O  O251  1  0.07940028  0.86736015  0.84768186  1
  O  O252  1  0.57883220  0.36765937  0.18379984  1
  O  O253  1  0.58890992  0.38443087  0.52011843  1
  O  O254  1  0.58294785  0.37298516  0.85324494  1
  O  O255  1  0.59437766  0.86638978  0.18168938  1
  O  O256  1  0.57635356  0.87288772  0.52033098  1
  O  O257  1  0.58016345  0.87035861  0.84528478  1
  O  O258  1  0.12719243  0.42192189  0.31878439  1
  O  O259  1  0.12936989  0.41983792  0.64974349  1
  O  O260  1  0.13088134  0.41966001  0.98506165  1
  O  O261  1  0.12804835  0.91852979  0.31334180  1
  O  O262  1  0.12275128  0.90407336  0.64381385  1
  O  O263  1  0.12686994  0.92181363  0.98292575  1
  O  O264  1  0.64100894  0.42268459  0.31903631  1
  O  O265  1  0.63849964  0.42200038  0.65533108  1
  O  O266  1  0.64330424  0.41444002  0.98938790  1
  O  O267  1  0.64073897  0.90297081  0.31982589  1
  O  O268  1  0.63382118  0.91831772  0.65645748  1
  O  O269  1  0.63803116  0.91781991  0.98130392  1
  O  O270  1  0.02785041  0.20094605  0.10421264  1
  O  O271  1  0.04052546  0.20189726  0.44087872  1
  O  O272  1  0.02262174  0.20879112  0.77225871  1
  O  O273  1  0.03474981  0.69676992  0.10454709  1
  O  O274  1  0.02909906  0.69291030  0.43636572  1
  O  O275  1  0.03182862  0.69717517  0.77214145  1
  O  O276  1  0.53246586  0.20814036  0.09952982  1
  O  O277  1  0.52240429  0.20894410  0.44153057  1
  O  O278  1  0.53158974  0.20837123  0.77096099  1
  O  O279  1  0.53083225  0.67966852  0.10190734  1
  O  O280  1  0.53169119  0.70513284  0.43282770  1
  O  O281  1  0.52923783  0.69590789  0.76127694  1
  O  O282  1  0.29700902  0.46179136  0.05654233  1
  O  O283  1  0.29567214  0.47651126  0.39526759  1
  O  O284  1  0.29589966  0.46320683  0.72972221  1
  O  O285  1  0.28779535  0.97709831  0.05269701  1
  O  O286  1  0.29057863  0.95566923  0.39831073  1
  O  O287  1  0.30649957  0.96495181  0.73254290  1
  O  O288  1  0.80518490  0.46914744  0.06128652  1
  O  O289  1  0.80566708  0.46622486  0.39352722  1
  O  O290  1  0.80607742  0.47464975  0.73172508  1
  O  O291  1  0.80534470  0.96399295  0.06428848  1
  O  O292  1  0.82973031  0.95931557  0.39511413  1
  O  O293  1  0.80556823  0.97381846  0.73421729  1
  O  O294  1  0.45639945  0.31200947  0.22368998  1
  O  O295  1  0.47522132  0.30277196  0.57296440  1
  O  O296  1  0.47413148  0.30328376  0.90221018  1
  O  O297  1  0.48163685  0.78954710  0.23739192  1
  O  O298  1  0.46463406  0.80085444  0.56576787  1
  O  O299  1  0.45291140  0.80558360  0.89171909  1
  O  O300  1  0.96687326  0.29900988  0.22579575  1
  O  O301  1  0.96994624  0.30410789  0.56183829  1
  O  O302  1  0.97198591  0.30202895  0.89769489  1
  O  O303  1  0.96589015  0.79479187  0.22517566  1
  O  O304  1  0.97276836  0.78699210  0.56025717  1
  O  O305  1  0.97036144  0.79919750  0.89395549  1
  O  O306  1  0.18096534  0.03311563  0.26794495  1
  O  O307  1  0.18710212  0.01946882  0.59577751  1
  O  O308  1  0.19805034  0.03038071  0.93894031  1
  O  O309  1  0.19638818  0.53049485  0.27276042  1
  O  O310  1  0.19678954  0.52582257  0.60347118  1
  O  O311  1  0.19785288  0.53130007  0.93876322  1
  O  O312  1  0.71116452  0.02392861  0.26523491  1
  O  O313  1  0.67464231  0.04230770  0.60656397  1
  O  O314  1  0.70197701  0.03321946  0.93643616  1
  O  O315  1  0.70324319  0.53870946  0.27210894  1
  O  O316  1  0.70378406  0.53470192  0.60341786  1
  O  O317  1  0.71122973  0.53009397  0.93871148  1
  O  O318  1  0.07744318  0.08759525  0.03579025  1
  O  O319  1  0.08109533  0.08383564  0.36900798  1
  O  O320  1  0.05555348  0.08501433  0.70599517  1
  O  O321  1  0.08506982  0.58352157  0.03742498  1
  O  O322  1  0.08030710  0.57948649  0.37086617  1
  O  O323  1  0.08099398  0.58134847  0.70675512  1
  O  O324  1  0.59247527  0.09921340  0.04053170  1
  O  O325  1  0.58002545  0.09736955  0.37866837  1
  O  O326  1  0.58804464  0.09704717  0.71005393  1
  O  O327  1  0.57745711  0.56560459  0.03149778  1
  O  O328  1  0.59021487  0.59413723  0.37587234  1
  O  O329  1  0.58755803  0.58692829  0.69662710  1
  O  O330  1  0.40864334  0.40932629  0.12386329  1
  O  O331  1  0.41656724  0.43935878  0.46471007  1
  O  O332  1  0.40859261  0.41358870  0.79912339  1
  O  O333  1  0.40210069  0.92741436  0.12132077  1
  O  O334  1  0.40464890  0.91095063  0.47086546  1
  O  O335  1  0.40948428  0.90684005  0.80176637  1
  O  O336  1  0.91882925  0.41884696  0.12818240  1
  O  O337  1  0.91923342  0.41678683  0.46164644  1
  O  O338  1  0.91890997  0.42100368  0.79481347  1
  O  O339  1  0.92137228  0.91839961  0.13205480  1
  O  O340  1  0.93671941  0.91522618  0.47473357  1
  O  O341  1  0.91726515  0.91764021  0.79548651  1
  O  O342  1  0.41215264  0.42726172  0.29562299  1
  O  O343  1  0.41904814  0.41459076  0.62955536  1
  O  O344  1  0.41354847  0.41070379  0.96610773  1
  O  O345  1  0.40288878  0.88978744  0.27677858  1
  O  O346  1  0.40509145  0.90673388  0.63486390  1
  O  O347  1  0.39345541  0.90886852  0.96137045  1
  O  O348  1  0.91964021  0.41560433  0.29252958  1
  O  O349  1  0.92016693  0.41857448  0.62801782  1
  O  O350  1  0.92228188  0.41673693  0.96302268  1
  O  O351  1  0.91717736  0.90881362  0.29313030  1
  O  O352  1  0.93248379  0.90734017  0.62637665  1
  O  O353  1  0.91986214  0.91334912  0.96119149  1
  O  O354  1  0.06887128  0.08081949  0.19751069  1
  O  O355  1  0.07489032  0.07337089  0.53381828  1
  O  O356  1  0.08407918  0.08574204  0.87891901  1
  O  O357  1  0.08099810  0.57877289  0.20561333  1
  O  O358  1  0.08266321  0.57577114  0.53797221  1
  O  O359  1  0.08307749  0.58012833  0.87101878  1
  O  O360  1  0.59777109  0.07832625  0.20613839  1
  O  O361  1  0.58755979  0.11100533  0.53570070  1
  O  O362  1  0.59077953  0.08473574  0.86578020  1
  O  O363  1  0.59509865  0.59464709  0.20265524  1
  O  O364  1  0.59143748  0.58724860  0.53431936  1
  O  O365  1  0.60447359  0.59309817  0.87845986  1
  O  O366  1  0.13109292  0.22059321  0.05327157  1
  O  O367  1  0.13982236  0.21316182  0.38213368  1
  O  O368  1  0.13361665  0.20832000  0.72708711  1
  O  O369  1  0.14360331  0.71625197  0.05893506  1
  O  O370  1  0.13644909  0.71149356  0.38932722  1
  O  O371  1  0.13623156  0.71293308  0.72115809  1
  O  O372  1  0.64109577  0.23202201  0.05730656  1
  O  O373  1  0.64155616  0.23105982  0.41493212  1
  O  O374  1  0.64054048  0.23116961  0.72911025  1
  O  O375  1  0.63686688  0.69584881  0.05348719  1
  O  O376  1  0.64647206  0.72649767  0.39542178  1
  O  O377  1  0.63920266  0.72125577  0.72018175  1
  O  O378  1  0.27486647  0.35656591  0.10359050  1
  O  O379  1  0.28940384  0.36305992  0.43531743  1
  O  O380  1  0.27576710  0.36062764  0.78182505  1
  O  O381  1  0.27055407  0.86957268  0.09717016  1
  O  O382  1  0.27237893  0.85078209  0.44541071  1
  O  O383  1  0.27258061  0.85523144  0.76970872  1
  O  O384  1  0.78684064  0.36243688  0.10899832  1
  O  O385  1  0.78687618  0.36052949  0.44311528  1
  O  O386  1  0.78619072  0.37209050  0.78394067  1
  O  O387  1  0.79244718  0.85270264  0.10918324  1
  O  O388  1  0.80202816  0.86111024  0.44825732  1
  O  O389  1  0.78483381  0.86326007  0.77690566  1
  O  O390  1  0.36713807  0.29644882  0.28924105  1
  O  O391  1  0.36709121  0.28579698  0.62152435  1
  O  O392  1  0.36183484  0.27512896  0.93899123  1
  O  O393  1  0.37283254  0.75872478  0.27697163  1
  O  O394  1  0.35867399  0.76882097  0.60732632  1
  O  O395  1  0.35129824  0.77210675  0.93695550  1
  O  O396  1  0.86029417  0.28486492  0.27415305  1
  O  O397  1  0.86634092  0.28659474  0.61387182  1
  O  O398  1  0.86358086  0.28558091  0.94418659  1
  O  O399  1  0.86112639  0.77538138  0.27356290  1
  O  O400  1  0.86415084  0.78012277  0.60757482  1
  O  O401  1  0.86212914  0.78097919  0.93928707  1
  O  O402  1  0.20067062  0.14100518  0.22086940  1
  O  O403  1  0.20501435  0.13265224  0.55518234  1
  O  O404  1  0.21497480  0.13739880  0.89122152  1
  O  O405  1  0.21234175  0.63721795  0.22457487  1
  O  O406  1  0.21485734  0.63070447  0.55340742  1
  O  O407  1  0.21453321  0.63664128  0.88845081  1
  O  O408  1  0.72951053  0.13358861  0.22345104  1
  O  O409  1  0.72857086  0.15161045  0.58060004  1
  O  O410  1  0.72461039  0.14218084  0.89465445  1
  O  O411  1  0.73119595  0.64252836  0.22596012  1
  O  O412  1  0.72522337  0.64276803  0.55942394  1
  O  O413  1  0.73820533  0.64093619  0.89981729  1
  O  O414  1  0.48949838  0.33173140  0.03424789  1
  O  O415  1  0.50240230  0.35793278  0.35977449  1
  O  O416  1  0.49740536  0.34374100  0.70667133  1
  O  O417  1  0.48094233  0.83216198  0.02488691  1
  O  O418  1  0.49131117  0.83808326  0.36944137  1
  O  O419  1  0.48655958  0.82785440  0.69910015  1
  O  O420  1  0.99541464  0.33627554  0.03164645  1
  O  O421  1  0.99386028  0.33537034  0.36021809  1
  O  O422  1  0.99791377  0.34209536  0.69741603  1
  O  O423  1  0.99354117  0.83107494  0.02743957  1
  O  O424  1  0.99269544  0.82667165  0.35922718  1
  O  O425  1  0.99641068  0.82206053  0.69465804  1
  O  O426  1  0.15254713  0.00917213  0.13367883  1
  O  O427  1  0.15488196  0.00236330  0.46268226  1
  O  O428  1  0.15657742  0.00610164  0.80420283  1
  O  O429  1  0.16088196  0.50449099  0.13818505  1
  O  O430  1  0.15976967  0.49949105  0.46833730  1
  O  O431  1  0.16256027  0.50336750  0.80395897  1
  O  O432  1  0.67399142  0.00536080  0.13161648  1
  O  O433  1  0.67474271  0.02750842  0.48191408  1
  O  O434  1  0.67649688  0.01141883  0.80397211  1
  O  O435  1  0.67499974  0.51183366  0.13932897  1
  O  O436  1  0.67373983  0.51137626  0.47046253  1
  O  O437  1  0.68100100  0.51335544  0.80697577  1
  O  O438  1  0.00422931  0.16688387  0.30556426  1
  O  O439  1  0.00241157  0.17438721  0.63783347  1
  O  O440  1  -0.00067200  0.16727844  0.96935878  1
  O  O441  1  0.00505476  0.65935732  0.30272240  1
  O  O442  1  0.00441082  0.65823339  0.63682001  1
  O  O443  1  0.01158042  0.66585594  0.97129597  1
  O  O444  1  0.51840760  0.18812510  0.31420780  1
  O  O445  1  0.51247248  0.17429059  0.63754005  1
  O  O446  1  0.51302993  0.17144656  0.96590058  1
  O  O447  1  0.52000969  0.67117071  0.30082402  1
  O  O448  1  0.50974607  0.66508930  0.62874619  1
  O  O449  1  0.50261016  0.64900375  0.96833438  1
  O  O450  1  0.32552015  0.48806982  0.18900331  1
  O  O451  1  0.32436805  0.49256215  0.52807062  1
  O  O452  1  0.32991113  0.49356052  0.86435088  1
  O  O453  1  0.31638527  1.00118365  0.18565843  1
  O  O454  1  0.32032392  0.98405660  0.53300264  1
  O  O455  1  0.32267292  0.98433252  0.86199289  1
  O  O456  1  0.83873258  0.49417349  0.19556946  1
  O  O457  1  0.83893643  0.49357966  0.52797818  1
  O  O458  1  0.84737606  0.50159597  0.86759857  1
  O  O459  1  0.83602402  0.98522085  0.19846597  1
  O  O460  1  0.85043541  0.99609088  0.52933885  1
  O  O461  1  0.84102055  0.99261729  0.86799050  1
