# generated using pymatgen
data_Na31Fe20(SO4)36
_symmetry_space_group_name_H-M   'P 1'
_cell_length_a   18.08061609
_cell_length_b   18.07913980
_cell_length_c   19.71053343
_cell_angle_alpha   107.61926611
_cell_angle_beta   107.60501196
_cell_angle_gamma   90.73801740
_symmetry_Int_Tables_number   1
_chemical_formula_structural   Na31Fe20(SO4)36
_chemical_formula_sum   'Na62 Fe40 S72 O288'
_cell_volume   5814.35990536
_cell_formula_units_Z   2
loop_
 _symmetry_equiv_pos_site_id
 _symmetry_equiv_pos_as_xyz
  1  'x, y, z'
loop_
 _atom_site_type_symbol
 _atom_site_label
 _atom_site_symmetry_multiplicity
 _atom_site_fract_x
 _atom_site_fract_y
 _atom_site_fract_z
 _atom_site_occupancy
  Na  Na0  1  0.13444384  0.35069104  0.06528550  1
  Na  Na1  1  0.14824306  0.37686051  0.44247814  1
  Na  Na2  1  0.16337656  0.36865337  0.78857664  1
  Na  Na3  1  0.13327793  0.85373547  0.07155837  1
  Na  Na4  1  0.13856248  0.86911214  0.42203644  1
  Na  Na5  1  0.13096332  0.86982464  0.75242977  1
  Na  Na6  1  0.63056967  0.37077969  0.08262238  1
  Na  Na7  1  0.62487841  0.37206477  0.41423946  1
  Na  Na8  1  0.63711495  0.37050284  0.75106948  1
  Na  Na9  1  0.62895935  0.85846599  0.08098813  1
  Na  Na10  1  0.64024544  0.86123735  0.41641633  1
  Na  Na11  1  0.63310807  0.86244789  0.74448388  1
  Na  Na12  1  0.36669572  0.12782351  0.24558023  1
  Na  Na13  1  0.37108359  0.14360695  0.59135830  1
  Na  Na14  1  0.35352967  0.13961134  0.90809147  1
  Na  Na15  1  0.36184965  0.61751766  0.23190339  1
  Na  Na16  1  0.34938320  0.63651559  0.57671600  1
  Na  Na17  1  0.34151409  0.62650930  0.90772302  1
  Na  Na18  1  0.87334547  0.12807897  0.25365166  1
  Na  Na19  1  0.87461988  0.14177560  0.59854622  1
  Na  Na20  1  0.86842741  0.14068727  0.91445671  1
  Na  Na21  1  0.86460494  0.63858718  0.25587272  1
  Na  Na22  1  0.86609449  0.64395586  0.59048651  1
  Na  Na23  1  0.87490796  0.63501566  0.91699604  1
  Na  Na24  1  0.49049256  0.00673245  0.41760719  1
  Na  Na25  1  0.48899946  -0.00368087  0.08124362  1
  Na  Na26  1  1.00377628  0.05712052  0.76474867  1
  Na  Na27  1  0.44023289  0.50236120  0.08045599  1
  Na  Na28  1  0.44476249  0.50493950  0.73339892  1
  Na  Na29  1  1.05780964  0.48521920  0.71297280  1
  Na  Na30  1  0.99796652  -0.00321531  0.10166654  1
  Na  Na31  1  0.98440768  0.49884438  0.43692339  1
  Na  Na32  1  1.03461796  0.48088888  0.05679932  1
  Na  Na33  1  0.01431308  0.49149190  0.24880389  1
  Na  Na34  1  0.47726711  0.50939819  0.93167837  1
  Na  Na35  1  0.50520643  0.99157412  0.59985397  1
  Na  Na36  1  0.01522852  0.99965670  0.56426740  1
  Na  Na37  1  0.48704792  0.51312729  0.57540915  1
  Na  Na38  1  0.50187891  0.94087997  0.23096589  1
  Na  Na39  1  0.50162108  0.99782372  0.90288884  1
  Na  Na40  1  0.03575313  0.49288639  0.89503653  1
  Na  Na41  1  0.00792867  0.99279830  0.91600064  1
  Na  Na42  1  0.76575215  0.26193805  0.66459258  1
  Na  Na43  1  0.24909064  0.27692633  -0.03634449  1
  Na  Na44  1  0.74990030  0.24781307  0.00142720  1
  Na  Na45  1  0.74884624  0.74993220  -0.00118427  1
  Na  Na46  1  0.22250763  0.70936324  0.00003701  1
  Na  Na47  1  0.24206988  0.73950029  0.34561507  1
  Na  Na48  1  0.23860154  0.73887968  0.66740754  1
  Na  Na49  1  0.24477204  0.25722153  0.67930057  1
  Na  Na50  1  0.25496437  0.25507653  0.33335325  1
  Na  Na51  1  0.75392283  0.25065198  0.33051557  1
  Na  Na52  1  0.23257779  0.73743359  0.83219251  1
  Na  Na53  1  0.78050087  0.26723841  0.82840202  1
  Na  Na54  1  0.75350531  0.25306175  0.16518922  1
  Na  Na55  1  0.75921166  0.25901525  0.49780852  1
  Na  Na56  1  0.74214363  0.74062716  0.17922965  1
  Na  Na57  1  0.24589674  0.73266104  0.17023511  1
  Na  Na58  1  0.74707513  0.74625285  0.50507618  1
  Na  Na59  1  0.25083412  0.25450629  0.50813329  1
  Na  Na60  1  0.75802056  0.75790265  0.82409490  1
  Na  Na61  1  0.25283665  0.25322722  0.15638094  1
  Fe  Fe62  1  0.46703046  0.30825979  0.78687657  1
  Fe  Fe63  1  0.96653159  0.81036933  0.12354090  1
  Fe  Fe64  1  0.46402809  0.80836007  0.78102245  1
  Fe  Fe65  1  0.46388483  0.80660256  0.45159570  1
  Fe  Fe66  1  0.96346733  0.80758235  0.45096510  1
  Fe  Fe67  1  0.96567799  0.30955542  0.45926916  1
  Fe  Fe68  1  0.96512616  0.30282219  0.11728507  1
  Fe  Fe69  1  0.46603027  0.30967801  0.45591605  1
  Fe  Fe70  1  0.46668258  0.30450352  0.11998953  1
  Fe  Fe71  1  0.96592718  0.80072072  0.78602171  1
  Fe  Fe72  1  0.19175759  0.03682446  0.04720096  1
  Fe  Fe73  1  0.19502467  0.53658684  0.38591563  1
  Fe  Fe74  1  0.19703486  0.03638507  0.71643749  1
  Fe  Fe75  1  0.69718157  0.03261925  0.71872645  1
  Fe  Fe76  1  0.69473603  0.03247913  0.38269937  1
  Fe  Fe77  1  0.69308513  0.03112175  0.04977214  1
  Fe  Fe78  1  0.69094189  0.53443774  0.04576040  1
  Fe  Fe79  1  0.68378667  0.53856413  0.37695969  1
  Fe  Fe80  1  0.19090519  0.03542136  0.37807008  1
  Fe  Fe81  1  0.69028814  0.53889931  0.71192340  1
  Fe  Fe82  1  0.03630997  0.19230558  0.21660976  1
  Fe  Fe83  1  0.03497296  0.19318054  0.54770978  1
  Fe  Fe84  1  0.53397353  0.69912789  0.20922369  1
  Fe  Fe85  1  0.03545089  0.69606588  0.54583003  1
  Fe  Fe86  1  0.03591918  0.68851123  0.21194182  1
  Fe  Fe87  1  0.53575715  0.19047258  0.21679369  1
  Fe  Fe88  1  0.53826300  0.19062829  0.88076307  1
  Fe  Fe89  1  0.54091076  0.19175376  0.55021063  1
  Fe  Fe90  1  0.53516095  0.69115619  0.54381337  1
  Fe  Fe91  1  0.52749541  0.69501679  0.87855891  1
  Fe  Fe92  1  0.81505269  0.46939782  0.62692253  1
  Fe  Fe93  1  0.31004224  0.96388712  0.61690355  1
  Fe  Fe94  1  0.80598990  0.96736731  0.95218992  1
  Fe  Fe95  1  0.81638560  0.96109026  0.29213703  1
  Fe  Fe96  1  0.30638826  0.96031728  0.94780577  1
  Fe  Fe97  1  0.30784401  0.96243288  0.28146231  1
  Fe  Fe98  1  0.30944884  0.46465920  0.28861832  1
  Fe  Fe99  1  0.80724857  0.47084543  0.95420571  1
  Fe  Fe100  1  0.80969201  0.96249731  0.61943776  1
  Fe  Fe101  1  0.80197387  0.46719767  0.28691388  1
  S  S102  1  0.36415765  0.13524137  0.08161007  1
  S  S103  1  0.36206010  0.13867642  0.41653414  1
  S  S104  1  0.36560144  0.13686443  0.74915318  1
  S  S105  1  0.36328251  0.64420611  0.08344567  1
  S  S106  1  0.36058668  0.64055293  0.41591111  1
  S  S107  1  0.35751698  0.64733997  0.74576359  1
  S  S108  1  0.85821607  0.13826038  0.08916330  1
  S  S109  1  0.85873204  0.13890632  0.41784444  1
  S  S110  1  0.85806222  0.13688837  0.75130459  1
  S  S111  1  0.85681489  0.64318714  0.08663053  1
  S  S112  1  0.85697925  0.64011933  0.41583054  1
  S  S113  1  0.85233417  0.64494899  0.74676436  1
  S  S114  1  0.13962118  0.35835464  0.25067860  1
  S  S115  1  0.13918201  0.35608772  0.58564824  1
  S  S116  1  0.12088694  0.36066578  0.91907195  1
  S  S117  1  0.14495907  0.85815417  0.25018815  1
  S  S118  1  0.14160503  0.86347659  0.58086778  1
  S  S119  1  0.13703121  0.86197124  0.91800984  1
  S  S120  1  0.64078416  0.35679482  0.25123032  1
  S  S121  1  0.64425262  0.36066999  0.58434971  1
  S  S122  1  0.64484609  0.35765418  0.91538710  1
  S  S123  1  0.64656739  0.85941341  0.25253710  1
  S  S124  1  0.63815952  0.86193258  0.58331469  1
  S  S125  1  0.63829112  0.86017558  0.91484346  1
  S  S126  1  0.06067573  0.16219770  0.04564515  1
  S  S127  1  0.07029933  0.17398820  0.37858038  1
  S  S128  1  0.07261672  0.16230462  0.70331642  1
  S  S129  1  0.05942996  0.67283032  0.04810270  1
  S  S130  1  0.06624957  0.67175526  0.37379344  1
  S  S131  1  0.06332770  0.67691474  0.70269577  1
  S  S132  1  0.56798596  0.16332638  0.04194417  1
  S  S133  1  0.56871350  0.16401770  0.37683488  1
  S  S134  1  0.57454835  0.17070002  0.71210082  1
  S  S135  1  0.57255948  0.67136359  0.04164447  1
  S  S136  1  0.56826642  0.67596724  0.37549136  1
  S  S137  1  0.56504763  0.67190609  0.70762875  1
  S  S138  1  0.33175583  0.42070477  0.12593628  1
  S  S139  1  0.33298192  0.43466272  0.45708765  1
  S  S140  1  0.34561092  0.43221154  0.79286026  1
  S  S141  1  0.32655156  0.93327102  0.11899932  1
  S  S142  1  0.33531144  0.93691976  0.45713435  1
  S  S143  1  0.32898150  0.93334919  0.78751593  1
  S  S144  1  0.82781439  0.43159544  0.12689728  1
  S  S145  1  0.82116511  0.43158191  0.45452785  1
  S  S146  1  0.83091789  0.44126752  0.79149644  1
  S  S147  1  0.82707168  0.93154730  0.12506233  1
  S  S148  1  0.83114068  0.93448141  0.46113469  1
  S  S149  1  0.83019133  0.93104693  0.79386700  1
  S  S150  1  0.43005931  0.32151794  0.28947665  1
  S  S151  1  0.44327987  0.33063500  0.62137226  1
  S  S152  1  0.44185000  0.32717207  0.95867445  1
  S  S153  1  0.43602386  0.83033841  0.29303231  1
  S  S154  1  0.43199676  0.82974475  0.62109676  1
  S  S155  1  0.43500293  0.83575292  0.95328541  1
  S  S156  1  0.93307773  0.33132682  0.29416621  1
  S  S157  1  0.93351530  0.32878665  0.62423576  1
  S  S158  1  0.91841536  0.33184942  0.96613460  1
  S  S159  1  0.93591182  0.82847125  0.29053870  1
  S  S160  1  0.93466159  0.83517193  0.62340354  1
  S  S161  1  0.93027321  0.84036814  0.96263957  1
  S  S162  1  0.17208898  0.06647679  0.21080997  1
  S  S163  1  0.17766903  0.07121266  0.54356010  1
  S  S164  1  0.17080996  0.06542858  0.88039404  1
  S  S165  1  0.16839856  0.56073693  0.21274831  1
  S  S166  1  0.16184982  0.56795694  0.53949243  1
  S  S167  1  0.15768610  0.57059198  0.86753412  1
  S  S168  1  0.66863915  0.06469855  0.21019538  1
  S  S169  1  0.67045981  0.06608540  0.54415515  1
  S  S170  1  0.67054773  0.06520080  0.87866003  1
  S  S171  1  0.66866065  0.56980490  0.20814584  1
  S  S172  1  0.66733582  0.56798455  0.54004662  1
  S  S173  1  0.66827900  0.57061008  0.87472356  1
  O  O174  1  0.37472397  0.21264772  0.07220043  1
  O  O175  1  0.37248444  0.21778767  0.40943398  1
  O  O176  1  0.37535311  0.21385413  0.73705539  1
  O  O177  1  0.36728887  0.72195553  0.07568807  1
  O  O178  1  0.36931071  0.72063311  0.40925069  1
  O  O179  1  0.37041806  0.72854427  0.73992542  1
  O  O180  1  0.86617256  0.22118812  0.09073964  1
  O  O181  1  0.86631246  0.21824477  0.40923297  1
  O  O182  1  0.86072198  0.21155775  0.73715309  1
  O  O183  1  0.86405578  0.72402381  0.08244134  1
  O  O184  1  0.86954626  0.71829680  0.40871162  1
  O  O185  1  0.86304056  0.72356860  0.73784419  1
  O  O186  1  0.28619472  0.12882007  0.09262025  1
  O  O187  1  0.28265926  0.13097689  0.42366826  1
  O  O188  1  0.28796965  0.12876091  0.75921814  1
  O  O189  1  0.29312149  0.62867782  0.10285379  1
  O  O190  1  0.28246384  0.63192727  0.42519761  1
  O  O191  1  0.27913961  0.64005209  0.75040878  1
  O  O192  1  0.78044643  0.12735789  0.09985033  1
  O  O193  1  0.78001953  0.13054587  0.42757376  1
  O  O194  1  0.77922449  0.12515273  0.76238880  1
  O  O195  1  0.77739644  0.63030337  0.09342693  1
  O  O196  1  0.77768027  0.63140135  0.42278925  1
  O  O197  1  0.76868076  0.63645767  0.74666493  1
  O  O198  1  0.13168680  0.27936213  0.25945269  1
  O  O199  1  0.13031687  0.27008688  0.58150204  1
  O  O200  1  0.11553357  0.28713276  0.93755827  1
  O  O201  1  0.13602351  0.77816275  0.25622323  1
  O  O202  1  0.13295250  0.78358981  0.58537209  1
  O  O203  1  0.13027323  0.78909146  0.93367650  1
  O  O204  1  0.63184420  0.27846671  0.26181783  1
  O  O205  1  0.63731837  0.28210085  0.59453915  1
  O  O206  1  0.63712800  0.27929033  0.92546483  1
  O  O207  1  0.63365792  0.77947148  0.25697552  1
  O  O208  1  0.62783533  0.78367317  0.59057291  1
  O  O209  1  0.62807637  0.78040486  0.92023340  1
  O  O210  1  0.21855908  0.36665944  0.24296747  1
  O  O211  1  0.21140537  0.36659158  0.56869995  1
  O  O212  1  0.20131190  0.37315341  0.91547124  1
  O  O213  1  0.22360140  0.86639513  0.24020597  1
  O  O214  1  0.21733567  0.87495782  0.56808466  1
  O  O215  1  0.21405763  0.87150811  0.90474515  1
  O  O216  1  0.72201891  0.36497160  0.24667583  1
  O  O217  1  0.72406003  0.37093413  0.57849028  1
  O  O218  1  0.72363653  0.36894505  0.90762322  1
  O  O219  1  0.72840617  0.86820380  0.25085273  1
  O  O220  1  0.71681366  0.87145688  0.57471394  1
  O  O221  1  0.71796373  0.86975175  0.90852655  1
  O  O222  1  0.42389858  0.12649292  0.14985084  1
  O  O223  1  0.42093998  0.12848594  0.48394565  1
  O  O224  1  0.42515921  0.13062880  0.81785993  1
  O  O225  1  0.43146825  0.63672406  0.15178783  1
  O  O226  1  0.42036092  0.63239626  0.48359344  1
  O  O227  1  0.41572496  0.64019439  0.81707777  1
  O  O228  1  0.91944452  0.12316748  0.15211492  1
  O  O229  1  0.91871423  0.13026619  0.48406668  1
  O  O230  1  0.91829379  0.13012734  0.81717942  1
  O  O231  1  0.91530192  0.63294867  0.15342613  1
  O  O232  1  0.91563390  0.62909227  0.48255276  1
  O  O233  1  0.90499934  0.63793919  0.81541275  1
  O  O234  1  0.37239457  0.07432914  0.01481102  1
  O  O235  1  0.37054158  0.07970785  0.34818943  1
  O  O236  1  0.37319453  0.07622273  0.68146599  1
  O  O237  1  0.37253076  0.58381495  0.01735092  1
  O  O238  1  0.36704244  0.58319671  0.34653003  1
  O  O239  1  0.37220237  0.59099891  0.68108024  1
  O  O240  1  0.86140144  0.08611320  0.01626783  1
  O  O241  1  0.86266535  0.08060734  0.34769446  1
  O  O242  1  0.86432516  0.07418814  0.68261297  1
  O  O243  1  0.86319900  0.58728657  0.01641219  1
  O  O244  1  0.86408015  0.57967045  0.34729307  1
  O  O245  1  0.86063410  0.58555021  0.67802082  1
  O  O246  1  0.07981322  0.36479902  0.18179260  1
  O  O247  1  0.07315152  0.36879223  0.52222599  1
  O  O248  1  0.06468180  0.36069236  0.84682849  1
  O  O249  1  0.08532545  0.86980606  0.18466844  1
  O  O250  1  0.07829858  0.87493495  0.51629866  1
  O  O251  1  0.07602189  0.86815323  0.84933960  1
  O  O252  1  0.58532459  0.35922047  0.17975683  1
  O  O253  1  0.58581831  0.36388066  0.51385654  1
  O  O254  1  0.58608678  0.36294988  0.84679386  1
  O  O255  1  0.59216779  0.87186632  0.18597848  1
  O  O256  1  0.57867973  0.87255712  0.51661399  1
  O  O257  1  0.58032918  0.87168663  0.84778626  1
  O  O258  1  0.12919153  0.41772955  0.31716413  1
  O  O259  1  0.13677829  0.40381060  0.65863623  1
  O  O260  1  0.10570068  0.42491936  0.98094499  1
  O  O261  1  0.14203305  0.91572307  0.32128332  1
  O  O262  1  0.13685465  0.92036931  0.65170563  1
  O  O263  1  0.12811493  0.92784539  0.98276128  1
  O  O264  1  0.63062564  0.41737428  0.31620594  1
  O  O265  1  0.63293980  0.42056453  0.64991523  1
  O  O266  1  0.63688525  0.41711397  0.98341412  1
  O  O267  1  0.63637879  0.91696003  0.32156414  1
  O  O268  1  0.63060547  0.92215978  0.65182551  1
  O  O269  1  0.63071719  0.91797373  0.98407989  1
  O  O270  1  0.02724770  0.19702510  0.11038216  1
  O  O271  1  0.02802022  0.19974129  0.43496757  1
  O  O272  1  0.04067947  0.18057218  0.76439728  1
  O  O273  1  0.02425513  0.71031802  0.11227722  1
  O  O274  1  0.02951211  0.70239543  0.43457403  1
  O  O275  1  0.02707216  0.70682199  0.76265794  1
  O  O276  1  0.53571290  0.19562794  0.10515954  1
  O  O277  1  0.53444188  0.19569433  0.43898321  1
  O  O278  1  0.53737683  0.20049460  0.77211334  1
  O  O279  1  0.54503620  0.69932685  0.10678649  1
  O  O280  1  0.52781675  0.70308418  0.43448809  1
  O  O281  1  0.52919548  0.70143843  0.76894426  1
  O  O282  1  0.31409661  0.45433159  0.06593231  1
  O  O283  1  0.29865424  0.46560973  0.39161038  1
  O  O284  1  0.32454960  0.45291650  0.72425892  1
  O  O285  1  0.29066517  0.97023936  0.05878745  1
  O  O286  1  0.30678877  0.97222086  0.39534036  1
  O  O287  1  0.29865634  0.96816202  0.72521287  1
  O  O288  1  0.79946435  0.46812000  0.06635070  1
  O  O289  1  0.79187912  0.46994837  0.39464577  1
  O  O290  1  0.79340799  0.47801462  0.73060471  1
  O  O291  1  0.79805390  0.96899113  0.06424660  1
  O  O292  1  0.80011767  0.96945932  0.39855465  1
  O  O293  1  0.79878975  0.96306424  0.72970108  1
  O  O294  1  0.46961373  0.29225961  0.23016753  1
  O  O295  1  0.47768909  0.28990640  0.55908596  1
  O  O296  1  0.47780419  0.29235191  0.89701156  1
  O  O297  1  0.47578014  0.80417000  0.23566457  1
  O  O298  1  0.46875014  0.79762481  0.56018760  1
  O  O299  1  0.46980511  0.80385006  0.89015057  1
  O  O300  1  0.97057711  0.30214707  0.23424376  1
  O  O301  1  0.96175334  0.29133579  0.55704345  1
  O  O302  1  0.92820957  0.30090898  0.89342720  1
  O  O303  1  0.97639232  0.79919719  0.23255913  1
  O  O304  1  0.97239512  0.80464998  0.56278346  1
  O  O305  1  0.96054574  0.81534493  0.89959416  1
  O  O306  1  0.20342685  0.02995623  0.27183025  1
  O  O307  1  0.20730099  0.03421497  0.60411826  1
  O  O308  1  0.21177742  0.03084698  0.94144119  1
  O  O309  1  0.20098266  0.53049607  0.27895273  1
  O  O310  1  0.17881181  0.53074978  0.59608314  1
  O  O311  1  0.17213574  0.56640588  0.94416685  1
  O  O312  1  0.69813433  0.03039627  0.27208223  1
  O  O313  1  0.70046648  0.03090670  0.60532726  1
  O  O314  1  0.70126272  0.02954319  0.94080226  1
  O  O315  1  0.69498685  0.52929039  0.26738091  1
  O  O316  1  0.69811325  0.52919663  0.59874081  1
  O  O317  1  0.69815524  0.53220815  0.93486369  1
  O  O318  1  0.07997063  0.08103050  0.04665394  1
  O  O319  1  0.09304941  0.09503052  0.37475123  1
  O  O320  1  0.09099446  0.07660920  0.68741202  1
  O  O321  1  0.07202802  0.59382288  0.04945303  1
  O  O322  1  0.08469432  0.59039902  0.36868056  1
  O  O323  1  0.08213483  0.59796721  0.69388675  1
  O  O324  1  0.58300754  0.08025234  0.03689711  1
  O  O325  1  0.58393779  0.08142567  0.37216532  1
  O  O326  1  0.59306396  0.08941900  0.70775000  1
  O  O327  1  0.58845601  0.58736552  0.02939185  1
  O  O328  1  0.58480741  0.59459578  0.36891909  1
  O  O329  1  0.58217368  0.58956263  0.70131269  1
  O  O330  1  0.41603218  0.40263915  0.14271046  1
  O  O331  1  0.41303832  0.41223207  0.45707501  1
  O  O332  1  0.43316890  0.41442347  0.80818018  1
  O  O333  1  0.40761567  0.92363250  0.12052397  1
  O  O334  1  0.41870163  0.92100888  0.46442020  1
  O  O335  1  0.41004998  0.91481182  0.79154840  1
  O  O336  1  0.90913493  0.41119568  0.13552979  1
  O  O337  1  0.90023176  0.40936471  0.45430520  1
  O  O338  1  0.91048512  0.43019333  0.79423774  1
  O  O339  1  0.90806276  0.91300206  0.12861029  1
  O  O340  1  0.91159560  0.91468429  0.46325487  1
  O  O341  1  0.91022857  0.91006064  0.79752494  1
  O  O342  1  0.40943693  0.40050886  0.29459073  1
  O  O343  1  0.43728488  0.41117670  0.62098209  1
  O  O344  1  0.43480201  0.40966668  0.96683034  1
  O  O345  1  0.41706662  0.91289390  0.29606881  1
  O  O346  1  0.41540637  0.91108631  0.62176335  1
  O  O347  1  0.41598255  0.91814965  0.95317976  1
  O  O348  1  0.91333353  0.41271213  0.29844095  1
  O  O349  1  0.90913266  0.40670781  0.61932014  1
  O  O350  1  0.90560154  0.41741493  0.98335075  1
  O  O351  1  0.91595066  0.90809649  0.29211078  1
  O  O352  1  0.91844715  0.91718584  0.62673776  1
  O  O353  1  0.91404748  0.92547331  0.97491298  1
  O  O354  1  0.09175615  0.08603869  0.20868335  1
  O  O355  1  0.09617140  0.08798118  0.53724557  1
  O  O356  1  0.09000469  0.07085839  0.88101735  1
  O  O357  1  0.08725350  0.58213733  0.21184555  1
  O  O358  1  0.07927058  0.59102269  0.52174164  1
  O  O359  1  0.07286151  0.57637406  0.83460519  1
  O  O360  1  0.58594638  0.08151093  0.20275740  1
  O  O361  1  0.58696240  0.08115676  0.53771093  1
  O  O362  1  0.58955462  0.08316983  0.87604392  1
  O  O363  1  0.59035248  0.59463878  0.20537987  1
  O  O364  1  0.58678451  0.58692826  0.54038179  1
  O  O365  1  0.58839509  0.59135413  0.87208827  1
  O  O366  1  0.13271733  0.21185465  0.06112888  1
  O  O367  1  0.13920327  0.23030911  0.39650125  1
  O  O368  1  0.14210176  0.21332098  0.71463331  1
  O  O369  1  0.13437159  0.72290574  0.06895752  1
  O  O370  1  0.13532496  0.72470888  0.38774480  1
  O  O371  1  0.13351115  0.73268956  0.71855009  1
  O  O372  1  0.64061990  0.21229269  0.05544991  1
  O  O373  1  0.64069119  0.21395908  0.39089398  1
  O  O374  1  0.64439417  0.22333464  0.72614320  1
  O  O375  1  0.64480747  0.72112582  0.05426949  1
  O  O376  1  0.64033413  0.72889526  0.39835123  1
  O  O377  1  0.63500296  0.72463336  0.72379318  1
  O  O378  1  0.27896057  0.34840464  0.10761987  1
  O  O379  1  0.28133886  0.36395182  0.44432008  1
  O  O380  1  0.29824039  0.36106613  0.78576209  1
  O  O381  1  0.27792944  0.86130497  0.10530653  1
  O  O382  1  0.28467384  0.86574057  0.44147135  1
  O  O383  1  0.27624173  0.86408033  0.77414597  1
  O  O384  1  0.77329437  0.36145916  0.11073241  1
  O  O385  1  0.76693627  0.36063307  0.43664811  1
  O  O386  1  0.77939684  0.36768079  0.77301319  1
  O  O387  1  0.77393257  0.86099362  0.10783130  1
  O  O388  1  0.77927402  0.86603924  0.45010244  1
  O  O389  1  0.77582608  0.86500950  0.78448648  1
  O  O390  1  0.35989409  0.26578242  0.27067826  1
  O  O391  1  0.36834193  0.28453551  0.60555135  1
  O  O392  1  0.36811645  0.27937373  0.94139060  1
  O  O393  1  0.36547883  0.77886292  0.27816086  1
  O  O394  1  0.36139161  0.78063798  0.60861235  1
  O  O395  1  0.36340642  0.78619174  0.93807838  1
  O  O396  1  0.86216365  0.27737892  0.27668473  1
  O  O397  1  0.86248918  0.27635873  0.61158544  1
  O  O398  1  0.85135564  0.28537889  0.96968438  1
  O  O399  1  0.86625741  0.77433396  0.27305934  1
  O  O400  1  0.86228290  0.78438802  0.60469318  1
  O  O401  1  0.85844225  0.79037294  0.94979373  1
  O  O402  1  0.22478884  0.13701312  0.22618732  1
  O  O403  1  0.23044300  0.14257388  0.56091645  1
  O  O404  1  0.21578716  0.13977391  0.89427288  1
  O  O405  1  0.21984228  0.63199081  0.22668141  1
  O  O406  1  0.21629157  0.63769399  0.55537058  1
  O  O407  1  0.20804136  0.64216880  0.87562983  1
  O  O408  1  0.71957534  0.13640137  0.22492356  1
  O  O409  1  0.71943035  0.13844359  0.55856098  1
  O  O410  1  0.72207543  0.13611184  0.89429243  1
  O  O411  1  0.72674629  0.63571032  0.22469479  1
  O  O412  1  0.71871418  0.63808758  0.55337360  1
  O  O413  1  0.72304879  0.64016420  0.89105403  1
  O  O414  1  0.49901156  0.32228765  0.03065099  1
  O  O415  1  0.48923385  0.32158636  0.36169315  1
  O  O416  1  0.49920799  0.32839408  0.69388989  1
  O  O417  1  0.49600000  0.84486593  0.02451765  1
  O  O418  1  0.49410634  0.83889278  0.36869403  1
  O  O419  1  0.49326616  0.83563857  0.69403550  1
  O  O420  1  0.98940883  0.33092851  0.03137654  1
  O  O421  1  0.99095163  0.33564460  0.36793799  1
  O  O422  1  0.99660933  0.33756115  0.69263441  1
  O  O423  1  0.99134634  0.84261232  0.03498032  1
  O  O424  1  0.99358795  0.83310266  0.36489243  1
  O  O425  1  0.99113025  0.83814758  0.69683294  1
  O  O426  1  0.16721325  0.00660981  0.13818289  1
  O  O427  1  0.17726995  0.01194181  0.47136692  1
  O  O428  1  0.16969867  0.00906900  0.80581202  1
  O  O429  1  0.16177303  0.49780597  0.14386027  1
  O  O430  1  0.16195284  0.50883245  0.46464379  1
  O  O431  1  0.17730578  0.50093927  0.81613804  1
  O  O432  1  0.66658271  0.00452308  0.13795601  1
  O  O433  1  0.66801499  0.00627253  0.47164087  1
  O  O434  1  0.66789857  0.00513797  0.80690143  1
  O  O435  1  0.66279348  0.50893210  0.13466601  1
  O  O436  1  0.66013379  0.50920798  0.46518538  1
  O  O437  1  0.66392078  0.51163836  0.80140790  1
  O  O438  1  0.01166027  0.17041203  0.30445494  1
  O  O439  1  0.00953222  0.15915074  0.63038427  1
  O  O440  1  -0.00042168  0.15530112  0.97574121  1
  O  O441  1  0.00493982  0.66709483  0.30096521  1
  O  O442  1  0.00339566  0.67911944  0.63006499  1
  O  O443  1  0.00371397  0.67566829  0.97837888  1
  O  O444  1  0.50907794  0.16211418  0.30466643  1
  O  O445  1  0.51399329  0.16480552  0.63825164  1
  O  O446  1  0.50828147  0.16004423  0.96954016  1
  O  O447  1  0.51269316  0.67846382  0.30302258  1
  O  O448  1  0.50525710  0.66818928  0.63450241  1
  O  O449  1  0.51007213  0.67241544  0.97210722  1
  O  O450  1  0.32811299  0.47997701  0.19748351  1
  O  O451  1  0.34132713  0.49756853  0.52668846  1
  O  O452  1  0.34986628  0.49751513  0.86063367  1
  O  O453  1  0.32931042  0.99163036  0.19387250  1
  O  O454  1  0.33813210  0.99682505  0.52974874  1
  O  O455  1  0.33357220  0.99519358  0.85953961  1
  O  O456  1  0.82969611  0.49163421  0.19922237  1
  O  O457  1  0.82559727  0.48956750  0.52736040  1
  O  O458  1  0.82752969  0.49690462  0.86458249  1
  O  O459  1  0.82938312  0.99019585  0.19764582  1
  O  O460  1  0.83691370  0.99771803  0.53275914  1
  O  O461  1  0.83688404  0.99589918  0.86555700  1
