# generated using pymatgen
data_Na31Fe20(SO4)36
_symmetry_space_group_name_H-M   'P 1'
_cell_length_a   18.10287673
_cell_length_b   18.10463965
_cell_length_c   19.73463547
_cell_angle_alpha   107.60092619
_cell_angle_beta   107.58584636
_cell_angle_gamma   90.76477378
_symmetry_Int_Tables_number   1
_chemical_formula_structural   Na31Fe20(SO4)36
_chemical_formula_sum   'Na62 Fe40 S72 O288'
_cell_volume   5837.87813433
_cell_formula_units_Z   2
loop_
 _symmetry_equiv_pos_site_id
 _symmetry_equiv_pos_as_xyz
  1  'x, y, z'
loop_
 _atom_site_type_symbol
 _atom_site_label
 _atom_site_symmetry_multiplicity
 _atom_site_fract_x
 _atom_site_fract_y
 _atom_site_fract_z
 _atom_site_occupancy
  Na  Na0  1  0.13513235  0.36753435  0.08663568  1
  Na  Na1  1  0.14261319  0.36067534  0.42529018  1
  Na  Na2  1  0.12384473  0.35435330  0.72744463  1
  Na  Na3  1  0.15132522  0.87346204  0.09921233  1
  Na  Na4  1  0.13293135  0.86739293  0.41203882  1
  Na  Na5  1  0.14064371  0.86947441  0.76217409  1
  Na  Na6  1  0.64578014  0.36701110  0.09389925  1
  Na  Na7  1  0.63435026  0.35900517  0.40926013  1
  Na  Na8  1  0.63451846  0.36498092  0.74921070  1
  Na  Na9  1  0.63413816  0.87282465  0.08506225  1
  Na  Na10  1  0.62696765  0.86865017  0.41051066  1
  Na  Na11  1  0.62929581  0.85554268  0.73762779  1
  Na  Na12  1  0.35121227  0.12367439  0.23427127  1
  Na  Na13  1  0.26991172  0.07369558  0.48147879  1
  Na  Na14  1  0.36884898  0.12974790  0.91930413  1
  Na  Na15  1  0.36572207  0.63083321  0.24528031  1
  Na  Na16  1  0.37275393  0.63938098  0.58383474  1
  Na  Na17  1  0.36402503  0.63570842  0.91964176  1
  Na  Na18  1  0.84212279  0.14238247  0.24217459  1
  Na  Na19  1  0.87271032  0.12684687  0.57368946  1
  Na  Na20  1  0.86959939  0.13426930  0.91825047  1
  Na  Na21  1  0.86918006  0.63910039  0.25792015  1
  Na  Na22  1  0.87437241  0.63055335  0.58519348  1
  Na  Na23  1  0.87169428  0.64081118  0.92629242  1
  Na  Na24  1  0.49050716  0.50663163  0.08350489  1
  Na  Na25  1  0.49120476  0.53555646  0.42785136  1
  Na  Na26  1  0.41624589  -0.00123640  0.37257391  1
  Na  Na27  1  0.96400882  0.02205557  0.37785588  1
  Na  Na28  1  0.99799619  0.49140586  0.44905142  1
  Na  Na29  1  0.99723971  0.00465589  0.75932864  1
  Na  Na30  1  0.48967317  0.51600838  0.75197137  1
  Na  Na31  1  0.99253178  0.52081307  0.07956633  1
  Na  Na32  1  0.47960238  0.00768752  0.77375270  1
  Na  Na33  1  0.00649727  0.49070065  0.25388392  1
  Na  Na34  1  0.50497597  0.98866566  0.58576734  1
  Na  Na35  1  0.50810339  0.49881407  0.58635032  1
  Na  Na36  1  0.01245762  0.49887583  0.89042194  1
  Na  Na37  1  0.51155515  0.99220597  0.23833615  1
  Na  Na38  1  0.51004874  0.48924105  0.91417586  1
  Na  Na39  1  0.00465867  0.93609395  0.53995588  1
  Na  Na40  1  0.51288937  0.48473154  0.25302033  1
  Na  Na41  1  0.03055591  0.98829642  1.06588073  1
  Na  Na42  1  0.75690826  0.25498583  0.65791746  1
  Na  Na43  1  0.73983760  0.24230134  0.01050750  1
  Na  Na44  1  0.75363555  0.74950722  0.65821478  1
  Na  Na45  1  0.26245180  0.76390460  0.32378638  1
  Na  Na46  1  0.77196427  0.77026611  0.32920879  1
  Na  Na47  1  0.22672284  0.22161783  0.34275047  1
  Na  Na48  1  0.76730098  0.76590070  0.00163466  1
  Na  Na49  1  0.23682003  0.23281994  0.00772109  1
  Na  Na50  1  0.25117882  0.24640156  0.64328268  1
  Na  Na51  1  0.25394828  0.75073542  0.67148458  1
  Na  Na52  1  0.75713598  0.25416834  0.48512343  1
  Na  Na53  1  0.26368402  0.76118520  0.15242033  1
  Na  Na54  1  0.81212387  0.82156694  0.18750472  1
  Na  Na55  1  0.23970482  0.74651878  0.85356389  1
  Na  Na56  1  0.75821696  0.75789108  0.82998140  1
  Na  Na57  1  0.24386596  0.24323899  0.83264373  1
  Na  Na58  1  0.25321819  0.75406626  0.49686448  1
  Na  Na59  1  0.23902807  0.23810563  0.17405521  1
  Na  Na60  1  0.74999049  0.24890164  0.83739697  1
  Na  Na61  1  0.76034366  0.75915604  0.48982042  1
  Fe  Fe62  1  0.47376492  0.79423015  0.45615823  1
  Fe  Fe63  1  0.46912494  0.31405669  0.45152326  1
  Fe  Fe64  1  0.46760277  0.80083533  0.11807627  1
  Fe  Fe65  1  0.96742766  0.81279619  0.79291447  1
  Fe  Fe66  1  0.46771589  0.30822445  0.11534201  1
  Fe  Fe67  1  0.96670271  0.30336800  0.78368991  1
  Fe  Fe68  1  0.46818468  0.80884958  0.79207790  1
  Fe  Fe69  1  0.46302349  0.30704589  0.77796570  1
  Fe  Fe70  1  0.96399298  0.30992149  0.11873699  1
  Fe  Fe71  1  0.96311544  0.30122669  0.45856759  1
  Fe  Fe72  1  0.19358131  0.53456863  0.37994194  1
  Fe  Fe73  1  0.18885288  0.03445505  0.71570801  1
  Fe  Fe74  1  0.69512447  0.53460906  0.05260001  1
  Fe  Fe75  1  0.69477333  0.53584596  0.71801334  1
  Fe  Fe76  1  0.69614113  0.52953977  0.38711994  1
  Fe  Fe77  1  0.69157370  0.03346872  0.37135784  1
  Fe  Fe78  1  0.19262420  0.53478615  0.04503613  1
  Fe  Fe79  1  0.68713654  0.03998579  0.04621226  1
  Fe  Fe80  1  0.18735461  0.54081613  0.71125961  1
  Fe  Fe81  1  0.69091457  0.03711515  0.71018678  1
  Fe  Fe82  1  0.53713405  0.18977905  0.20920611  1
  Fe  Fe83  1  0.03161822  0.70069752  0.21343646  1
  Fe  Fe84  1  0.03604427  0.19211981  0.88167316  1
  Fe  Fe85  1  0.53823721  0.69591297  0.88779406  1
  Fe  Fe86  1  0.54398267  0.68638675  0.21764803  1
  Fe  Fe87  1  0.02789360  0.19195785  0.21098142  1
  Fe  Fe88  1  0.53428160  0.19746184  0.88011720  1
  Fe  Fe89  1  0.53033745  0.18891564  0.54056523  1
  Fe  Fe90  1  0.03131181  0.70063595  0.54185655  1
  Fe  Fe91  1  0.03773684  0.69585559  0.88345581  1
  Fe  Fe92  1  0.80990503  0.46609880  0.62185739  1
  Fe  Fe93  1  0.80819321  0.46814064  0.95437329  1
  Fe  Fe94  1  0.80570884  0.96614403  0.61771434  1
  Fe  Fe95  1  0.30822134  0.96471560  0.62401017  1
  Fe  Fe96  1  0.81372957  0.96786653  0.95641448  1
  Fe  Fe97  1  0.30413019  0.46311365  0.94543327  1
  Fe  Fe98  1  0.30511235  0.46680325  0.61412974  1
  Fe  Fe99  1  0.30555823  0.46320280  0.28246777  1
  Fe  Fe100  1  0.81036414  0.45975649  0.28764128  1
  Fe  Fe101  1  0.30784665  0.96840090  0.96558873  1
  S  S102  1  0.36120792  0.14954794  0.08166106  1
  S  S103  1  0.35979814  0.15608720  0.41345331  1
  S  S104  1  0.35971037  0.14119024  0.74944032  1
  S  S105  1  0.36491124  0.63149465  0.08211791  1
  S  S106  1  0.35713526  0.63803755  0.41205863  1
  S  S107  1  0.36218909  0.63865816  0.75204388  1
  S  S108  1  0.85581690  0.14811794  0.07911809  1
  S  S109  1  0.85301736  0.14334432  0.41216231  1
  S  S110  1  0.85834171  0.14069375  0.74999790  1
  S  S111  1  0.85772205  0.64045312  0.08870053  1
  S  S112  1  0.85747653  0.63525871  0.42032174  1
  S  S113  1  0.86157373  0.64105016  0.75370992  1
  S  S114  1  0.13776427  0.35958800  0.25059498  1
  S  S115  1  0.13701182  0.36868384  0.58129424  1
  S  S116  1  0.14124304  0.35972323  0.91437539  1
  S  S117  1  0.14506191  0.84426563  0.24613927  1
  S  S118  1  0.14997111  0.85378883  0.59088243  1
  S  S119  1  0.13955043  0.86117386  0.92152284  1
  S  S120  1  0.63870263  0.36133725  0.24856579  1
  S  S121  1  0.63862392  0.35908604  0.58624903  1
  S  S122  1  0.64060685  0.36299838  0.91600526  1
  S  S123  1  0.64237171  0.85409485  0.24929827  1
  S  S124  1  0.64219250  0.85871527  0.58534186  1
  S  S125  1  0.64334329  0.85969524  0.91604407  1
  S  S126  1  0.06312624  0.17524420  0.04335133  1
  S  S127  1  0.05771150  0.17488625  0.37385013  1
  S  S128  1  0.06242231  0.16678352  0.71137046  1
  S  S129  1  0.06749245  0.65782923  0.04142362  1
  S  S130  1  0.06952708  0.66567396  0.37404587  1
  S  S131  1  0.06958540  0.67784128  0.71104846  1
  S  S132  1  0.56834702  0.17785973  0.03926879  1
  S  S133  1  0.56709394  0.17223035  0.37316264  1
  S  S134  1  0.56777613  0.17492495  0.70884337  1
  S  S135  1  0.56878157  0.66128415  0.04116626  1
  S  S136  1  0.56836004  0.65936402  0.37514879  1
  S  S137  1  0.56645225  0.66360109  0.71363705  1
  S  S138  1  0.33030660  0.43030566  0.11988667  1
  S  S139  1  0.33330342  0.43720626  0.45599779  1
  S  S140  1  0.32984125  0.43203212  0.78572176  1
  S  S141  1  0.34463610  0.93319637  0.13105788  1
  S  S142  1  0.34166458  0.92400006  0.46418321  1
  S  S143  1  0.33119551  0.93287748  0.79797953  1
  S  S144  1  0.83394762  0.43454986  0.12607044  1
  S  S145  1  0.82900779  0.42811056  0.46086420  1
  S  S146  1  0.82908844  0.43141178  0.79174215  1
  S  S147  1  0.82782688  0.94828926  0.11450810  1
  S  S148  1  0.81846286  0.93265840  0.45393584  1
  S  S149  1  0.82646383  0.93409614  0.78857686  1
  S  S150  1  0.43367284  0.34042779  0.29022873  1
  S  S151  1  0.43303980  0.34198231  0.62642259  1
  S  S152  1  0.43506015  0.33566431  0.95392296  1
  S  S153  1  0.44051852  0.81528177  0.28647116  1
  S  S154  1  0.43394718  0.83121475  0.62983337  1
  S  S155  1  0.43260545  0.82445279  0.95562361  1
  S  S156  1  0.93389208  0.33436152  0.29488830  1
  S  S157  1  0.92780748  0.32809633  0.62294578  1
  S  S158  1  0.93516544  0.33632496  0.95816275  1
  S  S159  1  0.94390040  0.82667237  0.30112577  1
  S  S160  1  0.93447140  0.83197801  0.62835972  1
  S  S161  1  0.93579019  0.82985675  0.95659985  1
  S  S162  1  0.16215417  0.07452792  0.20995063  1
  S  S163  1  0.15873091  0.04871657  0.54843422  1
  S  S164  1  0.17339796  0.06845657  0.87839839  1
  S  S165  1  0.16939521  0.56548058  0.20749250  1
  S  S166  1  0.17396641  0.57548140  0.54247993  1
  S  S167  1  0.17199728  0.56734206  0.87393399  1
  S  S168  1  0.65491509  0.06556683  0.20107272  1
  S  S169  1  0.66650361  0.06858534  0.54003712  1
  S  S170  1  0.66935815  0.07060392  0.87244610  1
  S  S171  1  0.67268352  0.56393661  0.21349089  1
  S  S172  1  0.66971898  0.55792049  0.54663932  1
  S  S173  1  0.67165640  0.56746540  0.87997352  1
  O  O174  1  0.37567924  0.22358504  0.06368318  1
  O  O175  1  0.37714644  0.23580794  0.40868125  1
  O  O176  1  0.36893457  0.22000219  0.74104822  1
  O  O177  1  0.37460329  0.70991885  0.07557401  1
  O  O178  1  0.37020833  0.71712390  0.40560734  1
  O  O179  1  0.37247448  0.71724538  0.74450054  1
  O  O180  1  0.86843882  0.22558724  0.06780846  1
  O  O181  1  0.86356840  0.23091946  0.42130587  1
  O  O182  1  0.86699764  0.22070586  0.74427965  1
  O  O183  1  0.86215300  0.71834522  0.08226572  1
  O  O184  1  0.85871002  0.71331786  0.41389644  1
  O  O185  1  0.86636867  0.72096355  0.74644510  1
  O  O186  1  0.28301501  0.14837596  0.08855514  1
  O  O187  1  0.28394885  0.15547026  0.42502643  1
  O  O188  1  0.28212714  0.13265389  0.75958289  1
  O  O189  1  0.28752839  0.62279240  0.09339245  1
  O  O190  1  0.27557623  0.63144954  0.41495738  1
  O  O191  1  0.28384398  0.63007766  0.76103697  1
  O  O192  1  0.77471722  0.14124758  0.08063073  1
  O  O193  1  0.77155530  0.13320367  0.41597858  1
  O  O194  1  0.77912659  0.13180458  0.75787554  1
  O  O195  1  0.78281936  0.62371994  0.10109850  1
  O  O196  1  0.78331555  0.61973309  0.43679367  1
  O  O197  1  0.78379858  0.62979945  0.76479011  1
  O  O198  1  0.12596726  0.27903427  0.25358713  1
  O  O199  1  0.13542576  0.29506401  0.59656757  1
  O  O200  1  0.13353252  0.28063668  0.92178536  1
  O  O201  1  0.13095108  0.76065217  0.25565143  1
  O  O202  1  0.13572330  0.77400156  0.59625281  1
  O  O203  1  0.13207836  0.77603983  0.91654354  1
  O  O204  1  0.62524804  0.28364817  0.25472591  1
  O  O205  1  0.62346642  0.28183130  0.59528304  1
  O  O206  1  0.63282435  0.28216061  0.91958289  1
  O  O207  1  0.63310545  0.77821920  0.26493622  1
  O  O208  1  0.63413431  0.78772190  0.60409298  1
  O  O209  1  0.63559641  0.78136124  0.92718317  1
  O  O210  1  0.21500019  0.36781773  0.23874789  1
  O  O211  1  0.21053902  0.38346323  0.56439990  1
  O  O212  1  0.21877051  0.36826071  0.90284478  1
  O  O213  1  0.22660731  0.84470091  0.24496780  1
  O  O214  1  0.23450889  0.86138609  0.59577867  1
  O  O215  1  0.21824027  0.87354005  0.91277256  1
  O  O216  1  0.71612337  0.37147374  0.23951688  1
  O  O217  1  0.71907793  0.36353149  0.58190017  1
  O  O218  1  0.71865755  0.37358298  0.90651637  1
  O  O219  1  0.72061326  0.86350613  0.24485930  1
  O  O220  1  0.72301114  0.86912950  0.58065257  1
  O  O221  1  0.72355590  0.86862645  0.91025431  1
  O  O222  1  0.41891562  0.15050091  0.15413420  1
  O  O223  1  0.41883851  0.14000002  0.47872994  1
  O  O224  1  0.42045158  0.13524972  0.81874411  1
  O  O225  1  0.42593279  0.61786913  0.14623840  1
  O  O226  1  0.41226806  0.62693564  0.47871494  1
  O  O227  1  0.42207276  0.62815247  0.81871560  1
  O  O228  1  0.91113617  0.14626712  0.15136475  1
  O  O229  1  0.90938069  0.12555520  0.47425476  1
  O  O230  1  0.91696857  0.13142466  0.81763602  1
  O  O231  1  0.92189107  0.63013825  0.15387247  1
  O  O232  1  0.92279737  0.62680175  0.48486395  1
  O  O233  1  0.92252700  0.63289515  0.82027796  1
  O  O234  1  0.36998781  0.08436147  0.01881414  1
  O  O235  1  0.36225048  0.09850231  0.34376587  1
  O  O236  1  0.36933481  0.08065811  0.68417042  1
  O  O237  1  0.36989632  0.57273163  0.01173107  1
  O  O238  1  0.36501057  0.57928201  0.34277764  1
  O  O239  1  0.36967345  0.57945833  0.68345440  1
  O  O240  1  0.86881497  0.08734259  0.01474805  1
  O  O241  1  0.85950374  0.09715592  0.33986995  1
  O  O242  1  0.86603803  0.08275726  0.68185389  1
  O  O243  1  0.86597914  0.58166644  0.01899646  1
  O  O244  1  0.86179764  0.57635529  0.35008238  1
  O  O245  1  0.86680054  0.58404021  0.68394086  1
  O  O246  1  0.07714092  0.37445819  0.18666164  1
  O  O247  1  0.07139004  0.37135921  0.51342977  1
  O  O248  1  0.08028185  0.37053512  0.84888318  1
  O  O249  1  0.09024377  0.84406488  0.17482225  1
  O  O250  1  0.10065880  0.86056695  0.52009742  1
  O  O251  1  0.08093896  0.87255066  0.85375514  1
  O  O252  1  0.57885258  0.37443048  0.18211880  1
  O  O253  1  0.58302211  0.36876608  0.51686561  1
  O  O254  1  0.57977346  0.37469804  0.85083699  1
  O  O255  1  0.58355058  0.85405998  0.17715783  1
  O  O256  1  0.58652483  0.85759571  0.51162766  1
  O  O257  1  0.58693145  0.86125032  0.84386815  1
  O  O258  1  0.13474268  0.41656158  0.32189153  1
  O  O259  1  0.13061974  0.43209647  0.64774397  1
  O  O260  1  0.13672211  0.41760250  0.98437840  1
  O  O261  1  0.13670128  0.90141363  0.31248994  1
  O  O262  1  0.13575832  0.91153485  0.65670450  1
  O  O263  1  0.13110721  0.91135770  0.99069579  1
  O  O264  1  0.63061712  0.42069600  0.31738379  1
  O  O265  1  0.62942844  0.42093955  0.65245549  1
  O  O266  1  0.63420929  0.41882715  0.98658981  1
  O  O267  1  0.62649040  0.91679934  0.31132833  1
  O  O268  1  0.62743751  0.92647197  0.64492260  1
  O  O269  1  0.63062015  0.91964709  0.97971104  1
  O  O270  1  0.02571081  0.20943920  0.10450085  1
  O  O271  1  0.01560059  0.21161229  0.42944747  1
  O  O272  1  0.02995668  0.20160544  0.77741023  1
  O  O273  1  0.03016980  0.67290867  0.10100010  1
  O  O274  1  0.02923830  0.68589622  0.43046050  1
  O  O275  1  0.02775896  0.70471184  0.76810530  1
  O  O276  1  0.53469183  0.20737960  0.10232096  1
  O  O277  1  0.53300272  0.20270319  0.43620054  1
  O  O278  1  0.53068265  0.20509873  0.76981851  1
  O  O279  1  0.53525388  0.69238783  0.10348324  1
  O  O280  1  0.53109956  0.68898043  0.43368862  1
  O  O281  1  0.53515143  0.69646387  0.77840103  1
  O  O282  1  0.29936634  0.46371123  0.05726021  1
  O  O283  1  0.30201635  0.47288369  0.39428291  1
  O  O284  1  0.30055225  0.46700495  0.72437065  1
  O  O285  1  0.31661018  0.96776698  0.06978426  1
  O  O286  1  0.31580274  0.96406336  0.40837463  1
  O  O287  1  0.30448753  0.97383272  0.74024984  1
  O  O288  1  0.80184543  0.46808226  0.06340264  1
  O  O289  1  0.80068273  0.46057782  0.39685337  1
  O  O290  1  0.79870501  0.46765021  0.73106993  1
  O  O291  1  0.78604444  0.98361976  0.05163290  1
  O  O292  1  0.78755154  0.97389182  0.39897218  1
  O  O293  1  0.79615675  0.97175282  0.72840435  1
  O  O294  1  0.46833750  0.31343667  0.22843079  1
  O  O295  1  0.46473168  0.30874576  0.56363565  1
  O  O296  1  0.47168057  0.30488128  0.89323505  1
  O  O297  1  0.47554654  0.77872512  0.22463272  1
  O  O298  1  0.46849131  0.81384042  0.56925516  1
  O  O299  1  0.47275280  0.79726979  0.89523796  1
  O  O300  1  0.97256517  0.30420230  0.23511232  1
  O  O301  1  0.96661057  0.30977797  0.56454573  1
  O  O302  1  0.97105395  0.30516000  0.89732176  1
  O  O303  1  0.97595942  0.79031512  0.23586157  1
  O  O304  1  0.97266616  0.80622782  0.56997194  1
  O  O305  1  0.96721506  0.79394066  0.89120201  1
  O  O306  1  0.17597182  0.06194024  0.28135443  1
  O  O307  1  0.20619007  0.02255042  0.61640141  1
  O  O308  1  0.20432248  0.03426038  0.93786655  1
  O  O309  1  0.19702182  0.52506976  0.26582149  1
  O  O310  1  0.20582061  0.54437947  0.60680021  1
  O  O311  1  0.20129201  0.52926575  0.93469423  1
  O  O312  1  0.67745125  0.02767191  0.25970512  1
  O  O313  1  0.70069053  0.03235498  0.60133956  1
  O  O314  1  0.69676066  0.03360460  0.93198750  1
  O  O315  1  0.70107775  0.52854984  0.27467495  1
  O  O316  1  0.70866618  0.52484620  0.60993766  1
  O  O317  1  0.70159822  0.53287084  0.94227102  1
  O  O318  1  0.07737142  0.09581772  0.03746816  1
  O  O319  1  0.06951436  0.09684670  0.37653311  1
  O  O320  1  0.08310594  0.08762570  0.71475382  1
  O  O321  1  0.07993770  0.57116319  0.02155988  1
  O  O322  1  0.08808062  0.58202644  0.36201716  1
  O  O323  1  0.08907766  0.59781053  0.70733820  1
  O  O324  1  0.58957789  0.09865063  0.03409544  1
  O  O325  1  0.58395172  0.09031385  0.36671218  1
  O  O326  1  0.58260891  0.09219557  0.70226878  1
  O  O327  1  0.58268036  0.57743436  0.03689845  1
  O  O328  1  0.58556799  0.57680178  0.37316590  1
  O  O329  1  0.58659646  0.58184868  0.71386737  1
  O  O330  1  0.41406293  0.41760482  0.12667567  1
  O  O331  1  0.41686777  0.42440443  0.46244010  1
  O  O332  1  0.41406256  0.41847930  0.79419275  1
  O  O333  1  0.42197886  0.90218702  0.12869343  1
  O  O334  1  0.42284596  0.90223787  0.46766077  1
  O  O335  1  0.41255119  0.91399476  0.80161423  1
  O  O336  1  0.91700204  0.42054598  0.13057227  1
  O  O337  1  0.90792964  0.40253063  0.46170359  1
  O  O338  1  0.90922477  0.41045962  0.79582154  1
  O  O339  1  0.90182665  0.92862887  0.10349077  1
  O  O340  1  0.89281870  0.90603273  0.44927848  1
  O  O341  1  0.90727622  0.91684462  0.79182328  1
  O  O342  1  0.42000098  0.42535933  0.29990075  1
  O  O343  1  0.42131338  0.42648235  0.63177504  1
  O  O344  1  0.41900336  0.41829126  0.95739372  1
  O  O345  1  0.43223549  0.89583772  0.28830235  1
  O  O346  1  0.41709949  0.91517433  0.64939057  1
  O  O347  1  0.41020561  0.90260921  0.95985979  1
  O  O348  1  0.92251585  0.41897580  0.30015237  1
  O  O349  1  0.90426129  0.40800309  0.63469729  1
  O  O350  1  0.91782098  0.41840339  0.96244782  1
  O  O351  1  0.91760552  0.90064467  0.29196745  1
  O  O352  1  0.91388700  0.91345878  0.63431459  1
  O  O353  1  0.91036076  0.90658769  0.95000013  1
  O  O354  1  0.07849390  0.09992609  0.18471991  1
  O  O355  1  0.07677891  0.04339663  0.54397369  1
  O  O356  1  0.09209116  0.08909721  0.87352897  1
  O  O357  1  0.08833450  0.58508134  0.20378772  1
  O  O358  1  0.09377296  0.59566449  0.53822170  1
  O  O359  1  0.09259448  0.58897879  0.87325528  1
  O  O360  1  0.57041093  0.08051066  0.19064000  1
  O  O361  1  0.58550556  0.08406567  0.54069960  1
  O  O362  1  0.58859697  0.09250636  0.86692837  1
  O  O363  1  0.58780087  0.57536267  0.20346889  1
  O  O364  1  0.58812155  0.56428214  0.54372950  1
  O  O365  1  0.58847536  0.58202008  0.87354329  1
  O  O366  1  0.13476870  0.22922247  0.06180862  1
  O  O367  1  0.12875560  0.22714889  0.39158721  1
  O  O368  1  0.13373985  0.21867649  0.72651474  1
  O  O369  1  0.14102198  0.70616884  0.06263176  1
  O  O370  1  0.14042215  0.71872932  0.39437437  1
  O  O371  1  0.14196005  0.73137066  0.73327948  1
  O  O372  1  0.63509995  0.23298547  0.05115449  1
  O  O373  1  0.63742156  0.22459532  0.38932057  1
  O  O374  1  0.64181429  0.22490387  0.72934052  1
  O  O375  1  0.63955648  0.70852278  0.05100165  1
  O  O376  1  0.63998424  0.70853272  0.38852716  1
  O  O377  1  0.63799891  0.71312392  0.72591733  1
  O  O378  1  0.28184350  0.35790179  0.10588412  1
  O  O379  1  0.28379200  0.36597480  0.44062755  1
  O  O380  1  0.28134210  0.35912672  0.77010901  1
  O  O381  1  0.28783345  0.86832892  0.12028923  1
  O  O382  1  0.28746240  0.85442697  0.44887045  1
  O  O383  1  0.27899573  0.86074713  0.77790498  1
  O  O384  1  0.78489273  0.36287182  0.11156422  1
  O  O385  1  0.77327369  0.36386560  0.45162606  1
  O  O386  1  0.77557472  0.36137109  0.77649487  1
  O  O387  1  0.77358760  0.87661179  0.09792474  1
  O  O388  1  0.76135658  0.86484003  0.44073779  1
  O  O389  1  0.77449977  0.86168781  0.77032906  1
  O  O390  1  0.36076027  0.29272012  0.27430190  1
  O  O391  1  0.36087899  0.29896106  0.61874683  1
  O  O392  1  0.36331953  0.28607094  0.93836562  1
  O  O393  1  0.36595562  0.76708104  0.26808719  1
  O  O394  1  0.36298322  0.77692078  0.60964674  1
  O  O395  1  0.36492454  0.76676793  0.93589644  1
  O  O396  1  0.86084787  0.28782565  0.27763773  1
  O  O397  1  0.85936896  0.27013366  0.60260446  1
  O  O398  1  0.86333885  0.28578723  0.94260114  1
  O  O399  1  0.87392087  0.77091889  0.28535091  1
  O  O400  1  0.86367624  0.77755113  0.61041751  1
  O  O401  1  0.86619615  0.77567719  0.94355965  1
  O  O402  1  0.21810456  0.14139536  0.21815975  1
  O  O403  1  0.19426674  0.12798371  0.56294172  1
  O  O404  1  0.22467813  0.13958606  0.88978354  1
  O  O405  1  0.22482796  0.63336087  0.22412685  1
  O  O406  1  0.22787742  0.64330602  0.55320728  1
  O  O407  1  0.22647466  0.63563566  0.88981020  1
  O  O408  1  0.70375534  0.13774188  0.21767370  1
  O  O409  1  0.71592506  0.14140600  0.55597406  1
  O  O410  1  0.72349404  0.14118291  0.88924074  1
  O  O411  1  0.72010088  0.63697297  0.22995780  1
  O  O412  1  0.71483176  0.63237744  0.56076289  1
  O  O413  1  0.72134646  0.63931574  0.89496112  1
  O  O414  1  0.49427290  0.34114487  0.02749952  1
  O  O415  1  0.49362310  0.34001634  0.36148358  1
  O  O416  1  0.49558099  0.34512589  0.69878513  1
  O  O417  1  0.49334544  0.82291131  0.02579080  1
  O  O418  1  0.49539124  0.81245707  0.35924089  1
  O  O419  1  0.49280690  0.82462128  0.69962885  1
  O  O420  1  0.99391263  0.34081382  0.03147162  1
  O  O421  1  0.99086446  0.33817620  0.36973655  1
  O  O422  1  0.98723461  0.32712698  0.69443207  1
  O  O423  1  0.99817683  0.84026682  0.02608761  1
  O  O424  1  1.00284802  0.83544252  0.37279054  1
  O  O425  1  0.99155529  0.83700585  0.70336066  1
  O  O426  1  0.16144793  0.00613753  0.14682249  1
  O  O427  1  0.17358737  -0.00597748  0.48291003  1
  O  O428  1  0.16679060  0.00868557  0.80356129  1
  O  O429  1  0.16387608  0.50646862  0.13309058  1
  O  O430  1  0.16850698  0.51140143  0.47136948  1
  O  O431  1  0.16612167  0.50729404  0.80111023  1
  O  O432  1  0.65599018  0.00739036  0.12863652  1
  O  O433  1  0.66287279  0.01125242  0.46708414  1
  O  O434  1  0.66466139  0.01169778  0.79878050  1
  O  O435  1  0.67312101  0.50490408  0.14138455  1
  O  O436  1  0.67216471  0.49949706  0.47511675  1
  O  O437  1  0.67100375  0.50703063  0.80874949  1
  O  O438  1  0.00287502  0.17270651  0.29692368  1
  O  O439  1  0.00168692  0.16207183  0.64265909  1
  O  O440  1  0.00582465  0.17972646  0.97128278  1
  O  O441  1  0.01283525  0.66469188  0.29936739  1
  O  O442  1  0.01459402  0.67706301  0.63728448  1
  O  O443  1  0.00975379  0.66561082  0.97192143  1
  O  O444  1  0.50702184  0.17178918  0.30193381  1
  O  O445  1  0.51128228  0.17720420  0.63796669  1
  O  O446  1  0.50530159  0.17434632  0.96799823  1
  O  O447  1  0.51042768  0.65060170  0.29928641  1
  O  O448  1  0.50521243  0.65448048  0.64295875  1
  O  O449  1  0.50675521  0.65582894  0.96837980  1
  O  O450  1  0.33029290  0.48984453  0.19139185  1
  O  O451  1  0.33516227  0.49748357  0.52829438  1
  O  O452  1  0.33052286  0.49148444  0.85775128  1
  O  O453  1  0.36295958  0.99512419  0.20412881  1
  O  O454  1  0.34948703  0.98177949  0.54044085  1
  O  O455  1  0.33244387  0.98886098  0.87116665  1
  O  O456  1  0.83694655  0.49373402  0.19871424  1
  O  O457  1  0.83920985  0.49262793  0.53226342  1
  O  O458  1  0.83365646  0.49222436  0.86438335  1
  O  O459  1  0.83226757  1.00536173  0.18598667  1
  O  O460  1  0.82957042  0.98977256  0.53171213  1
  O  O461  1  0.82671846  0.99172903  0.86082854  1
