# generated using pymatgen
data_Na31Fe20(SO4)36
_symmetry_space_group_name_H-M   'P 1'
_cell_length_a   18.06228243
_cell_length_b   18.06560860
_cell_length_c   19.68217197
_cell_angle_alpha   107.62114601
_cell_angle_beta   107.61057253
_cell_angle_gamma   90.64527021
_symmetry_Int_Tables_number   1
_chemical_formula_structural   Na31Fe20(SO4)36
_chemical_formula_sum   'Na62 Fe40 S72 O288'
_cell_volume   5796.68940463
_cell_formula_units_Z   2
loop_
 _symmetry_equiv_pos_site_id
 _symmetry_equiv_pos_as_xyz
  1  'x, y, z'
loop_
 _atom_site_type_symbol
 _atom_site_label
 _atom_site_symmetry_multiplicity
 _atom_site_fract_x
 _atom_site_fract_y
 _atom_site_fract_z
 _atom_site_occupancy
  Na  Na0  1  0.13061585  0.36342468  0.07863625  1
  Na  Na1  1  0.13704616  0.36826372  0.42089630  1
  Na  Na2  1  0.13816273  0.36701062  0.75736164  1
  Na  Na3  1  0.12788359  0.86189170  0.07522172  1
  Na  Na4  1  0.13756121  0.87063902  0.43001552  1
  Na  Na5  1  0.12496531  0.87026362  0.74116996  1
  Na  Na6  1  0.63774382  0.36780172  0.08475442  1
  Na  Na7  1  0.63061095  0.37140325  0.41362398  1
  Na  Na8  1  0.64345830  0.36872231  0.75099614  1
  Na  Na9  1  0.63662649  0.86062829  0.08811098  1
  Na  Na10  1  0.65540404  0.82009471  0.38833833  1
  Na  Na11  1  0.63154241  0.85881545  0.74465683  1
  Na  Na12  1  0.37022350  0.12697862  0.24668000  1
  Na  Na13  1  0.35786211  0.13397649  0.58568236  1
  Na  Na14  1  0.36453199  0.13536923  0.91384375  1
  Na  Na15  1  0.35923055  0.64168789  0.24901260  1
  Na  Na16  1  0.36041047  0.63698398  0.58210047  1
  Na  Na17  1  0.37282627  0.63619807  0.93377975  1
  Na  Na18  1  0.86281696  0.13669483  0.24587678  1
  Na  Na19  1  0.87552525  0.14054034  0.59866041  1
  Na  Na20  1  0.86624070  0.12954071  0.91443860  1
  Na  Na21  1  0.86526627  0.63489289  0.25199651  1
  Na  Na22  1  0.86173172  0.64785175  0.57818934  1
  Na  Na23  1  0.85997666  0.62733974  0.90812662  1
  Na  Na24  1  0.99506968  0.54178926  0.41137174  1
  Na  Na25  1  0.98477649  0.49972425  0.75195457  1
  Na  Na26  1  0.53581940  -0.02433444  0.39420915  1
  Na  Na27  1  0.97044294  0.50577666  0.09754190  1
  Na  Na28  1  0.51260294  -0.03927631  0.13822838  1
  Na  Na29  1  0.99191849  0.00221602  0.42578268  1
  Na  Na30  1  0.50792630  0.49797942  0.75169492  1
  Na  Na31  1  0.45255688  0.00484603  0.73770234  1
  Na  Na32  1  0.99452925  0.01098347  0.06656854  1
  Na  Na33  1  -0.01094775  0.52440393  0.57456684  1
  Na  Na34  1  0.54121100  0.49286634  0.58351135  1
  Na  Na35  1  0.00602253  0.98089456  0.60506632  1
  Na  Na36  1  0.00554023  0.45053272  0.91290927  1
  Na  Na37  1  0.00991878  0.98987428  0.25026575  1
  Na  Na38  1  0.52039856  0.49319410  0.95989041  1
  Na  Na39  1  0.48274496  0.54506402  0.18627053  1
  Na  Na40  1  0.50504832  0.98887038  0.92475951  1
  Na  Na41  1  0.50185637  0.98996513  0.57807500  1
  Na  Na42  1  0.25235662  0.75710962  0.33190176  1
  Na  Na43  1  0.23342347  0.74863030  0.66217319  1
  Na  Na44  1  0.26296100  0.26736715  -0.01106061  1
  Na  Na45  1  0.26291060  0.76154115  -0.00448118  1
  Na  Na46  1  0.74685691  0.24531847  0.00538170  1
  Na  Na47  1  0.25381801  0.25155548  0.33177951  1
  Na  Na48  1  0.76489529  0.26200793  0.66285388  1
  Na  Na49  1  0.75391588  0.75200115  0.66106329  1
  Na  Na50  1  0.75975812  0.26223867  0.31937622  1
  Na  Na51  1  0.73657167  0.72696447  0.00824858  1
  Na  Na52  1  0.76234837  0.25822209  0.82869038  1
  Na  Na53  1  0.26529895  0.26915122  0.82090528  1
  Na  Na54  1  0.70239827  0.71553214  0.17544179  1
  Na  Na55  1  0.27164347  0.76206359  0.15800211  1
  Na  Na56  1  0.24442378  0.24466595  0.50973864  1
  Na  Na57  1  0.73732423  0.73292070  0.83248384  1
  Na  Na58  1  0.75997064  0.25835579  0.49563580  1
  Na  Na59  1  0.25399113  0.76495182  0.50168294  1
  Na  Na60  1  0.25237724  0.75363836  0.83194095  1
  Na  Na61  1  0.25562089  0.25701485  0.16217748  1
  Fe  Fe62  1  0.96818400  0.80702826  0.78361990  1
  Fe  Fe63  1  0.46497766  0.31085183  0.78706214  1
  Fe  Fe64  1  0.96377884  0.79986117  0.45441754  1
  Fe  Fe65  1  0.96782577  0.31173278  0.45598813  1
  Fe  Fe66  1  0.96480471  0.31060218  0.12529989  1
  Fe  Fe67  1  0.46775881  0.30996634  0.12048962  1
  Fe  Fe68  1  0.46631565  0.30535476  0.45108681  1
  Fe  Fe69  1  0.96717926  0.80610081  0.11762722  1
  Fe  Fe70  1  0.46498049  0.80241454  0.44636810  1
  Fe  Fe71  1  0.46169543  0.80771725  0.78276050  1
  Fe  Fe72  1  0.67749633  0.54648959  0.37447651  1
  Fe  Fe73  1  0.69523130  0.03365789  0.05010170  1
  Fe  Fe74  1  0.69326095  0.03072409  0.71563204  1
  Fe  Fe75  1  0.19853616  0.52782609  0.04168212  1
  Fe  Fe76  1  0.19528383  0.53347879  0.71613737  1
  Fe  Fe77  1  0.19985073  0.03728760  0.71155191  1
  Fe  Fe78  1  0.19518590  0.03331615  0.38467225  1
  Fe  Fe79  1  0.19105687  0.53566680  0.37967191  1
  Fe  Fe80  1  0.18685564  0.04001867  0.04247824  1
  Fe  Fe81  1  0.70061138  0.03481165  0.38300411  1
  Fe  Fe82  1  0.53201059  0.69356802  0.88248510  1
  Fe  Fe83  1  0.53461269  0.18863272  0.54527858  1
  Fe  Fe84  1  0.03776154  0.69222395  0.21185627  1
  Fe  Fe85  1  0.03674246  0.69217145  0.88091423  1
  Fe  Fe86  1  0.53446089  0.68750282  0.54406341  1
  Fe  Fe87  1  0.03484608  0.19477159  0.21612913  1
  Fe  Fe88  1  0.03002798  0.19636770  0.87712060  1
  Fe  Fe89  1  0.53707435  0.19025291  0.21296014  1
  Fe  Fe90  1  0.03652405  0.19827269  0.55375912  1
  Fe  Fe91  1  0.53719235  0.18956555  0.88178226  1
  Fe  Fe92  1  0.30670530  0.96781878  0.95485522  1
  Fe  Fe93  1  0.31056726  0.96622838  0.28797410  1
  Fe  Fe94  1  0.30977667  0.46650564  0.28983956  1
  Fe  Fe95  1  0.80004954  0.46967935  0.62343789  1
  Fe  Fe96  1  0.79539036  0.47236591  0.95476631  1
  Fe  Fe97  1  0.80450363  0.46396392  0.28554420  1
  Fe  Fe98  1  0.80568841  0.96221155  0.94971673  1
  Fe  Fe99  1  0.80695948  0.96307638  0.61897029  1
  Fe  Fe100  1  0.81240803  0.96479039  0.28624618  1
  Fe  Fe101  1  0.31108939  0.46497091  0.62100655  1
  S  S102  1  0.36063636  0.14252037  0.08323170  1
  S  S103  1  0.35867092  0.14171129  0.41697894  1
  S  S104  1  0.36257814  0.14389565  0.75225656  1
  S  S105  1  0.35008033  0.63654035  0.08330327  1
  S  S106  1  0.35400148  0.64172974  0.41847554  1
  S  S107  1  0.35598559  0.64362445  0.74781897  1
  S  S108  1  0.86207218  0.13765943  0.08290568  1
  S  S109  1  0.86391331  0.14095508  0.41691545  1
  S  S110  1  0.85672127  0.13699301  0.75272173  1
  S  S111  1  0.86106129  0.64403958  0.08359807  1
  S  S112  1  0.85917906  0.63565266  0.41617043  1
  S  S113  1  0.86282212  0.64075406  0.74849857  1
  S  S114  1  0.14297325  0.35892998  0.25350137  1
  S  S115  1  0.14282117  0.36101255  0.58497896  1
  S  S116  1  0.14057647  0.35569942  0.91708030  1
  S  S117  1  0.13995078  0.86129360  0.24747866  1
  S  S118  1  0.13404818  0.86438707  0.58410164  1
  S  S119  1  0.13891170  0.86197410  0.91695774  1
  S  S120  1  0.64024638  0.35726830  0.25174392  1
  S  S121  1  0.63940128  0.35310754  0.58081549  1
  S  S122  1  0.63954616  0.35322056  0.91251685  1
  S  S123  1  0.64567415  0.86724241  0.25286126  1
  S  S124  1  0.63762818  0.86102982  0.58096759  1
  S  S125  1  0.63990803  0.85962864  0.91578271  1
  S  S126  1  0.06603244  0.17392044  0.04504156  1
  S  S127  1  0.06750526  0.16987417  0.37655866  1
  S  S128  1  0.07173024  0.17144545  0.71224216  1
  S  S129  1  0.07410389  0.66708642  0.04171115  1
  S  S130  1  0.07225360  0.67541310  0.37475569  1
  S  S131  1  0.06769367  0.66864727  0.71036032  1
  S  S132  1  0.56916712  0.16603824  0.04114976  1
  S  S133  1  0.56985762  0.16853494  0.37708334  1
  S  S134  1  0.56809033  0.16457164  0.70722320  1
  S  S135  1  0.56416650  0.67791582  0.04400085  1
  S  S136  1  0.55276773  0.65718770  0.37261663  1
  S  S137  1  0.55669670  0.66723378  0.70688730  1
  S  S138  1  0.32651102  0.43010060  0.12623913  1
  S  S139  1  0.33319731  0.43293478  0.45919018  1
  S  S140  1  0.33923124  0.44201324  0.79265147  1
  S  S141  1  0.31855456  0.93476827  0.11869993  1
  S  S142  1  0.33100918  0.93595450  0.45824030  1
  S  S143  1  0.32785634  0.93452628  0.79176427  1
  S  S144  1  0.83066344  0.43121342  0.12407223  1
  S  S145  1  0.82925383  0.43163111  0.45848231  1
  S  S146  1  0.82994899  0.43583892  0.79142704  1
  S  S147  1  0.83561278  0.93266215  0.12280688  1
  S  S148  1  0.83793661  0.93771062  0.46249432  1
  S  S149  1  0.82611137  0.92581683  0.78939641  1
  S  S150  1  0.42935959  0.32341308  0.28782929  1
  S  S151  1  0.43592113  0.32791461  0.62179374  1
  S  S152  1  0.43855111  0.32736118  0.95572906  1
  S  S153  1  0.42868823  0.83398447  0.29188140  1
  S  S154  1  0.43709115  0.83150217  0.62136789  1
  S  S155  1  0.43562831  0.83602533  0.95731377  1
  S  S156  1  0.93467346  0.33090441  0.29490218  1
  S  S157  1  0.93575149  0.33573043  0.62581838  1
  S  S158  1  0.92892660  0.33031215  0.96233640  1
  S  S159  1  0.93647741  0.83188757  0.29089809  1
  S  S160  1  0.92610175  0.83300552  0.62564949  1
  S  S161  1  0.93025746  0.82616613  0.95326426  1
  S  S162  1  0.16504668  0.06662401  0.20753844  1
  S  S163  1  0.16674367  0.07203451  0.54002857  1
  S  S164  1  0.17365599  0.07472202  0.87877396  1
  S  S165  1  0.16943424  0.56583474  0.20694477  1
  S  S166  1  0.16853723  0.56197634  0.54275406  1
  S  S167  1  0.16913361  0.56857673  0.87724747  1
  S  S168  1  0.67504054  0.06925360  0.21116526  1
  S  S169  1  0.67390483  0.06872792  0.54513329  1
  S  S170  1  0.66745003  0.06173419  0.87593229  1
  S  S171  1  0.67257186  0.56022107  0.21299373  1
  S  S172  1  0.67163734  0.56665535  0.54194036  1
  S  S173  1  0.66459237  0.56389590  0.87145797  1
  O  O174  1  0.37066319  0.22175703  0.07540575  1
  O  O175  1  0.36754634  0.22205258  0.41143903  1
  O  O176  1  0.37208806  0.22580811  0.75102019  1
  O  O177  1  0.34737049  0.71534589  0.07606447  1
  O  O178  1  0.36241809  0.72264212  0.41396030  1
  O  O179  1  0.36145099  0.72229667  0.73700884  1
  O  O180  1  0.87106317  0.21624441  0.07517861  1
  O  O181  1  0.87214452  0.21949004  0.40791691  1
  O  O182  1  0.85878590  0.21323950  0.74152640  1
  O  O183  1  0.87778687  0.72098228  0.07228589  1
  O  O184  1  0.87171457  0.71328042  0.40650572  1
  O  O185  1  0.87717423  0.71796332  0.73758583  1
  O  O186  1  0.28232413  0.13524908  0.09334426  1
  O  O187  1  0.27869342  0.13192792  0.42328249  1
  O  O188  1  0.28490979  0.13463704  0.76316610  1
  O  O189  1  0.26852162  0.62165856  0.09492446  1
  O  O190  1  0.27524894  0.63306534  0.42852256  1
  O  O191  1  0.27564257  0.63316753  0.75323835  1
  O  O192  1  0.78346137  0.12653143  0.08962812  1
  O  O193  1  0.78493201  0.13271474  0.42551080  1
  O  O194  1  0.77986203  0.12254792  0.76585080  1
  O  O195  1  0.78469529  0.64263145  0.09330545  1
  O  O196  1  0.77998179  0.62685738  0.42222100  1
  O  O197  1  0.78591986  0.63579550  0.75697714  1
  O  O198  1  0.13183506  0.28006880  0.26240492  1
  O  O199  1  0.13203809  0.28107883  0.58905153  1
  O  O200  1  0.12440753  0.28256748  0.93448316  1
  O  O201  1  0.13192677  0.78252085  0.25547893  1
  O  O202  1  0.12329513  0.79199645  0.60043504  1
  O  O203  1  0.12989594  0.78471064  0.92925683  1
  O  O204  1  0.62842860  0.27894260  0.26250609  1
  O  O205  1  0.63152761  0.27173343  0.58519466  1
  O  O206  1  0.63540721  0.27135964  0.91696274  1
  O  O207  1  0.63567619  0.78923291  0.25804315  1
  O  O208  1  0.63062559  0.78336800  0.59206475  1
  O  O209  1  0.63036912  0.77931019  0.91971280  1
  O  O210  1  0.22419756  0.36582529  0.24944576  1
  O  O211  1  0.22074282  0.36908426  0.57413120  1
  O  O212  1  0.21961050  0.35721410  0.91194138  1
  O  O213  1  0.21819462  0.87173890  0.23947996  1
  O  O214  1  0.20709352  0.87174709  0.56750564  1
  O  O215  1  0.22060959  0.86962225  0.91359715  1
  O  O216  1  0.72064347  0.36243968  0.24680565  1
  O  O217  1  0.72069237  0.36374874  0.57771077  1
  O  O218  1  0.71958302  0.36747458  0.90771775  1
  O  O219  1  0.72676992  0.87784732  0.24607663  1
  O  O220  1  0.71564557  0.87306323  0.57341773  1
  O  O221  1  0.71811814  0.86770445  0.90568552  1
  O  O222  1  0.42057459  0.13352164  0.15058176  1
  O  O223  1  0.41678271  0.13310595  0.48496113  1
  O  O224  1  0.42234531  0.13079784  0.81909122  1
  O  O225  1  0.40738010  0.63357970  0.15301272  1
  O  O226  1  0.41323527  0.63047328  0.48396249  1
  O  O227  1  0.41330480  0.63972275  0.81769828  1
  O  O228  1  0.92175790  0.12950387  0.15128983  1
  O  O229  1  0.92323248  0.13270905  0.48477210  1
  O  O230  1  0.91828861  0.13316842  0.82141526  1
  O  O231  1  0.92267089  0.63399130  0.15042136  1
  O  O232  1  0.91781434  0.62509206  0.48261066  1
  O  O233  1  0.92353360  0.63201652  0.81668617  1
  O  O234  1  0.36662765  0.08352465  0.01451662  1
  O  O235  1  0.36559371  0.08508577  0.34748308  1
  O  O236  1  0.36988443  0.08792209  0.68408896  1
  O  O237  1  0.35555785  0.57774494  0.01629214  1
  O  O238  1  0.35638146  0.58548551  0.34684302  1
  O  O239  1  0.36720498  0.58440196  0.68138423  1
  O  O240  1  0.87257960  0.07785407  0.01544499  1
  O  O241  1  0.87210541  0.08113130  0.34877251  1
  O  O242  1  0.86449348  0.07600954  0.68549355  1
  O  O243  1  0.86728269  0.58240039  0.01529206  1
  O  O244  1  0.86960415  0.57580196  0.34764995  1
  O  O245  1  0.87148314  0.57891249  0.68137150  1
  O  O246  1  0.08685612  0.36482111  0.18351415  1
  O  O247  1  0.08302673  0.37245837  0.51858467  1
  O  O248  1  0.08189109  0.36490118  0.85131914  1
  O  O249  1  0.08009344  0.86897168  0.17884527  1
  O  O250  1  0.06810498  0.87233739  0.51818235  1
  O  O251  1  0.08425619  0.86528104  0.84510748  1
  O  O252  1  0.58328065  0.36014880  0.18028077  1
  O  O253  1  0.58375140  0.35997317  0.50926385  1
  O  O254  1  0.58272272  0.35684614  0.84030235  1
  O  O255  1  0.58987342  0.88325640  0.18927790  1
  O  O256  1  0.57687301  0.86844537  0.51347366  1
  O  O257  1  0.57958619  0.87264638  0.85071637  1
  O  O258  1  0.13461359  0.41851369  0.32075983  1
  O  O259  1  0.13766397  0.41828237  0.65516255  1
  O  O260  1  0.13432831  0.42138051  0.98615678  1
  O  O261  1  0.12919279  0.92057912  0.31451704  1
  O  O262  1  0.12944779  0.93131015  0.65115402  1
  O  O263  1  0.12655789  0.92310864  0.98128190  1
  O  O264  1  0.62983930  0.41767532  0.31699397  1
  O  O265  1  0.62455993  0.40956555  0.64471556  1
  O  O266  1  0.62503071  0.40846683  0.97698231  1
  O  O267  1  0.64144094  0.92523460  0.32596490  1
  O  O268  1  0.62742406  0.92132245  0.64878921  1
  O  O269  1  0.63503126  0.91716705  0.98654966  1
  O  O270  1  0.02967924  0.20313755  0.10681903  1
  O  O271  1  0.03349622  0.20196690  0.43858900  1
  O  O272  1  0.03381887  0.18956772  0.77075302  1
  O  O273  1  0.03833649  0.69553874  0.10364353  1
  O  O274  1  0.03537564  0.70386965  0.43363529  1
  O  O275  1  0.03872518  0.70303137  0.77705953  1
  O  O276  1  0.53454882  0.19682206  0.10329584  1
  O  O277  1  0.52808525  0.19618144  0.43474021  1
  O  O278  1  0.53110599  0.19292297  0.76736866  1
  O  O279  1  0.52925409  0.71279392  0.10129539  1
  O  O280  1  0.52346433  0.69835144  0.43953949  1
  O  O281  1  0.52320228  0.70551346  0.76968964  1
  O  O282  1  0.29332556  0.46476513  0.06577308  1
  O  O283  1  0.30364026  0.47085828  0.39913190  1
  O  O284  1  0.30191977  0.47151118  0.72546044  1
  O  O285  1  0.28671196  0.97721859  0.06146407  1
  O  O286  1  0.29731567  0.96784532  0.39235972  1
  O  O287  1  0.30061079  0.96983272  0.73142994  1
  O  O288  1  0.81282153  0.46997234  0.06568491  1
  O  O289  1  0.80052092  0.46361651  0.39564325  1
  O  O290  1  0.79627215  0.46688644  0.72855692  1
  O  O291  1  0.80339077  0.96874824  0.06154194  1
  O  O292  1  0.81004170  0.97552493  0.40156827  1
  O  O293  1  0.79441008  0.96124358  0.72772193  1
  O  O294  1  0.46672052  0.29557261  0.22716078  1
  O  O295  1  0.47240186  0.29776889  0.56029935  1
  O  O296  1  0.47794974  0.29264670  0.89625370  1
  O  O297  1  0.45282640  0.81098959  0.22652874  1
  O  O298  1  0.47197048  0.79202545  0.56087362  1
  O  O299  1  0.46722502  0.80282136  0.89192862  1
  O  O300  1  0.97124872  0.30045791  0.23322176  1
  O  O301  1  0.96734167  0.30219487  0.55998361  1
  O  O302  1  0.96465617  0.30203999  0.90238485  1
  O  O303  1  0.97474695  0.80359341  0.23047798  1
  O  O304  1  0.95282361  0.80447343  0.56013801  1
  O  O305  1  0.96834864  0.79945216  0.89343072  1
  O  O306  1  0.19639818  0.03174129  0.26916100  1
  O  O307  1  0.19774252  0.04370621  0.60385302  1
  O  O308  1  0.20278562  0.03294862  0.93749302  1
  O  O309  1  0.19589775  0.52571585  0.26574508  1
  O  O310  1  0.20498923  0.52714274  0.60448729  1
  O  O311  1  0.18977107  0.53295370  0.93831046  1
  O  O312  1  0.70797521  0.03702928  0.27453420  1
  O  O313  1  0.70255595  0.03341334  0.60682767  1
  O  O314  1  0.69963000  0.02712941  0.93847112  1
  O  O315  1  0.70583247  0.52352863  0.27713574  1
  O  O316  1  0.69569141  0.52301557  0.59662034  1
  O  O317  1  0.69587174  0.53397156  0.93610344  1
  O  O318  1  0.08289663  0.09179103  0.04135176  1
  O  O319  1  0.08341620  0.08708756  0.37047847  1
  O  O320  1  0.09286700  0.08947846  0.69674099  1
  O  O321  1  0.09428344  0.58551314  0.03600914  1
  O  O322  1  0.09201235  0.59425736  0.37225225  1
  O  O323  1  0.08844976  0.58736959  0.70882940  1
  O  O324  1  0.58926405  0.08475146  0.03818204  1
  O  O325  1  0.59218473  0.08917990  0.37589128  1
  O  O326  1  0.58485519  0.08171360  0.70076121  1
  O  O327  1  0.58801870  0.60023220  0.04309678  1
  O  O328  1  0.56550960  0.57570738  0.37300697  1
  O  O329  1  0.56311325  0.58509616  0.70213719  1
  O  O330  1  0.40673418  0.41059799  0.12684099  1
  O  O331  1  0.41412518  0.41319772  0.46438914  1
  O  O332  1  0.41700365  0.41622664  0.78544434  1
  O  O333  1  0.39322500  0.91044192  0.11375257  1
  O  O334  1  0.41003444  0.91100069  0.45830328  1
  O  O335  1  0.41113838  0.91659608  0.79741410  1
  O  O336  1  0.91424768  0.41211752  0.13732656  1
  O  O337  1  0.91297783  0.41570713  0.46740889  1
  O  O338  1  0.91357375  0.42815652  0.80111167  1
  O  O339  1  0.91874041  0.91823227  0.12695199  1
  O  O340  1  0.92026387  0.92012217  0.46723290  1
  O  O341  1  0.90562001  0.90601499  0.79366628  1
  O  O342  1  0.40546772  0.40163093  0.29136176  1
  O  O343  1  0.41978085  0.41049700  0.62755665  1
  O  O344  1  0.42472280  0.40664166  0.95731604  1
  O  O345  1  0.41249083  0.91955976  0.31031944  1
  O  O346  1  0.42916701  0.91270002  0.62234435  1
  O  O347  1  0.41101247  0.91502739  0.95464899  1
  O  O348  1  0.91421994  0.41090486  0.29941614  1
  O  O349  1  0.90848852  0.41351645  0.62382184  1
  O  O350  1  0.90920906  0.41215204  0.96707141  1
  O  O351  1  0.92325586  0.91665073  0.29724118  1
  O  O352  1  0.91246771  0.91761298  0.63720083  1
  O  O353  1  0.91147617  0.90818205  0.96149879  1
  O  O354  1  0.08200976  0.08264967  0.20343283  1
  O  O355  1  0.08368480  0.09041845  0.53175755  1
  O  O356  1  0.09564046  0.09680036  0.87915559  1
  O  O357  1  0.08623923  0.58085209  0.19607981  1
  O  O358  1  0.08592543  0.56918426  0.53575498  1
  O  O359  1  0.08506993  0.58442563  0.86211759  1
  O  O360  1  0.59269956  0.08485809  0.20536529  1
  O  O361  1  0.59030610  0.08318242  0.53681848  1
  O  O362  1  0.58488564  0.07706594  0.87101887  1
  O  O363  1  0.60382355  0.59567460  0.22606996  1
  O  O364  1  0.59039965  0.58678707  0.54060931  1
  O  O365  1  0.58464517  0.58919173  0.87025045  1
  O  O366  1  0.13865426  0.22427700  0.06318684  1
  O  O367  1  0.13957092  0.21974504  0.39050577  1
  O  O368  1  0.14028130  0.22761883  0.73095269  1
  O  O369  1  0.14274177  0.72171073  0.05686402  1
  O  O370  1  0.14323826  0.72753614  0.38877714  1
  O  O371  1  0.13813175  0.72024448  0.72239938  1
  O  O372  1  0.63742674  0.21784445  0.05131256  1
  O  O373  1  0.63916989  0.22388020  0.39547925  1
  O  O374  1  0.63954733  0.21576159  0.72256633  1
  O  O375  1  0.63537601  0.72987778  0.05302389  1
  O  O376  1  0.62763442  0.70001364  0.38555619  1
  O  O377  1  0.63203119  0.71314010  0.72258005  1
  O  O378  1  0.27509540  0.35886443  0.11330175  1
  O  O379  1  0.27937731  0.36223978  0.44190185  1
  O  O380  1  0.28691205  0.37504418  0.78466077  1
  O  O381  1  0.26103925  0.86698929  0.10182923  1
  O  O382  1  0.27626302  0.86699904  0.44420536  1
  O  O383  1  0.27699119  0.86284892  0.77756386  1
  O  O384  1  0.77703003  0.35996787  0.10245765  1
  O  O385  1  0.77936274  0.35828806  0.44273070  1
  O  O386  1  0.78389257  0.35980584  0.77592406  1
  O  O387  1  0.78632792  0.86107695  0.10787352  1
  O  O388  1  0.78696882  0.86802928  0.44781131  1
  O  O389  1  0.77207509  0.85621333  0.77532972  1
  O  O390  1  0.36109841  0.26630596  0.27185457  1
  O  O391  1  0.36451723  0.27683319  0.60507793  1
  O  O392  1  0.36582727  0.27510967  0.93649618  1
  O  O393  1  0.35683166  0.78529472  0.28457198  1
  O  O394  1  0.36212135  0.78609090  0.60774135  1
  O  O395  1  0.36604186  0.78282257  0.94469865  1
  O  O396  1  0.86687730  0.27592035  0.28037006  1
  O  O397  1  0.86793414  0.27951361  0.61263937  1
  O  O398  1  0.85878649  0.27746687  0.94894883  1
  O  O399  1  0.86391318  0.78297257  0.27216745  1
  O  O400  1  0.85484066  0.78624594  0.61738816  1
  O  O401  1  0.85999574  0.77295089  0.93610860  1
  O  O402  1  0.21484297  0.13885256  0.22225962  1
  O  O403  1  0.21656758  0.13999003  0.54549732  1
  O  O404  1  0.23033707  0.14374112  0.89838269  1
  O  O405  1  0.22022091  0.63920968  0.22930417  1
  O  O406  1  0.21495956  0.63731378  0.55938182  1
  O  O407  1  0.22072358  0.64091133  0.89584400  1
  O  O408  1  0.72458509  0.14003106  0.22295972  1
  O  O409  1  0.72487841  0.14050482  0.56121865  1
  O  O410  1  0.71802613  0.13351202  0.89167039  1
  O  O411  1  0.73463180  0.62001047  0.22303701  1
  O  O412  1  0.72494332  0.63789324  0.56325177  1
  O  O413  1  0.71812660  0.63385921  0.88350357  1
  O  O414  1  0.49436001  0.32509935  0.02904121  1
  O  O415  1  0.48966057  0.32670815  0.36032453  1
  O  O416  1  0.49545832  0.32893389  0.69372092  1
  O  O417  1  0.49841103  0.84732967  0.02774035  1
  O  O418  1  0.49320776  0.83275591  0.36229702  1
  O  O419  1  0.49276693  0.83316429  0.69667520  1
  O  O420  1  0.98927108  0.33639350  0.03689418  1
  O  O421  1  0.99660552  0.33455835  0.36719965  1
  O  O422  1  0.99891909  0.34698673  0.69586606  1
  O  O423  1  0.99050337  0.82798195  0.02576370  1
  O  O424  1  0.99413034  0.83399036  0.36428422  1
  O  O425  1  0.99058658  0.83177257  0.69463572  1
  O  O426  1  0.16046526  0.00832241  0.13374302  1
  O  O427  1  0.16089725  0.00677849  0.46781031  1
  O  O428  1  0.17065618  0.01716460  0.80518095  1
  O  O429  1  0.17328029  0.50927442  0.13451622  1
  O  O430  1  0.17301928  0.50587791  0.47031698  1
  O  O431  1  0.17492615  0.50888934  0.80787560  1
  O  O432  1  0.67278427  0.00681986  0.13968070  1
  O  O433  1  0.67357660  0.00934420  0.47327382  1
  O  O434  1  0.66578703  0.00199956  0.80407150  1
  O  O435  1  0.65440666  0.49635344  0.14206969  1
  O  O436  1  0.66784566  0.51275070  0.46623175  1
  O  O437  1  0.65320832  0.50193291  0.79973995  1
  O  O438  1  0.00724033  0.16739349  0.30404126  1
  O  O439  1  0.01089473  0.17381447  0.64054904  1
  O  O440  1  0.00795273  0.17299326  0.97324340  1
  O  O441  1  0.01392017  0.66934258  0.29981723  1
  O  O442  1  0.00405883  0.66129623  0.64116935  1
  O  O443  1  0.01248419  0.66399474  0.96998391  1
  O  O444  1  0.51210194  0.16374071  0.30278887  1
  O  O445  1  0.50859150  0.16140085  0.63367973  1
  O  O446  1  0.50638869  0.15777839  0.96809725  1
  O  O447  1  0.49042879  0.65533705  0.30432240  1
  O  O448  1  0.50061903  0.67073410  0.63428343  1
  O  O449  1  0.50528079  0.67050826  0.96642879  1
  O  O450  1  0.33374195  0.48991110  0.20054355  1
  O  O451  1  0.33549378  0.49173984  0.53215769  1
  O  O452  1  0.35345162  0.50685471  0.86160083  1
  O  O453  1  0.32577712  0.99194682  0.19456305  1
  O  O454  1  0.33921997  0.99908453  0.52755371  1
  O  O455  1  0.33238344  0.99386363  0.86544907  1
  O  O456  1  0.82861448  0.48817463  0.19591642  1
  O  O457  1  0.82942957  0.49114854  0.53015618  1
  O  O458  1  0.82359061  0.49178363  0.86324017  1
  O  O459  1  0.83981474  0.99286420  0.19606387  1
  O  O460  1  0.84209267  0.99872681  0.53557824  1
  O  O461  1  0.82855113  0.98741127  0.86155201  1
