# generated using pymatgen
data_Na31Fe20(SO4)36
_symmetry_space_group_name_H-M   'P 1'
_cell_length_a   18.07700829
_cell_length_b   18.07680249
_cell_length_c   19.71356502
_cell_angle_alpha   107.57599082
_cell_angle_beta   107.58534201
_cell_angle_gamma   90.77646995
_symmetry_Int_Tables_number   1
_chemical_formula_structural   Na31Fe20(SO4)36
_chemical_formula_sum   'Na62 Fe40 S72 O288'
_cell_volume   5815.13055528
_cell_formula_units_Z   2
loop_
 _symmetry_equiv_pos_site_id
 _symmetry_equiv_pos_as_xyz
  1  'x, y, z'
loop_
 _atom_site_type_symbol
 _atom_site_label
 _atom_site_symmetry_multiplicity
 _atom_site_fract_x
 _atom_site_fract_y
 _atom_site_fract_z
 _atom_site_occupancy
  Na  Na0  1  0.14097651  0.37155573  0.08415314  1
  Na  Na1  1  0.13555906  0.35003571  0.41055863  1
  Na  Na2  1  0.12259404  0.35308218  0.74216130  1
  Na  Na3  1  0.13079731  0.85190842  0.07100526  1
  Na  Na4  1  0.13995141  0.87259168  0.42881354  1
  Na  Na5  1  0.13510042  0.86541853  0.75003095  1
  Na  Na6  1  0.63930428  0.36527133  0.08180677  1
  Na  Na7  1  0.63183971  0.37010893  0.41780926  1
  Na  Na8  1  0.64301144  0.36876797  0.75930443  1
  Na  Na9  1  0.63197889  0.87193449  0.08770248  1
  Na  Na10  1  0.64398118  0.87021835  0.42553718  1
  Na  Na11  1  0.63364403  0.86643831  0.74871511  1
  Na  Na12  1  0.36133423  0.13580869  0.25172875  1
  Na  Na13  1  0.36044672  0.13230757  0.58580365  1
  Na  Na14  1  0.35366616  0.13469069  0.90743752  1
  Na  Na15  1  0.36912090  0.61816369  0.24136360  1
  Na  Na16  1  0.36400720  0.63484850  0.58338595  1
  Na  Na17  1  0.36886774  0.62483601  0.91842132  1
  Na  Na18  1  0.87394958  0.14171515  0.26595081  1
  Na  Na19  1  0.86809759  0.14630438  0.59754523  1
  Na  Na20  1  0.85340930  0.13677479  0.90632809  1
  Na  Na21  1  0.86065018  0.63104750  0.24467680  1
  Na  Na22  1  0.86578049  0.63660081  0.57976211  1
  Na  Na23  1  0.87086563  0.63829143  0.91952507  1
  Na  Na24  1  0.49190855  0.00820615  0.41242047  1
  Na  Na25  1  0.99387049  0.50211921  0.40665770  1
  Na  Na26  1  0.97790687  0.01968484  0.74288821  1
  Na  Na27  1  0.99277937  0.05542723  0.43474270  1
  Na  Na28  1  0.98402145  0.53054637  0.76148493  1
  Na  Na29  1  0.53292123  0.48867258  0.03515224  1
  Na  Na30  1  0.46153540  0.00779277  0.74298962  1
  Na  Na31  1  0.99158193  0.01676378  0.08365715  1
  Na  Na32  1  0.99518578  0.50809318  0.08963887  1
  Na  Na33  1  0.51231243  0.99891338  0.23038701  1
  Na  Na34  1  0.50682233  0.49020056  0.58350850  1
  Na  Na35  1  0.50653891  0.99394376  0.58581015  1
  Na  Na36  1  0.00039881  0.42596074  0.55871082  1
  Na  Na37  1  0.50299562  0.99139028  0.92996253  1
  Na  Na38  1  -0.00428185  1.00741158  0.58023925  1
  Na  Na39  1  0.03327061  0.48144196  0.91692128  1
  Na  Na40  1  0.01381170  0.98269744  0.91006921  1
  Na  Na41  1  0.01062804  0.98056107  0.25007859  1
  Na  Na42  1  0.75751522  0.76558139  0.65938182  1
  Na  Na43  1  0.75699535  0.26404010  -0.01605019  1
  Na  Na44  1  0.25500831  0.25771365  -0.01286169  1
  Na  Na45  1  0.24836043  0.74754875  0.33563791  1
  Na  Na46  1  0.75764863  0.25716500  0.67865562  1
  Na  Na47  1  0.76464519  0.26207115  0.32857797  1
  Na  Na48  1  0.73844782  0.73573119  0.00900614  1
  Na  Na49  1  0.23160540  0.23372285  0.68104615  1
  Na  Na50  1  0.24569030  0.75217638  0.66913905  1
  Na  Na51  1  0.22707663  0.71819695  0.00174847  1
  Na  Na52  1  0.76178124  0.25966988  0.16072991  1
  Na  Na53  1  0.73404500  0.73374631  0.18072591  1
  Na  Na54  1  0.77797324  0.26716039  0.49755574  1
  Na  Na55  1  0.25605557  0.75476674  0.50144799  1
  Na  Na56  1  0.75017633  0.75148276  0.83596803  1
  Na  Na57  1  0.23509111  0.73523597  0.84157535  1
  Na  Na58  1  0.23939396  0.72827399  0.16911518  1
  Na  Na59  1  0.23832641  0.24152925  0.50559835  1
  Na  Na60  1  0.25054331  0.24851788  0.17126656  1
  Na  Na61  1  0.76154464  0.76606029  0.48988775  1
  Fe  Fe62  1  0.46113118  0.80451913  0.11535146  1
  Fe  Fe63  1  0.46791517  0.30803199  0.12193085  1
  Fe  Fe64  1  0.46199167  0.30598907  0.45096463  1
  Fe  Fe65  1  0.96816350  0.31345917  0.12315298  1
  Fe  Fe66  1  0.46273788  0.80615403  0.44988701  1
  Fe  Fe67  1  0.96205310  0.81120906  0.45215303  1
  Fe  Fe68  1  0.96597935  0.80612672  0.11468476  1
  Fe  Fe69  1  0.97064045  0.80027452  0.78607283  1
  Fe  Fe70  1  0.46325044  0.31234399  0.78838122  1
  Fe  Fe71  1  0.46429692  0.80539282  0.78335781  1
  Fe  Fe72  1  0.20183136  0.02982243  0.71047943  1
  Fe  Fe73  1  0.19658348  0.03357768  0.38387650  1
  Fe  Fe74  1  0.69324495  0.53944658  0.71594356  1
  Fe  Fe75  1  0.69498694  0.03652546  0.04973540  1
  Fe  Fe76  1  0.69517170  0.03319058  0.38504334  1
  Fe  Fe77  1  0.68536660  0.53917438  0.37714986  1
  Fe  Fe78  1  0.19305192  0.03529761  0.04614064  1
  Fe  Fe79  1  0.19081823  0.53248642  0.37781306  1
  Fe  Fe80  1  0.19040251  0.53042242  0.71086338  1
  Fe  Fe81  1  0.69993018  0.03106305  0.71418665  1
  Fe  Fe82  1  0.03509514  0.69348771  0.21422566  1
  Fe  Fe83  1  0.53614768  0.19281960  0.88094981  1
  Fe  Fe84  1  0.03304578  0.69226878  0.54470068  1
  Fe  Fe85  1  0.53621490  0.19263289  0.21495092  1
  Fe  Fe86  1  0.53200787  0.68989411  0.87942381  1
  Fe  Fe87  1  0.53670758  0.68971355  0.21291528  1
  Fe  Fe88  1  0.53283745  0.69002654  0.54475595  1
  Fe  Fe89  1  0.02276022  0.21071782  0.87583671  1
  Fe  Fe90  1  0.53693823  0.19409132  0.55141373  1
  Fe  Fe91  1  0.03652354  0.19537400  0.21637264  1
  Fe  Fe92  1  0.80859418  0.96333416  0.28767172  1
  Fe  Fe93  1  0.31200206  0.46213022  0.28959518  1
  Fe  Fe94  1  0.80493349  0.47082248  0.62094204  1
  Fe  Fe95  1  0.80361224  0.46692227  0.28403566  1
  Fe  Fe96  1  0.30338858  0.46110545  0.95652548  1
  Fe  Fe97  1  0.30965352  0.96460067  0.95328010  1
  Fe  Fe98  1  0.80513029  0.96732691  0.95134950  1
  Fe  Fe99  1  0.31547586  0.46415023  0.62520945  1
  Fe  Fe100  1  0.30558892  0.96394504  0.28305407  1
  Fe  Fe101  1  0.79857976  0.47184277  0.95465458  1
  S  S102  1  0.36287303  0.13792234  0.08508636  1
  S  S103  1  0.36203856  0.13811771  0.41674998  1
  S  S104  1  0.36389704  0.14279039  0.75146798  1
  S  S105  1  0.36123305  0.63841159  0.08127085  1
  S  S106  1  0.35815149  0.63895315  0.41607276  1
  S  S107  1  0.35631951  0.64150632  0.74919161  1
  S  S108  1  0.86122297  0.14212179  0.08301152  1
  S  S109  1  0.85490875  0.13995534  0.41763423  1
  S  S110  1  0.85887498  0.13839677  0.75322975  1
  S  S111  1  0.85920761  0.64501964  0.08541634  1
  S  S112  1  0.85895689  0.64199399  0.41403280  1
  S  S113  1  0.85377776  0.64706142  0.74630773  1
  S  S114  1  0.14335620  0.35768760  0.25090613  1
  S  S115  1  0.14857791  0.35708674  0.58193940  1
  S  S116  1  0.14073882  0.35642294  0.91973914  1
  S  S117  1  0.14184568  0.85930024  0.24850802  1
  S  S118  1  0.13907819  0.85730472  0.58184678  1
  S  S119  1  0.14373177  0.85870126  0.91692750  1
  S  S120  1  0.64233857  0.35644721  0.25169350  1
  S  S121  1  0.63856384  0.36212381  0.58226070  1
  S  S122  1  0.63503377  0.36027274  0.91727183  1
  S  S123  1  0.63626697  0.86305130  0.24929846  1
  S  S124  1  0.63541714  0.85965494  0.58281578  1
  S  S125  1  0.63872662  0.86035844  0.91821114  1
  S  S126  1  0.06896288  0.17151136  0.03943391  1
  S  S127  1  0.06872010  0.15957611  0.37097684  1
  S  S128  1  0.06674745  0.15472060  0.71094315  1
  S  S129  1  0.05753752  0.66640910  0.04308843  1
  S  S130  1  0.06895986  0.67256710  0.37716169  1
  S  S131  1  0.06603546  0.66753030  0.70533162  1
  S  S132  1  0.56995900  0.17021541  0.04402052  1
  S  S133  1  0.56861349  0.16813026  0.37660438  1
  S  S134  1  0.56993982  0.16779132  0.70895295  1
  S  S135  1  0.56952812  0.67797017  0.04670044  1
  S  S136  1  0.56717024  0.67672628  0.37900326  1
  S  S137  1  0.56458360  0.67112431  0.70833745  1
  S  S138  1  0.33288972  0.42575862  0.12624345  1
  S  S139  1  0.33108710  0.43246957  0.46004356  1
  S  S140  1  0.32452868  0.42970400  0.78888823  1
  S  S141  1  0.32638513  0.92812953  0.12083274  1
  S  S142  1  0.33546413  0.93584238  0.45671812  1
  S  S143  1  0.33546773  0.93424977  0.79403736  1
  S  S144  1  0.83089418  0.43268506  0.12310342  1
  S  S145  1  0.82777262  0.44290320  0.45355808  1
  S  S146  1  0.83272017  0.44764360  0.79676339  1
  S  S147  1  0.83122499  0.93467538  0.12412453  1
  S  S148  1  0.83356348  0.93919311  0.46011073  1
  S  S149  1  0.83042740  0.92933628  0.79294023  1
  S  S150  1  0.43419439  0.32529011  0.29017548  1
  S  S151  1  0.43422728  0.32685798  0.62225009  1
  S  S152  1  0.43248945  0.32627375  0.95937868  1
  S  S153  1  0.43099660  0.83104409  0.28927012  1
  S  S154  1  0.43638331  0.83129262  0.62341823  1
  S  S155  1  0.43154264  0.82757149  0.95405943  1
  S  S156  1  0.93537413  0.33193781  0.29014627  1
  S  S157  1  0.92119615  0.34098708  0.62908873  1
  S  S158  1  0.93068499  0.33436614  0.96226513  1
  S  S159  1  0.93498616  0.83227917  0.28940153  1
  S  S160  1  0.93756069  0.83303832  0.62413431  1
  S  S161  1  0.93389494  0.84091736  0.95931120  1
  S  S162  1  0.16845827  0.06485955  0.20418787  1
  S  S163  1  0.17213675  0.06253504  0.54606733  1
  S  S164  1  0.17025478  0.06019158  0.87522296  1
  S  S165  1  0.17047160  0.56559927  0.21159170  1
  S  S166  1  0.17036850  0.56932442  0.54070316  1
  S  S167  1  0.16937536  0.55653304  0.87166092  1
  S  S168  1  0.67384788  0.06945794  0.21122336  1
  S  S169  1  0.66596694  0.06929794  0.54473810  1
  S  S170  1  0.66597459  0.06481027  0.87645136  1
  S  S171  1  0.66635317  0.56244166  0.20838961  1
  S  S172  1  0.66831370  0.56989475  0.54296897  1
  S  S173  1  0.67122868  0.57283270  0.87474718  1
  O  O174  1  0.37174753  0.21729839  0.07848375  1
  O  O175  1  0.37140883  0.21584229  0.40797118  1
  O  O176  1  0.37155276  0.22347749  0.74608593  1
  O  O177  1  0.37050182  0.71482161  0.06582412  1
  O  O178  1  0.36691842  0.71896012  0.40889084  1
  O  O179  1  0.36683488  0.71950120  0.73846011  1
  O  O180  1  0.86950034  0.22195234  0.07766328  1
  O  O181  1  0.85958650  0.21269349  0.40018066  1
  O  O182  1  0.86445809  0.21540137  0.74514116  1
  O  O183  1  0.87228994  0.72213008  0.07258077  1
  O  O184  1  0.87106636  0.72082780  0.40740912  1
  O  O185  1  0.86687729  0.72631423  0.73881018  1
  O  O186  1  0.28405683  0.12803079  0.09408788  1
  O  O187  1  0.28426700  0.12855076  0.42669776  1
  O  O188  1  0.28505717  0.13101726  0.75828820  1
  O  O189  1  0.28391222  0.63164054  0.08946230  1
  O  O190  1  0.27926874  0.63159370  0.42532669  1
  O  O191  1  0.27590846  0.63339719  0.75396726  1
  O  O192  1  0.78352761  0.13201837  0.09351380  1
  O  O193  1  0.77338511  0.12804674  0.42242948  1
  O  O194  1  0.78463750  0.12355311  0.76936271  1
  O  O195  1  0.78213573  0.64144975  0.09415499  1
  O  O196  1  0.78132771  0.63588556  0.42505378  1
  O  O197  1  0.77097112  0.64148101  0.74716794  1
  O  O198  1  0.13213348  0.27744452  0.25523053  1
  O  O199  1  0.14587530  0.28141015  0.59390606  1
  O  O200  1  0.12414895  0.27502737  0.92719801  1
  O  O201  1  0.13462937  0.77958978  0.25541654  1
  O  O202  1  0.12672689  0.77832341  0.59098115  1
  O  O203  1  0.13760078  0.78322940  0.92873921  1
  O  O204  1  0.63378606  0.27779112  0.26175629  1
  O  O205  1  0.63202855  0.28390541  0.59204764  1
  O  O206  1  0.62837190  0.27926192  0.92451571  1
  O  O207  1  0.62686080  0.78323989  0.25370340  1
  O  O208  1  0.62306135  0.78215868  0.59423181  1
  O  O209  1  0.63048857  0.78159204  0.92601986  1
  O  O210  1  0.22356138  0.36763911  0.24571871  1
  O  O211  1  0.23015246  0.37527152  0.57971783  1
  O  O212  1  0.22496646  0.35901740  0.92443621  1
  O  O213  1  0.21936754  0.86769791  0.23728854  1
  O  O214  1  0.21194703  0.86131605  0.56514728  1
  O  O215  1  0.22170139  0.87079320  0.90682113  1
  O  O216  1  0.72374765  0.36450664  0.24726460  1
  O  O217  1  0.71499153  0.37303918  0.57019537  1
  O  O218  1  0.71522321  0.37187405  0.91299962  1
  O  O219  1  0.71307635  0.87205668  0.23662075  1
  O  O220  1  0.71034132  0.86431211  0.57007693  1
  O  O221  1  0.71808090  0.87109647  0.91147739  1
  O  O222  1  0.42199123  0.12901196  0.15285814  1
  O  O223  1  0.42277182  0.12823336  0.48304417  1
  O  O224  1  0.42229052  0.13523631  0.82188035  1
  O  O225  1  0.42183839  0.63768101  0.15219939  1
  O  O226  1  0.41678561  0.63075072  0.48381466  1
  O  O227  1  0.41307504  0.63680358  0.81929641  1
  O  O228  1  0.92264773  0.13039736  0.14809737  1
  O  O229  1  0.91134098  0.13753964  0.48749556  1
  O  O230  1  0.92311536  0.13568771  0.82516513  1
  O  O231  1  0.91952982  0.63794892  0.15410481  1
  O  O232  1  0.91916046  0.63006754  0.48000409  1
  O  O233  1  0.90781048  0.63766801  0.81402837  1
  O  O234  1  0.36969036  0.07987934  0.01616514  1
  O  O235  1  0.36877907  0.07796992  0.34776573  1
  O  O236  1  0.37728368  0.08616207  0.68674911  1
  O  O237  1  0.37197478  0.57564510  0.01693039  1
  O  O238  1  0.36439111  0.58122207  0.34727667  1
  O  O239  1  0.36607342  0.58160098  0.68248427  1
  O  O240  1  0.86635164  0.08424073  0.01280958  1
  O  O241  1  0.86652723  0.07499529  0.35243973  1
  O  O242  1  0.86828185  0.07661989  0.68960929  1
  O  O243  1  0.86793146  0.58300230  0.01945882  1
  O  O244  1  0.86529493  0.58234907  0.34533305  1
  O  O245  1  0.86244601  0.58857639  0.67785634  1
  O  O246  1  0.08674580  0.36652632  0.18215133  1
  O  O247  1  0.09238312  0.35993621  0.51145117  1
  O  O248  1  0.09023896  0.36139342  0.84825998  1
  O  O249  1  0.08094318  0.87038234  0.18287912  1
  O  O250  1  0.07396713  0.86976058  0.51927797  1
  O  O251  1  0.08363246  0.86461489  0.84756300  1
  O  O252  1  0.58714853  0.35944584  0.18019257  1
  O  O253  1  0.57618373  0.36889021  0.51504193  1
  O  O254  1  0.57846079  0.36229108  0.84492381  1
  O  O255  1  0.57408710  0.87661431  0.18513185  1
  O  O256  1  0.57206220  0.87045862  0.51762592  1
  O  O257  1  0.57998916  0.86798366  0.84967743  1
  O  O258  1  0.13477808  0.41483740  0.31945348  1
  O  O259  1  0.13253583  0.41832928  0.64587212  1
  O  O260  1  0.12650287  0.41449957  0.98347892  1
  O  O261  1  0.13581869  0.91689649  0.31816583  1
  O  O262  1  0.13947639  0.91547513  0.65395188  1
  O  O263  1  0.13255825  0.92161420  0.98203771  1
  O  O264  1  0.63177203  0.41622602  0.31709442  1
  O  O265  1  0.63101097  0.42216793  0.65003173  1
  O  O266  1  0.62143261  0.41647726  0.98166696  1
  O  O267  1  0.63171647  0.92059938  0.31998375  1
  O  O268  1  0.63035973  0.92052108  0.65204824  1
  O  O269  1  0.62923111  0.92014152  0.98552835  1
  O  O270  1  0.02920985  0.19941957  0.09789971  1
  O  O271  1  0.03333003  0.17591625  0.42973305  1
  O  O272  1  0.04039535  0.17342879  0.77972198  1
  O  O273  1  0.03051438  0.70794220  0.11128186  1
  O  O274  1  0.03270324  0.70482510  0.43780396  1
  O  O275  1  0.02902836  0.69668963  0.76433885  1
  O  O276  1  0.53312772  0.19867546  0.10468995  1
  O  O277  1  0.53194991  0.19793946  0.43714821  1
  O  O278  1  0.53420629  0.19690092  0.77033112  1
  O  O279  1  0.53078840  0.70958783  0.10679253  1
  O  O280  1  0.52699700  0.70451211  0.43828825  1
  O  O281  1  0.52747484  0.69887150  0.76930511  1
  O  O282  1  0.31226217  0.46308450  0.06767869  1
  O  O283  1  0.30224640  0.47021739  0.39960348  1
  O  O284  1  0.29889645  0.47418497  0.73264161  1
  O  O285  1  0.29836836  0.96566459  0.06075849  1
  O  O286  1  0.29984339  0.96538879  0.39029136  1
  O  O287  1  0.30798673  0.97021063  0.73456875  1
  O  O288  1  0.80462632  0.46658773  0.06215761  1
  O  O289  1  0.78851286  0.47858820  0.39305845  1
  O  O290  1  0.79652590  0.48360138  0.73459397  1
  O  O291  1  0.80118892  0.97232877  0.06368648  1
  O  O292  1  0.79489530  0.96318786  0.39059879  1
  O  O293  1  0.79629167  0.95914660  0.73015099  1
  O  O294  1  0.47479247  0.29753726  0.23149062  1
  O  O295  1  0.47146255  0.29515599  0.56117376  1
  O  O296  1  0.46848186  0.29771415  0.89780219  1
  O  O297  1  0.46416180  0.80009946  0.22662511  1
  O  O298  1  0.46576549  0.79043120  0.55914972  1
  O  O299  1  0.47026889  0.79763526  0.89423665  1
  O  O300  1  0.96899104  0.29988079  0.22558683  1
  O  O301  1  0.92704392  0.31906709  0.55275118  1
  O  O302  1  0.96694608  0.30567123  0.90123110  1
  O  O303  1  0.97346312  0.80354602  0.22954887  1
  O  O304  1  0.96709564  0.79263656  0.55935747  1
  O  O305  1  0.96830252  0.81841557  0.89857425  1
  O  O306  1  0.19971289  0.02968821  0.26587487  1
  O  O307  1  0.20865668  0.02791783  0.60530976  1
  O  O308  1  0.20640173  0.02818731  0.93997121  1
  O  O309  1  0.20058040  0.53147902  0.27555250  1
  O  O310  1  0.19790413  0.53492289  0.60249274  1
  O  O311  1  0.20493857  0.52015721  0.93019357  1
  O  O312  1  0.70137697  0.03137846  0.27075377  1
  O  O313  1  0.68803077  0.03467645  0.60523890  1
  O  O314  1  0.69714939  0.02862607  0.93842451  1
  O  O315  1  0.70027253  0.52878958  0.27273935  1
  O  O316  1  0.69959467  0.53168658  0.60260997  1
  O  O317  1  0.70035265  0.53733039  0.93432202  1
  O  O318  1  0.08009497  0.08667607  0.03066105  1
  O  O319  1  0.08865600  0.07500707  0.35442416  1
  O  O320  1  0.09428282  0.07429356  0.70207458  1
  O  O321  1  0.06306074  0.58451616  0.04047817  1
  O  O322  1  0.08659761  0.59188477  0.37539835  1
  O  O323  1  0.08528621  0.58659826  0.70165013  1
  O  O324  1  0.58935443  0.08874519  0.03870026  1
  O  O325  1  0.58419048  0.08496607  0.37038702  1
  O  O326  1  0.59006396  0.08668917  0.70534853  1
  O  O327  1  0.59360682  0.60241259  0.04846471  1
  O  O328  1  0.58877023  0.59784869  0.37788795  1
  O  O329  1  0.58487599  0.59026623  0.70171159  1
  O  O330  1  0.41468142  0.40563655  0.13912612  1
  O  O331  1  0.41248610  0.41288559  0.46411185  1
  O  O332  1  0.40338011  0.40808314  0.78875997  1
  O  O333  1  0.40842776  0.91065641  0.12788793  1
  O  O334  1  0.41650582  0.91594085  0.45545778  1
  O  O335  1  0.41857493  0.91611896  0.79946149  1
  O  O336  1  0.91432165  0.41723987  0.13454134  1
  O  O337  1  0.90820476  0.43445128  0.45266423  1
  O  O338  1  0.91587431  0.44420020  0.80561715  1
  O  O339  1  0.91374469  0.91857074  0.12857417  1
  O  O340  1  0.91360512  0.91763069  0.45726423  1
  O  O341  1  0.91217288  0.91131107  0.79608557  1
  O  O342  1  0.41327876  0.40461079  0.29506969  1
  O  O343  1  0.41905461  0.40837659  0.62429879  1
  O  O344  1  0.41032834  0.40583056  0.96238958  1
  O  O345  1  0.41450914  0.91374001  0.29402044  1
  O  O346  1  0.43063830  0.91302867  0.62608997  1
  O  O347  1  0.41408326  0.90861851  0.95631830  1
  O  O348  1  0.90888827  0.41007800  0.28945759  1
  O  O349  1  0.90754081  0.42862694  0.64913003  1
  O  O350  1  0.90896274  0.41409682  0.96518194  1
  O  O351  1  0.91928160  0.91497104  0.29382914  1
  O  O352  1  0.93425412  0.91544532  0.62932739  1
  O  O353  1  0.91600689  0.92502679  0.97123030  1
  O  O354  1  0.08666802  0.08311359  0.20046448  1
  O  O355  1  0.09001348  0.07200238  0.54082846  1
  O  O356  1  0.08627672  0.06469818  0.86788268  1
  O  O357  1  0.09208481  0.59202563  0.21186069  1
  O  O358  1  0.08760840  0.58611661  0.53021112  1
  O  O359  1  0.08966104  0.57188989  0.87195103  1
  O  O360  1  0.59252189  0.08813017  0.20684367  1
  O  O361  1  0.58075280  0.08498236  0.53072522  1
  O  O362  1  0.58244241  0.07755437  0.86943343  1
  O  O363  1  0.59149862  0.59209444  0.21524578  1
  O  O364  1  0.58742771  0.58664644  0.54251525  1
  O  O365  1  0.59230883  0.59632081  0.87276952  1
  O  O366  1  0.14410051  0.21889871  0.06095211  1
  O  O367  1  0.13964048  0.21214275  0.38789313  1
  O  O368  1  0.12987578  0.21328266  0.72285600  1
  O  O369  1  0.13527896  0.71024342  0.05995611  1
  O  O370  1  0.14095533  0.72421655  0.39254661  1
  O  O371  1  0.13787151  0.72024843  0.72149097  1
  O  O372  1  0.64074041  0.22279856  0.06012753  1
  O  O373  1  0.63948076  0.21959268  0.39189696  1
  O  O374  1  0.63750224  0.22122287  0.71990852  1
  O  O375  1  0.63735825  0.73596409  0.06331328  1
  O  O376  1  0.63595339  0.73240276  0.39724757  1
  O  O377  1  0.63387797  0.72606445  0.72560760  1
  O  O378  1  0.27803074  0.35461217  0.10702995  1
  O  O379  1  0.27852257  0.36347449  0.44592369  1
  O  O380  1  0.26794393  0.36122450  0.76806110  1
  O  O381  1  0.27431592  0.85707894  0.10429696  1
  O  O382  1  0.28572212  0.86403886  0.44443806  1
  O  O383  1  0.28498897  0.86282384  0.78040771  1
  O  O384  1  0.78020828  0.35878109  0.10563227  1
  O  O385  1  0.78041955  0.36789725  0.43694189  1
  O  O386  1  0.78618750  0.37236842  0.77745683  1
  O  O387  1  0.78000203  0.86319603  0.10697722  1
  O  O388  1  0.78448752  0.87074935  0.45428072  1
  O  O389  1  0.78068413  0.85902242  0.78532775  1
  O  O390  1  0.36530056  0.26919230  0.27096237  1
  O  O391  1  0.36228500  0.27576823  0.60479883  1
  O  O392  1  0.36628584  0.27085561  0.94760259  1
  O  O393  1  0.35951800  0.78108104  0.27666916  1
  O  O394  1  0.36152336  0.78731288  0.61249386  1
  O  O395  1  0.36062528  0.77534156  0.93693980  1
  O  O396  1  0.86645461  0.27575498  0.27420134  1
  O  O397  1  0.85093942  0.29390316  0.62624317  1
  O  O398  1  0.86401523  0.27868698  0.94937272  1
  O  O399  1  0.86270631  0.78194816  0.27132720  1
  O  O400  1  0.86094147  0.78945016  0.60925543  1
  O  O401  1  0.86283706  0.78943924  0.94429420  1
  O  O402  1  0.21979645  0.13402858  0.21583596  1
  O  O403  1  0.21956278  0.13714792  0.56037866  1
  O  O404  1  0.21453400  0.13593760  0.89229307  1
  O  O405  1  0.22703779  0.63487265  0.22827594  1
  O  O406  1  0.22251252  0.64143255  0.55765411  1
  O  O407  1  0.21987703  0.63000501  0.88660171  1
  O  O408  1  0.72635576  0.13991728  0.22651833  1
  O  O409  1  0.71629703  0.14134373  0.56109433  1
  O  O410  1  0.71490260  0.13809845  0.89522147  1
  O  O411  1  0.72318965  0.62681459  0.21807457  1
  O  O412  1  0.71939858  0.64183337  0.55914556  1
  O  O413  1  0.72524607  0.64286997  0.88743810  1
  O  O414  1  0.49552739  0.33384038  0.03225167  1
  O  O415  1  0.49272247  0.32678049  0.36316941  1
  O  O416  1  0.49226483  0.32842626  0.69452390  1
  O  O417  1  0.48971834  0.83213797  0.02766326  1
  O  O418  1  0.49206647  0.83474555  0.36122485  1
  O  O419  1  0.49477601  0.82971496  0.69594591  1
  O  O420  1  0.99295859  0.34129932  0.03573970  1
  O  O421  1  0.99693887  0.34060266  0.36043841  1
  O  O422  1  0.99179342  0.33612159  0.68653572  1
  O  O423  1  0.99414869  0.84217080  0.03170786  1
  O  O424  1  0.99299157  0.83338844  0.36208435  1
  O  O425  1  0.99439870  0.82695608  0.69513268  1
  O  O426  1  0.16135211  0.00328513  0.13056672  1
  O  O427  1  0.17310326  0.00680754  0.47114117  1
  O  O428  1  0.17814181  0.00298546  0.80589338  1
  O  O429  1  0.16201763  0.50538483  0.14084652  1
  O  O430  1  0.17116339  0.50967608  0.46925798  1
  O  O431  1  0.16506584  0.50129467  0.79575209  1
  O  O432  1  0.67099659  0.01024498  0.13811911  1
  O  O433  1  0.66679655  0.00908616  0.47305488  1
  O  O434  1  0.66849604  0.00660614  0.80551909  1
  O  O435  1  0.65024636  0.49816062  0.13782090  1
  O  O436  1  0.66447294  0.51216830  0.46950540  1
  O  O437  1  0.66366005  0.51312636  0.80016880  1
  O  O438  1  0.00943938  0.16122161  0.29805752  1
  O  O439  1  -0.00144761  0.14589771  0.64513026  1
  O  O440  1  0.01467680  0.17502515  0.96616316  1
  O  O441  1  0.01003006  0.67048172  0.30486986  1
  O  O442  1  0.00820461  0.66359107  0.63100002  1
  O  O443  1  0.00098149  0.67425286  0.97598133  1
  O  O444  1  0.50888184  0.16373993  0.30299668  1
  O  O445  1  0.50717922  0.16052122  0.63562606  1
  O  O446  1  0.51028692  0.16631262  0.97129718  1
  O  O447  1  0.50815991  0.67287508  0.30610092  1
  O  O448  1  0.50427257  0.66744416  0.63582244  1
  O  O449  1  0.50975309  0.67297584  0.97307930  1
  O  O450  1  0.32951392  0.48391400  0.19789931  1
  O  O451  1  0.33799977  0.49376121  0.53372242  1
  O  O452  1  0.33032294  0.48533475  0.86405249  1
  O  O453  1  0.32862230  0.98859434  0.19320731  1
  O  O454  1  0.34410174  0.99799654  0.52630879  1
  O  O455  1  0.34191866  0.99356831  0.86869014  1
  O  O456  1  0.82591453  0.49031230  0.19380311  1
  O  O457  1  0.82824208  0.49737238  0.52780564  1
  O  O458  1  0.82491315  0.50228262  0.86809352  1
  O  O459  1  0.83419483  0.99305643  0.19732173  1
  O  O460  1  0.84434857  1.00606277  0.52720890  1
  O  O461  1  0.83641488  0.99216574  0.86591796  1
