# generated using pymatgen
data_Na31Fe20(SO4)36
_symmetry_space_group_name_H-M   'P 1'
_cell_length_a   18.07669701
_cell_length_b   18.08315416
_cell_length_c   19.71775895
_cell_angle_alpha   107.59845785
_cell_angle_beta   107.58614856
_cell_angle_gamma   90.70771236
_symmetry_Int_Tables_number   1
_chemical_formula_structural   Na31Fe20(SO4)36
_chemical_formula_sum   'Na62 Fe40 S72 O288'
_cell_volume   5818.35812155
_cell_formula_units_Z   2
loop_
 _symmetry_equiv_pos_site_id
 _symmetry_equiv_pos_as_xyz
  1  'x, y, z'
loop_
 _atom_site_type_symbol
 _atom_site_label
 _atom_site_symmetry_multiplicity
 _atom_site_fract_x
 _atom_site_fract_y
 _atom_site_fract_z
 _atom_site_occupancy
  Na  Na0  1  0.11653462  0.36928249  0.07640716  1
  Na  Na1  1  0.14422512  0.36561117  0.42139154  1
  Na  Na2  1  0.13027212  0.36811903  0.75089812  1
  Na  Na3  1  0.14816466  0.86757676  0.09682966  1
  Na  Na4  1  0.13765926  0.86400257  0.41063018  1
  Na  Na5  1  0.13701129  0.86172046  0.74791147  1
  Na  Na6  1  0.63412444  0.37313644  0.08816306  1
  Na  Na7  1  0.63177793  0.35314079  0.39806175  1
  Na  Na8  1  0.62527524  0.37176251  0.74767532  1
  Na  Na9  1  0.64123044  0.86403615  0.09128085  1
  Na  Na10  1  0.63579968  0.85852134  0.41166996  1
  Na  Na11  1  0.63130377  0.86655310  0.74807110  1
  Na  Na12  1  0.36948534  0.13774476  0.25390345  1
  Na  Na13  1  0.35628890  0.12329998  0.56802652  1
  Na  Na14  1  0.36393461  0.12892639  0.91210657  1
  Na  Na15  1  0.36359007  0.66441179  0.27115582  1
  Na  Na16  1  0.35256459  0.62465066  0.56331685  1
  Na  Na17  1  0.35963211  0.63114641  0.91569003  1
  Na  Na18  1  0.86470748  0.13999217  0.25525969  1
  Na  Na19  1  0.86814580  0.15075548  0.58393244  1
  Na  Na20  1  0.86461383  0.13842068  0.92471764  1
  Na  Na21  1  0.86637633  0.63872312  0.24804883  1
  Na  Na22  1  0.86281780  0.63273761  0.58369531  1
  Na  Na23  1  0.87548861  0.63084165  0.92283381  1
  Na  Na24  1  0.51172382  -0.03626085  0.46855458  1
  Na  Na25  1  0.99070552  0.01430071  0.74676368  1
  Na  Na26  1  0.49777261  0.52204389  0.39847423  1
  Na  Na27  1  1.02238698  0.48629570  0.40161310  1
  Na  Na28  1  0.49270289  0.04923716  0.10262327  1
  Na  Na29  1  0.48824329  0.01473169  0.72913410  1
  Na  Na30  1  1.00502041  0.04378345  0.42342845  1
  Na  Na31  1  0.96137905  0.50874998  0.75598902  1
  Na  Na32  1  0.98579162  0.01853585  0.08744145  1
  Na  Na33  1  0.06128877  0.99496494  0.26581302  1
  Na  Na34  1  0.00905530  0.98577660  0.91298440  1
  Na  Na35  1  -0.00925416  1.02165628  0.57520202  1
  Na  Na36  1  0.50351765  1.00426198  0.26260130  1
  Na  Na37  1  0.46207737  0.51030069  0.97101033  1
  Na  Na38  1  -0.00364616  0.48582445  0.58139570  1
  Na  Na39  1  0.51268508  0.98997907  0.91549746  1
  Na  Na40  1  0.02747288  0.47698699  0.22613354  1
  Na  Na41  1  0.50525015  0.48216728  0.59757416  1
  Na  Na42  1  0.76125019  0.26219596  0.00284426  1
  Na  Na43  1  0.24806726  0.24354436  0.33365673  1
  Na  Na44  1  0.24226258  0.73869077  0.01618232  1
  Na  Na45  1  0.25592591  0.75079953  0.65585714  1
  Na  Na46  1  0.25630757  0.26131000  -0.00746621  1
  Na  Na47  1  0.75595935  0.75759785  0.32168776  1
  Na  Na48  1  0.74158168  0.74580691  0.67148530  1
  Na  Na49  1  0.74355153  0.73907324  0.01760495  1
  Na  Na50  1  0.24068126  0.24468087  0.66564213  1
  Na  Na51  1  0.75996915  0.27128028  0.65506592  1
  Na  Na52  1  0.73385861  0.24174546  0.18751232  1
  Na  Na53  1  0.24502970  0.74181265  0.83909176  1
  Na  Na54  1  0.25824796  0.26434111  0.83044087  1
  Na  Na55  1  0.76269972  0.26792786  0.48392682  1
  Na  Na56  1  0.75460668  0.26121833  0.82639326  1
  Na  Na57  1  0.74760274  0.74732403  0.50190846  1
  Na  Na58  1  0.26490023  0.74889625  0.46686040  1
  Na  Na59  1  0.24371977  0.25400737  0.16260675  1
  Na  Na60  1  0.74516353  0.74081052  0.84221485  1
  Na  Na61  1  0.22860115  0.22971837  0.50112165  1
  Fe  Fe62  1  0.46196555  0.81213473  0.12075125  1
  Fe  Fe63  1  0.46437477  0.80437302  0.78538411  1
  Fe  Fe64  1  0.96599842  0.30994964  0.78750582  1
  Fe  Fe65  1  0.96774359  0.80536486  0.44885162  1
  Fe  Fe66  1  0.96601458  0.30516766  0.45392295  1
  Fe  Fe67  1  0.97021851  0.80724656  0.12107524  1
  Fe  Fe68  1  0.96612216  0.80665177  0.78271294  1
  Fe  Fe69  1  0.46610755  0.30113838  0.45053153  1
  Fe  Fe70  1  0.46327880  0.30856277  0.78977370  1
  Fe  Fe71  1  0.46646826  0.30627670  0.12495060  1
  Fe  Fe72  1  0.19884621  0.53159930  0.04411835  1
  Fe  Fe73  1  0.19303927  0.03441223  0.04593643  1
  Fe  Fe74  1  0.69831175  0.53274120  0.70827641  1
  Fe  Fe75  1  0.19007390  0.03323776  0.71123219  1
  Fe  Fe76  1  0.19351199  0.53243326  0.71563762  1
  Fe  Fe77  1  0.69451490  0.03687987  0.38207693  1
  Fe  Fe78  1  0.69175595  0.03816612  0.71387564  1
  Fe  Fe79  1  0.69334696  0.03178647  0.05347379  1
  Fe  Fe80  1  0.69340882  0.53400929  0.37607752  1
  Fe  Fe81  1  0.69264945  0.54120930  0.04913254  1
  Fe  Fe82  1  0.03537619  0.69392260  0.88211411  1
  Fe  Fe83  1  0.53042048  0.69602159  0.21348324  1
  Fe  Fe84  1  0.53324116  0.18959390  0.54748206  1
  Fe  Fe85  1  0.53491446  0.68777501  0.87755620  1
  Fe  Fe86  1  0.04170452  0.68410574  0.21111856  1
  Fe  Fe87  1  0.03117011  0.19623038  0.88538888  1
  Fe  Fe88  1  0.03592376  0.68617857  0.54194462  1
  Fe  Fe89  1  0.02938537  0.20009997  0.20917644  1
  Fe  Fe90  1  0.53736643  0.19167638  0.88263965  1
  Fe  Fe91  1  0.53109274  0.70052179  0.54096572  1
  Fe  Fe92  1  0.30101360  0.46604403  0.29276037  1
  Fe  Fe93  1  0.81284196  0.46630880  0.96042035  1
  Fe  Fe94  1  0.80693747  0.96334078  0.95273563  1
  Fe  Fe95  1  0.80661465  0.96557064  0.61676805  1
  Fe  Fe96  1  0.30934472  0.96581680  0.95287491  1
  Fe  Fe97  1  0.30466507  0.96156875  0.29074916  1
  Fe  Fe98  1  0.30284353  0.95935594  0.60837808  1
  Fe  Fe99  1  0.80828277  0.46574891  0.28399898  1
  Fe  Fe100  1  0.30835849  0.46485249  0.62122565  1
  Fe  Fe101  1  0.81146539  0.96408649  0.28502424  1
  S  S102  1  0.35402169  0.14248427  0.08076937  1
  S  S103  1  0.36015685  0.13733146  0.41561978  1
  S  S104  1  0.35968737  0.13722066  0.74942502  1
  S  S105  1  0.36150174  0.64198554  0.08336676  1
  S  S106  1  0.36395119  0.63264716  0.41674225  1
  S  S107  1  0.35869055  0.64027944  0.75018180  1
  S  S108  1  0.85462194  0.13838323  0.08362214  1
  S  S109  1  0.86168567  0.13773375  0.42043835  1
  S  S110  1  0.85937152  0.13980976  0.74670050  1
  S  S111  1  0.86329581  0.64428190  0.08285602  1
  S  S112  1  0.85933164  0.64243391  0.41685862  1
  S  S113  1  0.85989738  0.64608734  0.75101957  1
  S  S114  1  0.14179345  0.35679733  0.25105242  1
  S  S115  1  0.14081167  0.36168926  0.58181136  1
  S  S116  1  0.13905031  0.35965058  0.91968012  1
  S  S117  1  0.14291332  0.85295583  0.24733504  1
  S  S118  1  0.13994677  0.85490817  0.58405763  1
  S  S119  1  0.14163684  0.85922811  0.91395994  1
  S  S120  1  0.63959758  0.36227510  0.24693156  1
  S  S121  1  0.63547703  0.35853105  0.58451928  1
  S  S122  1  0.64016306  0.36069069  0.91884221  1
  S  S123  1  0.64068054  0.86258080  0.24983326  1
  S  S124  1  0.64397133  0.86469869  0.58632299  1
  S  S125  1  0.64080214  0.85875939  0.91623352  1
  S  S126  1  0.06160953  0.15796954  0.03711744  1
  S  S127  1  0.06450049  0.17512109  0.37184112  1
  S  S128  1  0.06499651  0.16776634  0.71316355  1
  S  S129  1  0.07461597  0.67205488  0.04266674  1
  S  S130  1  0.06194083  0.66468853  0.37271972  1
  S  S131  1  0.06630738  0.66983356  0.70895554  1
  S  S132  1  0.56541350  0.16410285  0.04136660  1
  S  S133  1  0.56803554  0.16719566  0.37930148  1
  S  S134  1  0.56621054  0.17073067  0.71175883  1
  S  S135  1  0.56547250  0.67367059  0.04075378  1
  S  S136  1  0.57490530  0.67444662  0.37567940  1
  S  S137  1  0.56923117  0.67239948  0.70778092  1
  S  S138  1  0.31715486  0.42389038  0.12357911  1
  S  S139  1  0.33489452  0.42693791  0.45930789  1
  S  S140  1  0.32964153  0.43276356  0.79106878  1
  S  S141  1  0.33176941  0.93783302  0.12233569  1
  S  S142  1  0.32993727  0.92604092  0.45660151  1
  S  S143  1  0.32997044  0.93131368  0.78904459  1
  S  S144  1  0.83004939  0.44140121  0.12437529  1
  S  S145  1  0.83225024  0.43815584  0.45716113  1
  S  S146  1  0.82596765  0.43398374  0.79292041  1
  S  S147  1  0.83508554  0.93228007  0.12418458  1
  S  S148  1  0.83291787  0.93174121  0.45788068  1
  S  S149  1  0.83279716  0.93583271  0.79172862  1
  S  S150  1  0.42633557  0.33033126  0.29138885  1
  S  S151  1  0.42563046  0.32318930  0.62241766  1
  S  S152  1  0.43053247  0.31801028  0.95450449  1
  S  S153  1  0.43996232  0.84385150  0.29247460  1
  S  S154  1  0.43102889  0.82624366  0.62576130  1
  S  S155  1  0.43458148  0.83244355  0.95722247  1
  S  S156  1  0.93279241  0.32996117  0.28999049  1
  S  S157  1  0.93669457  0.33705153  0.62550317  1
  S  S158  1  0.92667987  0.32303723  0.95309317  1
  S  S159  1  0.93609908  0.83602842  0.29402952  1
  S  S160  1  0.93478094  0.83345969  0.62371923  1
  S  S161  1  0.93685732  0.83346754  0.95786210  1
  S  S162  1  0.16961568  0.06614081  0.20478689  1
  S  S163  1  0.16606120  0.05850919  0.54420350  1
  S  S164  1  0.16660050  0.06438233  0.87378998  1
  S  S165  1  0.17642693  0.56563012  0.20751381  1
  S  S166  1  0.16535641  0.56309601  0.54417141  1
  S  S167  1  0.16565175  0.56831862  0.87538389  1
  S  S168  1  0.66994090  0.05969312  0.21198208  1
  S  S169  1  0.67513235  0.07014260  0.54664303  1
  S  S170  1  0.66861815  0.06483250  0.87606484  1
  S  S171  1  0.67241419  0.57549379  0.20992665  1
  S  S172  1  0.66826793  0.57252963  0.54024084  1
  S  S173  1  0.67743948  0.57135943  0.87816295  1
  O  O174  1  0.36545705  0.22135893  0.07380400  1
  O  O175  1  0.37480993  0.21445169  0.40352716  1
  O  O176  1  0.36628128  0.21816666  0.74522301  1
  O  O177  1  0.36833848  0.72272061  0.07662748  1
  O  O178  1  0.37302790  0.70715496  0.40462442  1
  O  O179  1  0.36654610  0.72052694  0.74390815  1
  O  O180  1  0.86130888  0.21303719  0.07168533  1
  O  O181  1  0.86914528  0.21850094  0.41730844  1
  O  O182  1  0.86837851  0.21737652  0.73637086  1
  O  O183  1  0.87588908  0.72145161  0.07076103  1
  O  O184  1  0.86637617  0.72186867  0.40845891  1
  O  O185  1  0.86820683  0.72717335  0.74527638  1
  O  O186  1  0.27137398  0.13380484  0.08109126  1
  O  O187  1  0.28625791  0.13628972  0.43122245  1
  O  O188  1  0.28209624  0.12700797  0.76035502  1
  O  O189  1  0.27757798  0.62770553  0.08014800  1
  O  O190  1  0.29242165  0.62099442  0.43418299  1
  O  O191  1  0.28093396  0.63104412  0.76115825  1
  O  O192  1  0.77692252  0.12562223  0.09448013  1
  O  O193  1  0.78216521  0.12761889  0.42880631  1
  O  O194  1  0.78082861  0.13224438  0.75628099  1
  O  O195  1  0.78218860  0.63905905  0.08627018  1
  O  O196  1  0.78108702  0.63178124  0.42570668  1
  O  O197  1  0.77896615  0.63665562  0.75504487  1
  O  O198  1  0.13400581  0.27269354  0.24849629  1
  O  O199  1  0.13672480  0.28263713  0.58614367  1
  O  O200  1  0.12130817  0.28592512  0.93580069  1
  O  O201  1  0.13140145  0.77252361  0.24954607  1
  O  O202  1  0.12645566  0.77720105  0.59416516  1
  O  O203  1  0.13361759  0.77852807  0.91778882  1
  O  O204  1  0.63565638  0.28625929  0.25728933  1
  O  O205  1  0.62031689  0.28426331  0.60065966  1
  O  O206  1  0.63238024  0.28234194  0.92964588  1
  O  O207  1  0.62971332  0.78476433  0.25926722  1
  O  O208  1  0.63148132  0.78631991  0.59490998  1
  O  O209  1  0.63316426  0.77794921  0.91968004  1
  O  O210  1  0.22732185  0.36825001  0.25449034  1
  O  O211  1  0.21766787  0.37653420  0.56979544  1
  O  O212  1  0.21714884  0.35918359  0.91263972  1
  O  O213  1  0.21849540  0.86523100  0.23441648  1
  O  O214  1  0.22081308  0.85942076  0.58004758  1
  O  O215  1  0.21929841  0.86988265  0.90380475  1
  O  O216  1  0.71622837  0.37701800  0.23406423  1
  O  O217  1  0.71352133  0.36133992  0.57803456  1
  O  O218  1  0.71999601  0.36963432  0.91239999  1
  O  O219  1  0.71916300  0.86969676  0.24104669  1
  O  O220  1  0.72733067  0.86953888  0.58463397  1
  O  O221  1  0.71870926  0.86955380  0.90574644  1
  O  O222  1  0.40801768  0.13196745  0.14823888  1
  O  O223  1  0.42392189  0.12685421  0.48027158  1
  O  O224  1  0.42123834  0.12583554  0.81465978  1
  O  O225  1  0.41338102  0.64016920  0.15704766  1
  O  O226  1  0.43158971  0.62167586  0.47947025  1
  O  O227  1  0.41907830  0.63324518  0.81754751  1
  O  O228  1  0.91562351  0.13006431  0.15075997  1
  O  O229  1  0.92046190  0.12290195  0.48367535  1
  O  O230  1  0.91861116  0.12985393  0.81375389  1
  O  O231  1  0.91960262  0.64108853  0.15399928  1
  O  O232  1  0.91842964  0.63822560  0.48673796  1
  O  O233  1  0.91601525  0.64132274  0.82288174  1
  O  O234  1  0.36465507  0.08355101  0.01238123  1
  O  O235  1  0.36029133  0.07697184  0.34494772  1
  O  O236  1  0.36705853  0.08075125  0.67983658  1
  O  O237  1  0.37767730  0.58605766  0.02001285  1
  O  O238  1  0.36782447  0.56846779  0.34637484  1
  O  O239  1  0.36421885  0.58308153  0.68047567  1
  O  O240  1  0.86260527  0.07499617  0.01611890  1
  O  O241  1  0.86760135  0.08203736  0.34870798  1
  O  O242  1  0.86750071  0.07920031  0.67909232  1
  O  O243  1  0.87309848  0.58245338  0.01794281  1
  O  O244  1  0.86863750  0.58385703  0.34989385  1
  O  O245  1  0.87331194  0.58850018  0.68738155  1
  O  O246  1  0.09167561  0.36821422  0.18222506  1
  O  O247  1  0.07875843  0.37407886  0.51730913  1
  O  O248  1  0.08084721  0.36572807  0.85026988  1
  O  O249  1  0.08071086  0.86506659  0.18012850  1
  O  O250  1  0.08404529  0.86248394  0.51471821  1
  O  O251  1  0.08053345  0.87017396  0.84785929  1
  O  O252  1  0.57794282  0.36774589  0.17853825  1
  O  O253  1  0.57595051  0.36513363  0.51572910  1
  O  O254  1  0.58212373  0.36335517  0.84802951  1
  O  O255  1  0.58074063  0.87102208  0.18239882  1
  O  O256  1  0.59173907  0.87510366  0.51857964  1
  O  O257  1  0.57990190  0.87087853  0.85118570  1
  O  O258  1  0.12767710  0.40855797  0.31793957  1
  O  O259  1  0.13402065  0.41897473  0.65232623  1
  O  O260  1  0.13335264  0.42535849  0.98544362  1
  O  O261  1  0.13548597  0.91011466  0.31481205  1
  O  O262  1  0.13138491  0.91552897  0.65120522  1
  O  O263  1  0.13454648  0.91562915  0.98340161  1
  O  O264  1  0.63210036  0.42408346  0.31440040  1
  O  O265  1  0.62653331  0.42364574  0.64997811  1
  O  O266  1  0.63026407  0.42169563  0.98437922  1
  O  O267  1  0.63422712  0.92335721  0.31822118  1
  O  O268  1  0.63697777  0.92351153  0.65564124  1
  O  O269  1  0.63465224  0.91500357  0.98659751  1
  O  O270  1  0.02511284  0.17959673  0.09635422  1
  O  O271  1  0.02738184  0.20728071  0.43051463  1
  O  O272  1  0.03656593  0.20176862  0.77981588  1
  O  O273  1  0.03499131  0.69598125  0.10171539  1
  O  O274  1  0.02542810  0.70054200  0.43483366  1
  O  O275  1  0.02890940  0.70060818  0.76968465  1
  O  O276  1  0.52590537  0.19253236  0.09795324  1
  O  O277  1  0.53809490  0.20164501  0.44547094  1
  O  O278  1  0.52859091  0.20073219  0.77212365  1
  O  O279  1  0.53033946  0.70384123  0.10231844  1
  O  O280  1  0.54689470  0.70372939  0.44054589  1
  O  O281  1  0.53085038  0.69947825  0.76832169  1
  O  O282  1  0.29182634  0.47191198  0.07218691  1
  O  O283  1  0.30978388  0.46160993  0.39833127  1
  O  O284  1  0.29864057  0.46752749  0.72766622  1
  O  O285  1  0.30123292  0.97402192  0.05996947  1
  O  O286  1  0.30671998  0.96124665  0.39550145  1
  O  O287  1  0.30144266  0.96712548  0.72825118  1
  O  O288  1  0.79407477  0.48027578  0.06427602  1
  O  O289  1  0.80050651  0.46890940  0.39090458  1
  O  O290  1  0.79940192  0.47372576  0.73557957  1
  O  O291  1  0.79973615  0.96577793  0.06128691  1
  O  O292  1  0.80209877  0.96473518  0.39518350  1
  O  O293  1  0.80350915  0.97401621  0.73271234  1
  O  O294  1  0.46037024  0.31328935  0.23045918  1
  O  O295  1  0.45991276  0.29123151  0.56029902  1
  O  O296  1  0.47127082  0.28853790  0.89490465  1
  O  O297  1  0.47008650  0.80454867  0.22625292  1
  O  O298  1  0.46888269  0.80000194  0.56789608  1
  O  O299  1  0.47241405  0.80081691  0.89723531  1
  O  O300  1  0.96983877  0.30160218  0.23101100  1
  O  O301  1  0.97040641  0.30607637  0.56453724  1
  O  O302  1  0.95804179  0.29272167  0.88651114  1
  O  O303  1  0.96885056  0.80576951  0.23113195  1
  O  O304  1  0.96868160  0.80380012  0.56189902  1
  O  O305  1  0.97337335  0.80466408  0.89659580  1
  O  O306  1  0.19563040  0.02832159  0.26314216  1
  O  O307  1  0.20462734  0.02404489  0.60815124  1
  O  O308  1  0.19802350  0.02787020  0.93438581  1
  O  O309  1  0.20318628  0.52015650  0.26129471  1
  O  O310  1  0.19979571  0.53582382  0.61148219  1
  O  O311  1  0.18719942  0.53359669  0.93649755  1
  O  O312  1  0.71089428  0.02745596  0.27453928  1
  O  O313  1  0.70514799  0.03245270  0.60734619  1
  O  O314  1  0.69522608  0.02854752  0.93730334  1
  O  O315  1  0.70219115  0.53757855  0.26984935  1
  O  O316  1  0.69003592  0.53715514  0.60067034  1
  O  O317  1  0.70433465  0.53161289  0.93695593  1
  O  O318  1  0.08042881  0.07436474  0.02636869  1
  O  O319  1  0.08134347  0.09524743  0.37087336  1
  O  O320  1  0.08461100  0.08580587  0.71187044  1
  O  O321  1  0.10304981  0.59499467  0.03976431  1
  O  O322  1  0.06634694  0.58170591  0.36436098  1
  O  O323  1  0.08263097  0.58788972  0.70325241  1
  O  O324  1  0.58344274  0.08098784  0.03850935  1
  O  O325  1  0.59169926  0.08785021  0.38119309  1
  O  O326  1  0.58665158  0.09047912  0.71192813  1
  O  O327  1  0.58590114  0.59290977  0.03659135  1
  O  O328  1  0.58952231  0.59085262  0.36477679  1
  O  O329  1  0.59054183  0.59210681  0.70238297  1
  O  O330  1  0.39248831  0.39752195  0.11849831  1
  O  O331  1  0.41858374  0.41063893  0.47263272  1
  O  O332  1  0.40659916  0.40531234  0.78876237  1
  O  O333  1  0.41551572  0.92552311  0.12902002  1
  O  O334  1  0.40727402  0.90041950  0.46710941  1
  O  O335  1  0.41313944  0.91548407  0.79820846  1
  O  O336  1  0.90935990  0.42794967  0.12583214  1
  O  O337  1  0.90994543  0.40933005  0.45558793  1
  O  O338  1  0.90533265  0.41106925  0.79363433  1
  O  O339  1  0.91710917  0.91822809  0.12616660  1
  O  O340  1  0.91466335  0.91326096  0.46361167  1
  O  O341  1  0.91497843  0.91791662  0.79479167  1
  O  O342  1  0.40399456  0.41260512  0.30863878  1
  O  O343  1  0.41110153  0.40551357  0.62704995  1
  O  O344  1  0.40722095  0.39422987  0.95409069  1
  O  O345  1  0.41501694  0.92080043  0.28405199  1
  O  O346  1  0.40799327  0.90691077  0.63240258  1
  O  O347  1  0.41946733  0.91491090  0.96039428  1
  O  O348  1  0.91372141  0.41197521  0.29406200  1
  O  O349  1  0.92868742  0.42087937  0.63830039  1
  O  O350  1  0.90494103  0.40241058  0.95576544  1
  O  O351  1  0.92039820  0.91941604  0.30153955  1
  O  O352  1  0.91743885  0.91624626  0.63026419  1
  O  O353  1  0.92148604  0.91691773  0.96413067  1
  O  O354  1  0.08798792  0.08686513  0.19979859  1
  O  O355  1  0.08818584  0.07669229  0.54935516  1
  O  O356  1  0.08352887  0.07836059  0.86844096  1
  O  O357  1  0.09472084  0.58157699  0.20663034  1
  O  O358  1  0.08224784  0.58004196  0.54092313  1
  O  O359  1  0.08279436  0.58703662  0.85947580  1
  O  O360  1  0.58918783  0.06717591  0.21194666  1
  O  O361  1  0.59358641  0.08628471  0.54248226  1
  O  O362  1  0.58416017  0.07801068  0.86490157  1
  O  O363  1  0.59435462  0.59946379  0.20841123  1
  O  O364  1  0.58637688  0.59350042  0.52832939  1
  O  O365  1  0.59867037  0.59463595  0.87640943  1
  O  O366  1  0.13135301  0.21065868  0.05259706  1
  O  O367  1  0.13715370  0.22567149  0.38680157  1
  O  O368  1  0.13590136  0.21732400  0.72331706  1
  O  O369  1  0.13815086  0.73179607  0.05667793  1
  O  O370  1  0.13677879  0.71103496  0.39209385  1
  O  O371  1  0.13890700  0.72122897  0.72744309  1
  O  O372  1  0.63738421  0.21435985  0.05669627  1
  O  O373  1  0.63608247  0.21957956  0.38928945  1
  O  O374  1  0.63650640  0.22328646  0.72743909  1
  O  O375  1  0.63400734  0.72660605  0.05299335  1
  O  O376  1  0.64798359  0.72286177  0.38788788  1
  O  O377  1  0.64018216  0.72808231  0.72895029  1
  O  O378  1  0.25712507  0.35645827  0.10224334  1
  O  O379  1  0.28353202  0.35513716  0.44259253  1
  O  O380  1  0.27270615  0.36474635  0.77623724  1
  O  O381  1  0.28318310  0.86405065  0.10218561  1
  O  O382  1  0.26998060  0.86273982  0.44470936  1
  O  O383  1  0.27926700  0.85899999  0.77259686  1
  O  O384  1  0.77740003  0.36990754  0.10646471  1
  O  O385  1  0.77556201  0.37419159  0.44815308  1
  O  O386  1  0.77078707  0.36332624  0.77451004  1
  O  O387  1  0.78654778  0.86037732  0.11102974  1
  O  O388  1  0.78084855  0.86202003  0.44576045  1
  O  O389  1  0.78135175  0.86474550  0.77624674  1
  O  O390  1  0.35700720  0.27417568  0.27249744  1
  O  O391  1  0.35298582  0.27380033  0.60796887  1
  O  O392  1  0.36141031  0.26038169  0.93443307  1
  O  O393  1  0.37422480  0.79406507  0.28828325  1
  O  O394  1  0.36180251  0.77120044  0.61031974  1
  O  O395  1  0.36169339  0.78262863  0.93991882  1
  O  O396  1  0.86212815  0.27825967  0.27576258  1
  O  O397  1  0.86066201  0.28955120  0.60708385  1
  O  O398  1  0.85474053  0.26934657  0.93524080  1
  O  O399  1  0.86513561  0.78679331  0.28226964  1
  O  O400  1  0.86395771  0.78257585  0.61076877  1
  O  O401  1  0.86401346  0.78405811  0.94049721  1
  O  O402  1  0.22290524  0.13584602  0.21886739  1
  O  O403  1  0.21769451  0.13078440  0.56034413  1
  O  O404  1  0.21538731  0.13718133  0.88939126  1
  O  O405  1  0.22833753  0.63568746  0.22672656  1
  O  O406  1  0.21320947  0.63521217  0.55546197  1
  O  O407  1  0.21970293  0.64007665  0.89497343  1
  O  O408  1  0.71501140  0.13230253  0.22190168  1
  O  O409  1  0.72631851  0.14191301  0.56403624  1
  O  O410  1  0.71793175  0.13807990  0.89405982  1
  O  O411  1  0.72894672  0.64242189  0.22392946  1
  O  O412  1  0.72346010  0.64367502  0.55953839  1
  O  O413  1  0.73390743  0.64152307  0.89815403  1
  O  O414  1  0.48832544  0.31955299  0.02738759  1
  O  O415  1  0.48819146  0.32739721  0.36076882  1
  O  O416  1  0.48553755  0.32379143  0.69398145  1
  O  O417  1  0.49146652  0.83439397  0.03049981  1
  O  O418  1  0.50681148  0.86033242  0.36162853  1
  O  O419  1  0.49055238  0.83328570  0.70120474  1
  O  O420  1  0.98702188  0.32217525  0.02045288  1
  O  O421  1  0.99182378  0.33679231  0.36509628  1
  O  O422  1  0.99176881  0.32879574  0.69749759  1
  O  O423  1  0.99538629  0.83346583  0.02939842  1
  O  O424  1  0.99754794  0.83782815  0.36565113  1
  O  O425  1  0.99512581  0.83696438  0.69665018  1
  O  O426  1  0.16342668  0.00674943  0.12980503  1
  O  O427  1  0.15960148  0.00008146  0.47262412  1
  O  O428  1  0.16596370  0.00522440  0.80151056  1
  O  O429  1  0.16947020  0.51122210  0.12979937  1
  O  O430  1  0.16055152  0.50049545  0.47536882  1
  O  O431  1  0.17087368  0.50910261  0.80556617  1
  O  O432  1  0.66882121  -0.00037572  0.13891950  1
  O  O433  1  0.67423975  0.01014183  0.47518198  1
  O  O434  1  0.67209596  0.00673414  0.80499914  1
  O  O435  1  0.66575009  0.51493102  0.13621745  1
  O  O436  1  0.66971997  0.51372221  0.46865397  1
  O  O437  1  0.67325574  0.51521593  0.80395800  1
  O  O438  1  0.00742469  0.17093997  0.29677891  1
  O  O439  1  0.00090251  0.15961387  0.64435830  1
  O  O440  1  0.00160547  0.15508551  0.96372367  1
  O  O441  1  0.00643851  0.67236828  0.30159592  1
  O  O442  1  0.00823026  0.67047591  0.63713085  1
  O  O443  1  0.01255806  0.66475798  0.96929267  1
  O  O444  1  0.50359535  0.15529114  0.30967429  1
  O  O445  1  0.50746290  0.16377916  0.63810574  1
  O  O446  1  0.50921509  0.15491855  0.96421829  1
  O  O447  1  0.51277771  0.67895260  0.30746194  1
  O  O448  1  0.51180941  0.67142758  0.63559235  1
  O  O449  1  0.50379964  0.66729766  0.96759481  1
  O  O450  1  0.32624966  0.47547799  0.20181047  1
  O  O451  1  0.33277224  0.48711282  0.53055260  1
  O  O452  1  0.34041734  0.49426701  0.86242432  1
  O  O453  1  0.32844809  0.99501638  0.19283237  1
  O  O454  1  0.33143157  0.99093135  0.52851371  1
  O  O455  1  0.32979697  0.99027650  0.86142779  1
  O  O456  1  0.82957296  0.49872038  0.19764994  1
  O  O457  1  0.84737098  0.50330992  0.52691383  1
  O  O458  1  0.83194545  0.49033426  0.86790974  1
  O  O459  1  0.83725123  0.99261706  0.19583382  1
  O  O460  1  0.83809992  0.99389622  0.53024468  1
  O  O461  1  0.83806840  0.99370062  0.86616067  1
