# generated using pymatgen
data_Na31Fe20(SO4)36
_symmetry_space_group_name_H-M   'P 1'
_cell_length_a   18.07080400
_cell_length_b   18.07309515
_cell_length_c   19.69954230
_cell_angle_alpha   107.57571177
_cell_angle_beta   107.58716677
_cell_angle_gamma   90.69201681
_symmetry_Int_Tables_number   1
_chemical_formula_structural   Na31Fe20(SO4)36
_chemical_formula_sum   'Na62 Fe40 S72 O288'
_cell_volume   5808.84517262
_cell_formula_units_Z   2
loop_
 _symmetry_equiv_pos_site_id
 _symmetry_equiv_pos_as_xyz
  1  'x, y, z'
loop_
 _atom_site_type_symbol
 _atom_site_label
 _atom_site_symmetry_multiplicity
 _atom_site_fract_x
 _atom_site_fract_y
 _atom_site_fract_z
 _atom_site_occupancy
  Na  Na0  1  0.13006639  0.38003510  0.07826102  1
  Na  Na1  1  0.13229132  0.36604745  0.41586578  1
  Na  Na2  1  0.13528938  0.35869625  0.74401451  1
  Na  Na3  1  0.14882678  0.87209480  0.09752537  1
  Na  Na4  1  0.12544488  0.86838979  0.41475126  1
  Na  Na5  1  0.12948466  0.87013895  0.75050093  1
  Na  Na6  1  0.63442492  0.36405555  0.08454007  1
  Na  Na7  1  0.63914946  0.36251902  0.41813247  1
  Na  Na8  1  0.67051685  0.35667832  0.77343583  1
  Na  Na9  1  0.62083875  0.86049306  0.07796236  1
  Na  Na10  1  0.63313269  0.86943572  0.42013992  1
  Na  Na11  1  0.63528849  0.86221243  0.74997234  1
  Na  Na12  1  0.36242115  0.13749857  0.24905517  1
  Na  Na13  1  0.36422984  0.14142797  0.58958546  1
  Na  Na14  1  0.36703691  0.12990853  0.91521317  1
  Na  Na15  1  0.36276755  0.62420270  0.23701548  1
  Na  Na16  1  0.36545004  0.63263924  0.58081210  1
  Na  Na17  1  0.38165649  0.65027714  0.93432626  1
  Na  Na18  1  0.86488946  0.13343326  0.25186716  1
  Na  Na19  1  0.86481595  0.13839545  0.58870234  1
  Na  Na20  1  0.85559053  0.13472371  0.90573500  1
  Na  Na21  1  0.87072888  0.64504076  0.26430678  1
  Na  Na22  1  0.84385256  0.63122959  0.55716321  1
  Na  Na23  1  0.86502100  0.63823531  0.92191709  1
  Na  Na24  1  0.47929121  0.49974050  0.10190203  1
  Na  Na25  1  0.46003302  0.00754459  0.28542660  1
  Na  Na26  1  0.48951115  0.02083361  0.09872138  1
  Na  Na27  1  0.98655243  0.51745171  0.40997300  1
  Na  Na28  1  0.49162629  -0.00107454  0.76502740  1
  Na  Na29  1  0.98909410  0.00703859  0.08262137  1
  Na  Na30  1  0.49335795  0.54605484  0.75858725  1
  Na  Na31  1  0.54381274  0.48244229  0.35150811  1
  Na  Na32  1  0.99480903  0.51170962  0.75975501  1
  Na  Na33  1  0.00453753  0.50378787  0.22653734  1
  Na  Na34  1  0.00012104  0.95496828  0.56732311  1
  Na  Na35  1  0.51752320  0.50395620  0.91787380  1
  Na  Na36  1  0.51019544  0.99706137  0.57067572  1
  Na  Na37  1  -0.02117464  0.51188556  0.97023120  1
  Na  Na38  1  0.00601201  0.49396118  0.58297626  1
  Na  Na39  1  0.51538679  0.48868426  0.57576472  1
  Na  Na40  1  0.00740062  1.00362698  0.89652409  1
  Na  Na41  1  0.01053545  0.98091368  0.26958803  1
  Na  Na42  1  0.24880639  0.24747721  0.33589883  1
  Na  Na43  1  0.25198044  0.75204688  0.66315177  1
  Na  Na44  1  0.75938040  0.26965682  -0.01861002  1
  Na  Na45  1  0.26940657  0.75941910  0.00403207  1
  Na  Na46  1  0.25908403  0.76048438  0.32438714  1
  Na  Na47  1  0.75427793  0.75362406  0.65217943  1
  Na  Na48  1  0.25337158  0.25543053  -0.00510421  1
  Na  Na49  1  0.73203999  0.23449430  0.33633720  1
  Na  Na50  1  0.73827777  0.74077243  0.00545004  1
  Na  Na51  1  0.74943641  0.74222900  0.35990742  1
  Na  Na52  1  0.25424047  0.25771270  0.82158840  1
  Na  Na53  1  0.74585268  0.74249168  0.17408740  1
  Na  Na54  1  0.25417929  0.75648375  0.49329926  1
  Na  Na55  1  0.73640967  0.24193724  0.17063271  1
  Na  Na56  1  0.27031327  0.76200339  0.16413715  1
  Na  Na57  1  0.24369501  0.24239450  0.51196201  1
  Na  Na58  1  0.25180719  0.25663997  0.16370536  1
  Na  Na59  1  0.73817043  0.74025465  0.83834243  1
  Na  Na60  1  0.73843730  0.23918337  0.51110106  1
  Na  Na61  1  0.25289370  0.75301801  0.83235596  1
  Fe  Fe62  1  0.46178887  0.30918956  0.78672205  1
  Fe  Fe63  1  0.96254624  0.80748643  0.78397404  1
  Fe  Fe64  1  0.96458047  0.80910359  0.11906158  1
  Fe  Fe65  1  0.46949480  0.29988524  0.12730930  1
  Fe  Fe66  1  0.46479494  0.80550050  0.45106124  1
  Fe  Fe67  1  0.46740207  0.30478130  0.45499066  1
  Fe  Fe68  1  0.47031438  0.80200297  0.79249120  1
  Fe  Fe69  1  0.95974336  0.30899054  0.78403727  1
  Fe  Fe70  1  0.96233501  0.30583101  0.11254603  1
  Fe  Fe71  1  0.96459698  0.30396012  0.44906942  1
  Fe  Fe72  1  0.68534419  0.03412314  0.04628560  1
  Fe  Fe73  1  0.19187565  0.53528064  0.71433333  1
  Fe  Fe74  1  0.19240466  0.03630963  0.05071931  1
  Fe  Fe75  1  0.69826297  0.53119821  0.71719894  1
  Fe  Fe76  1  0.19141974  0.03629954  0.71263205  1
  Fe  Fe77  1  0.19208436  0.53502480  0.38039087  1
  Fe  Fe78  1  0.69221530  0.03976864  0.71645759  1
  Fe  Fe79  1  0.70554920  0.52965813  0.04415403  1
  Fe  Fe80  1  0.68627999  0.03189267  0.37677921  1
  Fe  Fe81  1  0.20255332  0.03201868  0.38029954  1
  Fe  Fe82  1  0.03265039  0.19167757  0.87565049  1
  Fe  Fe83  1  0.03487304  0.18724570  0.54482291  1
  Fe  Fe84  1  0.03586001  0.69721203  0.88540587  1
  Fe  Fe85  1  0.02891489  0.70090978  0.54459850  1
  Fe  Fe86  1  0.03070663  0.19615927  0.21323212  1
  Fe  Fe87  1  0.53263294  0.19372166  0.88332889  1
  Fe  Fe88  1  0.54018617  0.68660545  0.54087871  1
  Fe  Fe89  1  0.53604999  0.19169606  0.55127838  1
  Fe  Fe90  1  0.03596753  0.69472742  0.21465090  1
  Fe  Fe91  1  0.53803615  0.69552422  0.21185712  1
  Fe  Fe92  1  0.79806016  0.46925343  0.28780911  1
  Fe  Fe93  1  0.80733867  0.96527965  0.61665794  1
  Fe  Fe94  1  0.30649884  0.96427427  0.62076210  1
  Fe  Fe95  1  0.80359548  0.96706442  0.95145674  1
  Fe  Fe96  1  0.30856501  0.46328979  0.62196561  1
  Fe  Fe97  1  0.80765093  0.46436769  0.61772046  1
  Fe  Fe98  1  0.81028764  0.96107099  0.29009336  1
  Fe  Fe99  1  0.30635983  0.46818162  0.28763011  1
  Fe  Fe100  1  0.29694836  0.46975048  0.95617752  1
  Fe  Fe101  1  0.30789201  0.96650504  0.95592195  1
  S  S102  1  0.35402745  0.14148275  0.08324178  1
  S  S103  1  0.36193601  0.14347250  0.42032372  1
  S  S104  1  0.36009235  0.13927216  0.75033100  1
  S  S105  1  0.36768870  0.63716937  0.08554927  1
  S  S106  1  0.35960678  0.64082416  0.41918908  1
  S  S107  1  0.35516635  0.64041834  0.74780663  1
  S  S108  1  0.85633251  0.13986143  0.08208961  1
  S  S109  1  0.85791779  0.14120149  0.41415044  1
  S  S110  1  0.85901978  0.13945223  0.74956680  1
  S  S111  1  0.86601937  0.64034347  0.08370848  1
  S  S112  1  0.86424827  0.63635978  0.41502584  1
  S  S113  1  0.86059471  0.64149681  0.74893366  1
  S  S114  1  0.13740471  0.36115622  0.24949824  1
  S  S115  1  0.13796692  0.36006835  0.58198213  1
  S  S116  1  0.13485968  0.35696147  0.91047296  1
  S  S117  1  0.13996950  0.86137538  0.25058157  1
  S  S118  1  0.14247935  0.85938074  0.58557081  1
  S  S119  1  0.13761219  0.86330451  0.91726667  1
  S  S120  1  0.64173456  0.35427989  0.24761960  1
  S  S121  1  0.64128688  0.35844944  0.58612451  1
  S  S122  1  0.63494417  0.35976013  0.91863315  1
  S  S123  1  0.64367673  0.85606504  0.25219533  1
  S  S124  1  0.63855060  0.86380418  0.58661535  1
  S  S125  1  0.64305203  0.85915034  0.91450437  1
  S  S126  1  0.06335278  0.16743047  0.03913704  1
  S  S127  1  0.06975451  0.16982785  0.37603913  1
  S  S128  1  0.06599388  0.16494610  0.70481598  1
  S  S129  1  0.07182031  0.67816599  0.04844120  1
  S  S130  1  0.07148031  0.66384738  0.37465561  1
  S  S131  1  0.06516028  0.67255535  0.70836244  1
  S  S132  1  0.56209851  0.16694309  0.04171210  1
  S  S133  1  0.56248510  0.16904965  0.37736782  1
  S  S134  1  0.56534705  0.16836160  0.71135859  1
  S  S135  1  0.57722344  0.66487881  0.04430058  1
  S  S136  1  0.57459923  0.67826487  0.38048734  1
  S  S137  1  0.56628423  0.66718112  0.70513159  1
  S  S138  1  0.32924757  0.42447549  0.12487316  1
  S  S139  1  0.32737754  0.43087029  0.45867627  1
  S  S140  1  0.32859945  0.43485057  0.79372057  1
  S  S141  1  0.33275528  0.94392332  0.12684997  1
  S  S142  1  0.32895818  0.93200786  0.46112307  1
  S  S143  1  0.32823768  0.93089640  0.78933998  1
  S  S144  1  0.82861143  0.43011093  0.12529204  1
  S  S145  1  0.83342555  0.42655014  0.45746889  1
  S  S146  1  0.84662793  0.44260798  0.79360216  1
  S  S147  1  0.83248485  0.93444967  0.12505454  1
  S  S148  1  0.82736028  0.93886375  0.45615068  1
  S  S149  1  0.82708146  0.93227966  0.78876901  1
  S  S150  1  0.42889480  0.33194317  0.29553185  1
  S  S151  1  0.43548532  0.33533243  0.62782992  1
  S  S152  1  0.42611705  0.32859174  0.95870473  1
  S  S153  1  0.43450219  0.82044106  0.28949494  1
  S  S154  1  0.43290336  0.82801626  0.62648676  1
  S  S155  1  0.42981747  0.83641824  0.95928502  1
  S  S156  1  0.93034208  0.32934782  0.28801696  1
  S  S157  1  0.93459031  0.33000204  0.62036583  1
  S  S158  1  0.93354840  0.32444830  0.95451139  1
  S  S159  1  0.93480981  0.83030587  0.28973946  1
  S  S160  1  0.93068099  0.82966529  0.62565987  1
  S  S161  1  0.93164230  0.83402921  0.95710525  1
  S  S162  1  0.16192246  0.07158461  0.20828585  1
  S  S163  1  0.17311588  0.06794854  0.54241359  1
  S  S164  1  0.17073790  0.06834788  0.87596483  1
  S  S165  1  0.17160419  0.56865679  0.21242990  1
  S  S166  1  0.16576279  0.56592048  0.54259165  1
  S  S167  1  0.17179350  0.57349362  0.87487932  1
  S  S168  1  0.67156199  0.06041939  0.21050581  1
  S  S169  1  0.66952556  0.06757853  0.54386560  1
  S  S170  1  0.66829235  0.06967021  0.87762322  1
  S  S171  1  0.67490689  0.57112028  0.20763856  1
  S  S172  1  0.66577266  0.55913299  0.54238436  1
  S  S173  1  0.67502012  0.56156111  0.87741836  1
  O  O174  1  0.36470488  0.22224977  0.07881966  1
  O  O175  1  0.36831400  0.22601043  0.41764820  1
  O  O176  1  0.37007136  0.21828544  0.74369624  1
  O  O177  1  0.37859712  0.71060269  0.07088209  1
  O  O178  1  0.36305287  0.72219275  0.41527341  1
  O  O179  1  0.36705923  0.71830344  0.73821843  1
  O  O180  1  0.86536514  0.21827027  0.07381615  1
  O  O181  1  0.86981445  0.21747099  0.40049859  1
  O  O182  1  0.87053791  0.21786586  0.74208758  1
  O  O183  1  0.87022676  0.72047541  0.07492803  1
  O  O184  1  0.87765908  0.70945117  0.40087786  1
  O  O185  1  0.86710439  0.72131092  0.74191673  1
  O  O186  1  0.27205660  0.13503156  0.08784108  1
  O  O187  1  0.28118302  0.13293967  0.42626198  1
  O  O188  1  0.28181450  0.13058782  0.75994243  1
  O  O189  1  0.29685623  0.63079065  0.10552353  1
  O  O190  1  0.28413211  0.62758729  0.43345365  1
  O  O191  1  0.27205492  0.63335736  0.74743470  1
  O  O192  1  0.77819073  0.12910709  0.09066756  1
  O  O193  1  0.77683794  0.13666812  0.41889734  1
  O  O194  1  0.78197687  0.13022495  0.76107773  1
  O  O195  1  0.78486840  0.62912783  0.08838826  1
  O  O196  1  0.78964084  0.62743201  0.42727674  1
  O  O197  1  0.78331956  0.63133591  0.75990620  1
  O  O198  1  0.12793104  0.28167731  0.25710122  1
  O  O199  1  0.12831820  0.28125209  0.58832960  1
  O  O200  1  0.13149097  0.27664087  0.91917614  1
  O  O201  1  0.12708246  0.78474346  0.26312921  1
  O  O202  1  0.13073111  0.78146028  0.59559070  1
  O  O203  1  0.13038111  0.78357532  0.92390788  1
  O  O204  1  0.64075581  0.27323869  0.24799538  1
  O  O205  1  0.63160676  0.27796192  0.58895196  1
  O  O206  1  0.61965534  0.28468588  0.93339743  1
  O  O207  1  0.63427231  0.77570838  0.26231927  1
  O  O208  1  0.62718743  0.78446356  0.59377794  1
  O  O209  1  0.63799459  0.78027862  0.91897584  1
  O  O210  1  0.21675472  0.37010496  0.24274548  1
  O  O211  1  0.21749423  0.37067449  0.57529042  1
  O  O212  1  0.21528919  0.36962189  0.90433432  1
  O  O213  1  0.21603240  0.86576262  0.23971288  1
  O  O214  1  0.22512463  0.86500076  0.58346851  1
  O  O215  1  0.21445011  0.87219425  0.90514933  1
  O  O216  1  0.71823227  0.37332126  0.23589568  1
  O  O217  1  0.71832499  0.36815929  0.57417658  1
  O  O218  1  0.71008679  0.36022243  0.90611713  1
  O  O219  1  0.72697748  0.86337500  0.25264656  1
  O  O220  1  0.71729457  0.87171352  0.57941297  1
  O  O221  1  0.72063663  0.87359743  0.90240835  1
  O  O222  1  0.40982858  0.12829366  0.14804487  1
  O  O223  1  0.41836120  0.13719239  0.49100627  1
  O  O224  1  0.41978584  0.12816873  0.81695513  1
  O  O225  1  0.43559890  0.62722879  0.15091696  1
  O  O226  1  0.42269248  0.63216318  0.48422179  1
  O  O227  1  0.40899918  0.63114988  0.81594391  1
  O  O228  1  0.91677170  0.13161817  0.14994056  1
  O  O229  1  0.91398580  0.13897808  0.48592793  1
  O  O230  1  0.91964871  0.12875160  0.81606445  1
  O  O231  1  0.92114774  0.63729017  0.15646516  1
  O  O232  1  0.92793491  0.62686208  0.48265412  1
  O  O233  1  0.92269547  0.63397038  0.81574215  1
  O  O234  1  0.35902703  0.08558281  0.01179765  1
  O  O235  1  0.37159200  0.08881184  0.35324943  1
  O  O236  1  0.36703250  0.08022409  0.68189687  1
  O  O237  1  0.37148086  0.57112085  0.01855848  1
  O  O238  1  0.36398023  0.58565612  0.34805622  1
  O  O239  1  0.36539541  0.57996558  0.68009650  1
  O  O240  1  0.86590299  0.08021922  0.01440889  1
  O  O241  1  0.86829031  0.07904843  0.34965170  1
  O  O242  1  0.86366833  0.08058544  0.68004493  1
  O  O243  1  0.87966535  0.58328276  0.01992125  1
  O  O244  1  0.87371729  0.57059593  0.34906230  1
  O  O245  1  0.86787890  0.58365009  0.67983541  1
  O  O246  1  0.07831549  0.36955365  0.18167650  1
  O  O247  1  0.07964138  0.37006244  0.51384426  1
  O  O248  1  0.07845695  0.35620491  0.83689654  1
  O  O249  1  0.07808169  0.87236524  0.18480641  1
  O  O250  1  0.08781444  0.86803102  0.51777096  1
  O  O251  1  0.07579545  0.87352051  0.85144410  1
  O  O252  1  0.57976980  0.36371705  0.18052113  1
  O  O253  1  0.57982950  0.37170977  0.52104742  1
  O  O254  1  0.57224760  0.36945143  0.85280426  1
  O  O255  1  0.59007532  0.86065530  0.18292563  1
  O  O256  1  0.57843155  0.87458924  0.52040442  1
  O  O257  1  0.58214045  0.86933670  0.84805904  1
  O  O258  1  0.12928783  0.41932772  0.31798374  1
  O  O259  1  0.12841468  0.41967508  0.64959697  1
  O  O260  1  0.12114355  0.41533368  0.97310268  1
  O  O261  1  0.13353373  0.92312103  0.31908088  1
  O  O262  1  0.13408820  0.91989265  0.65336568  1
  O  O263  1  0.13110765  0.92084019  0.98670246  1
  O  O264  1  0.63389327  0.40758422  0.31713858  1
  O  O265  1  0.63653442  0.41504134  0.65674662  1
  O  O266  1  0.63102631  0.42368423  0.98688972  1
  O  O267  1  0.63291265  0.91417772  0.31969371  1
  O  O268  1  0.63091794  0.92303155  0.65559883  1
  O  O269  1  0.63850801  0.91691637  0.98486097  1
  O  O270  1  0.02676347  0.19916252  0.10004584  1
  O  O271  1  0.03328544  0.19892309  0.43741628  1
  O  O272  1  0.02823855  0.19213607  0.76450090  1
  O  O273  1  0.03348615  0.71212415  0.10868534  1
  O  O274  1  0.04571833  0.69091548  0.44078795  1
  O  O275  1  0.03045416  0.70314029  0.77073314  1
  O  O276  1  0.52263642  0.19544998  0.09863354  1
  O  O277  1  0.53239647  0.20116034  0.44403709  1
  O  O278  1  0.52945459  0.19955937  0.77287444  1
  O  O279  1  0.55122720  0.68732966  0.11193398  1
  O  O280  1  0.52742466  0.70649353  0.43538803  1
  O  O281  1  0.52810538  0.69467302  0.76349009  1
  O  O282  1  0.30490729  0.45747773  0.06305874  1
  O  O283  1  0.29943411  0.46720678  0.39748702  1
  O  O284  1  0.29827776  0.47067690  0.73115607  1
  O  O285  1  0.29168155  0.97365807  0.05996739  1
  O  O286  1  0.30260438  0.96907915  0.40251587  1
  O  O287  1  0.29791847  0.97040646  0.73009754  1
  O  O288  1  0.80042244  0.46707781  0.06575193  1
  O  O289  1  0.80655152  0.45748893  0.39499319  1
  O  O290  1  0.80697803  0.47063195  0.72616094  1
  O  O291  1  0.80176291  0.96961069  0.06321825  1
  O  O292  1  0.79129751  0.97852260  0.39734875  1
  O  O293  1  0.79880177  0.96915280  0.72841397  1
  O  O294  1  0.46266139  0.30563797  0.23468757  1
  O  O295  1  0.47311475  0.30482131  0.56793314  1
  O  O296  1  0.45998332  0.29894102  0.89555424  1
  O  O297  1  0.47585788  0.78610234  0.23335407  1
  O  O298  1  0.46870160  0.80143279  0.56539971  1
  O  O299  1  0.45485713  0.81322419  0.89129366  1
  O  O300  1  0.96698237  0.29987121  0.22642233  1
  O  O301  1  0.97036202  0.29971218  0.55870804  1
  O  O302  1  0.97069157  0.29241615  0.89275594  1
  O  O303  1  0.96800369  0.79990676  0.22469438  1
  O  O304  1  0.96797730  0.80107467  0.56662629  1
  O  O305  1  0.96743359  0.80224876  0.89576961  1
  O  O306  1  0.18679796  0.03955600  0.27042402  1
  O  O307  1  0.20260492  0.02966741  0.60309287  1
  O  O308  1  0.19783252  0.03082296  0.93623855  1
  O  O309  1  0.20274345  0.53344816  0.27701987  1
  O  O310  1  0.19657844  0.52830495  0.60252635  1
  O  O311  1  0.20141666  0.53880968  0.93484675  1
  O  O312  1  0.70669695  0.02238714  0.27047706  1
  O  O313  1  0.70068027  0.03109856  0.60525952  1
  O  O314  1  0.69736143  0.03315035  0.93883197  1
  O  O315  1  0.69978325  0.53508855  0.26723573  1
  O  O316  1  0.69920725  0.52775654  0.60823407  1
  O  O317  1  0.70831642  0.52898275  0.93933076  1
  O  O318  1  0.07962527  0.08495594  0.03547736  1
  O  O319  1  0.09108468  0.08994354  0.37126845  1
  O  O320  1  0.08449109  0.08299918  0.69692608  1
  O  O321  1  0.08730858  0.59906219  0.04574576  1
  O  O322  1  0.08155503  0.57725067  0.36021173  1
  O  O323  1  0.08078053  0.58945625  0.70247049  1
  O  O324  1  0.58190368  0.08616739  0.04002588  1
  O  O325  1  0.58707466  0.08961185  0.37674470  1
  O  O326  1  0.57937447  0.08458110  0.70537148  1
  O  O327  1  0.60625006  0.58518785  0.03518138  1
  O  O328  1  0.59662468  0.60232383  0.38325789  1
  O  O329  1  0.58486405  0.58451025  0.70073082  1
  O  O330  1  0.41061762  0.40303442  0.13382578  1
  O  O331  1  0.40858273  0.41130627  0.46655672  1
  O  O332  1  0.41141708  0.41932066  0.79940011  1
  O  O333  1  0.41401950  0.93594576  0.12967116  1
  O  O334  1  0.40929448  0.90858655  0.46703775  1
  O  O335  1  0.40755331  0.91057821  0.78936569  1
  O  O336  1  0.91005343  0.40983996  0.12888239  1
  O  O337  1  0.91836213  0.41205453  0.46858711  1
  O  O338  1  0.92541735  0.42028570  0.78707218  1
  O  O339  1  0.91624402  0.92052031  0.13037099  1
  O  O340  1  0.90543489  0.92301046  0.45411625  1
  O  O341  1  0.90910372  0.91423771  0.79656034  1
  O  O342  1  0.41097245  0.41504851  0.30668556  1
  O  O343  1  0.42115966  0.41888724  0.63345207  1
  O  O344  1  0.40841996  0.41049751  0.96557590  1
  O  O345  1  0.40773333  0.89357880  0.28155242  1
  O  O346  1  0.41597730  0.91116521  0.63620638  1
  O  O347  1  0.41095986  0.92024992  0.97329468  1
  O  O348  1  0.91386463  0.41103066  0.29530265  1
  O  O349  1  0.92200827  0.41432663  0.62853718  1
  O  O350  1  0.91255196  0.40166811  0.95587287  1
  O  O351  1  0.91291633  0.91075993  0.28874523  1
  O  O352  1  0.91067556  0.91017055  0.62704477  1
  O  O353  1  0.91376263  0.91566195  0.96000468  1
  O  O354  1  0.07827123  0.09011373  0.19672062  1
  O  O355  1  0.09223314  0.08586095  0.53857388  1
  O  O356  1  0.08980031  0.08809468  0.87203545  1
  O  O357  1  0.09182091  0.59121234  0.21324762  1
  O  O358  1  0.08383704  0.58219265  0.53860976  1
  O  O359  1  0.09028451  0.59401001  0.86990507  1
  O  O360  1  0.59325874  0.07750320  0.21076470  1
  O  O361  1  0.58897809  0.08643531  0.54411676  1
  O  O362  1  0.58631095  0.08684269  0.87049392  1
  O  O363  1  0.59214280  0.59092548  0.19906208  1
  O  O364  1  0.58438784  0.57827847  0.54096222  1
  O  O365  1  0.59151555  0.56945707  0.86661180  1
  O  O366  1  0.13457585  0.21828788  0.05454274  1
  O  O367  1  0.13924283  0.22497850  0.39246861  1
  O  O368  1  0.13659989  0.21778645  0.72171043  1
  O  O369  1  0.14221525  0.73147052  0.06343535  1
  O  O370  1  0.14518847  0.70949927  0.38596963  1
  O  O371  1  0.13772141  0.72291824  0.72518248  1
  O  O372  1  0.63348830  0.21884475  0.05728878  1
  O  O373  1  0.63204574  0.22316873  0.39109172  1
  O  O374  1  0.63625641  0.21673275  0.72445644  1
  O  O375  1  0.64307840  0.72327220  0.05751198  1
  O  O376  1  0.64100437  0.73720634  0.40173543  1
  O  O377  1  0.63863936  0.71826494  0.72172342  1
  O  O378  1  0.27361698  0.35560508  0.11015025  1
  O  O379  1  0.27302473  0.36111386  0.44227570  1
  O  O380  1  0.27817138  0.36276017  0.77621094  1
  O  O381  1  0.28623042  0.86793145  0.11024118  1
  O  O382  1  0.27359684  0.86272828  0.44603695  1
  O  O383  1  0.27394725  0.86040779  0.77185397  1
  O  O384  1  0.77635147  0.35856168  0.10805875  1
  O  O385  1  0.78475808  0.35464029  0.44608954  1
  O  O386  1  0.79939659  0.37440701  0.78869846  1
  O  O387  1  0.78417102  0.86143984  0.10971064  1
  O  O388  1  0.77457999  0.86937519  0.44229885  1
  O  O389  1  0.77517530  0.86057528  0.77142489  1
  O  O390  1  0.35705152  0.28040081  0.28092851  1
  O  O391  1  0.36190211  0.28643839  0.60950000  1
  O  O392  1  0.35451800  0.27570820  0.94129517  1
  O  O393  1  0.36741753  0.76298774  0.27698473  1
  O  O394  1  0.36055013  0.77577180  0.60779476  1
  O  O395  1  0.35633297  0.78480444  0.94217780  1
  O  O396  1  0.85991749  0.27631009  0.27129613  1
  O  O397  1  0.86120387  0.28187559  0.60315058  1
  O  O398  1  0.86688188  0.26869408  0.94216160  1
  O  O399  1  0.86409659  0.77819380  0.27397762  1
  O  O400  1  0.86168978  0.77715011  0.61352853  1
  O  O401  1  0.86072483  0.78252407  0.94257872  1
  O  O402  1  0.21362626  0.14239310  0.22157237  1
  O  O403  1  0.22587410  0.13860656  0.55972313  1
  O  O404  1  0.22389216  0.13856416  0.89187143  1
  O  O405  1  0.22475868  0.63923833  0.22957559  1
  O  O406  1  0.21713938  0.63750929  0.55862322  1
  O  O407  1  0.22363299  0.64332463  0.88574166  1
  O  O408  1  0.72571767  0.13106447  0.22663393  1
  O  O409  1  0.72120458  0.13737950  0.55741838  1
  O  O410  1  0.72016193  0.14040091  0.89421194  1
  O  O411  1  0.72753196  0.64285970  0.22533936  1
  O  O412  1  0.71524537  0.63118145  0.55697407  1
  O  O413  1  0.72159067  0.63713744  0.89319205  1
  O  O414  1  0.48595010  0.32854800  0.02987174  1
  O  O415  1  0.49006943  0.33233103  0.36734903  1
  O  O416  1  0.49220400  0.33490681  0.70025288  1
  O  O417  1  0.49102824  0.83120939  0.02437780  1
  O  O418  1  0.49183107  0.83301351  0.36679293  1
  O  O419  1  0.49103563  0.82731623  0.69873887  1
  O  O420  1  0.99569258  0.32774531  0.02752402  1
  O  O421  1  0.99080732  0.32937154  0.35987808  1
  O  O422  1  0.99292121  0.32728208  0.69115557  1
  O  O423  1  0.99147740  0.83958915  0.03030973  1
  O  O424  1  0.99562623  0.83610116  0.35921008  1
  O  O425  1  0.99096573  0.83690365  0.70053765  1
  O  O426  1  0.15976540  0.01018311  0.13641757  1
  O  O427  1  0.17162494  0.00895272  0.47005643  1
  O  O428  1  0.16796780  0.00949828  0.80320262  1
  O  O429  1  0.16631803  0.50812733  0.14303771  1
  O  O430  1  0.16312895  0.50785037  0.46895751  1
  O  O431  1  0.16327068  0.51185603  0.79994563  1
  O  O432  1  0.66925643  0.00298336  0.13606737  1
  O  O433  1  0.66363219  0.00759350  0.47104287  1
  O  O434  1  0.66676020  0.00973502  0.80528209  1
  O  O435  1  0.67413334  0.51244409  0.13456313  1
  O  O436  1  0.66085576  0.49733244  0.47292329  1
  O  O437  1  0.68256483  0.50453375  0.80659712  1
  O  O438  1  0.00896774  0.16728072  0.30404128  1
  O  O439  1  0.00667571  0.16417013  0.63226157  1
  O  O440  1  0.00440291  0.16175075  0.96538662  1
  O  O441  1  0.00975197  0.66791695  0.30585797  1
  O  O442  1  0.00636392  0.67117279  0.63646676  1
  O  O443  1  0.01131273  0.67746811  0.97518546  1
  O  O444  1  0.49902358  0.16102679  0.30855691  1
  O  O445  1  0.50418543  0.16511725  0.63854152  1
  O  O446  1  0.50514681  0.16178835  0.96626883  1
  O  O447  1  0.51933099  0.67196438  0.30319852  1
  O  O448  1  0.50926994  0.66363990  0.63055641  1
  O  O449  1  0.51216725  0.65636638  0.97620264  1
  O  O450  1  0.33098342  0.48558699  0.19677966  1
  O  O451  1  0.32851803  0.49109880  0.53074662  1
  O  O452  1  0.32956642  0.49414954  0.86529229  1
  O  O453  1  0.32848252  1.00239204  0.19559237  1
  O  O454  1  0.33634731  0.99116036  0.53637437  1
  O  O455  1  0.33132972  0.98880649  0.86243694  1
  O  O456  1  0.83494986  0.48873514  0.19937076  1
  O  O457  1  0.83384166  0.48817168  0.52934994  1
  O  O458  1  0.86120173  0.50902885  0.86239587  1
  O  O459  1  0.83445089  0.99300463  0.19751522  1
  O  O460  1  0.83200112  0.99743433  0.53122108  1
  O  O461  1  0.82868737  0.99186131  0.86129008  1
