# generated using pymatgen
data_Na31Fe20(SO4)36
_symmetry_space_group_name_H-M   'P 1'
_cell_length_a   18.07130545
_cell_length_b   18.06529556
_cell_length_c   19.70702763
_cell_angle_alpha   107.58438090
_cell_angle_beta   107.61071996
_cell_angle_gamma   90.69479979
_symmetry_Int_Tables_number   1
_chemical_formula_structural   Na31Fe20(SO4)36
_chemical_formula_sum   'Na62 Fe40 S72 O288'
_cell_volume   5807.50122050
_cell_formula_units_Z   2
loop_
 _symmetry_equiv_pos_site_id
 _symmetry_equiv_pos_as_xyz
  1  'x, y, z'
loop_
 _atom_site_type_symbol
 _atom_site_label
 _atom_site_symmetry_multiplicity
 _atom_site_fract_x
 _atom_site_fract_y
 _atom_site_fract_z
 _atom_site_occupancy
  Na  Na0  1  0.12609618  0.36410313  0.08247814  1
  Na  Na1  1  0.13477620  0.36662260  0.41416778  1
  Na  Na2  1  0.13299777  0.37317518  0.74750526  1
  Na  Na3  1  0.13772137  0.86318093  0.09099068  1
  Na  Na4  1  0.13329828  0.85198602  0.40706944  1
  Na  Na5  1  0.13392699  0.85544518  0.74174282  1
  Na  Na6  1  0.62880720  0.37330463  0.08271399  1
  Na  Na7  1  0.63741365  0.37434595  0.42316062  1
  Na  Na8  1  0.62960028  0.37344620  0.74996578  1
  Na  Na9  1  0.64759112  0.87276110  0.10429669  1
  Na  Na10  1  0.63627334  0.85148598  0.40651380  1
  Na  Na11  1  0.63346340  0.86499710  0.74794439  1
  Na  Na12  1  0.36942622  0.13608691  0.25321093  1
  Na  Na13  1  0.36220659  0.13126569  0.57782072  1
  Na  Na14  1  0.37323208  0.14080100  0.93000111  1
  Na  Na15  1  0.35798725  0.64784853  0.24615125  1
  Na  Na16  1  0.36797261  0.63791212  0.58777938  1
  Na  Na17  1  0.36834897  0.62499439  0.91059100  1
  Na  Na18  1  0.86196666  0.12962147  0.24492781  1
  Na  Na19  1  0.86456473  0.13253823  0.58017977  1
  Na  Na20  1  0.87464340  0.13578971  0.92663833  1
  Na  Na21  1  0.85837867  0.62799095  0.24125529  1
  Na  Na22  1  0.85579627  0.64332545  0.58054536  1
  Na  Na23  1  0.86536312  0.63684105  0.92205859  1
  Na  Na24  1  0.50079202  0.53359257  0.08902806  1
  Na  Na25  1  0.96713720  0.51414691  0.72769476  1
  Na  Na26  1  0.49159622  0.01269875  0.75119574  1
  Na  Na27  1  0.48558284  0.00089837  0.10841489  1
  Na  Na28  1  0.99874301  0.01947100  0.07028768  1
  Na  Na29  1  0.93851681  0.00279028  0.39585706  1
  Na  Na30  1  0.48625681  0.51101068  0.41382330  1
  Na  Na31  1  0.99407726  0.00070861  0.77349046  1
  Na  Na32  1  0.52692421  -0.00704526  0.38014454  1
  Na  Na33  1  0.51583113  0.47365932  0.23735425  1
  Na  Na34  1  0.00583845  0.46426929  0.23560179  1
  Na  Na35  1  -0.00363105  0.49025069  0.93893862  1
  Na  Na36  1  0.50825779  0.98929458  0.57172231  1
  Na  Na37  1  0.00941041  0.97768050  0.58409928  1
  Na  Na38  1  -0.01222715  0.54919019  0.54357397  1
  Na  Na39  1  0.49984414  0.48645779  0.60432793  1
  Na  Na40  1  0.00407550  0.98750040  0.24709526  1
  Na  Na41  1  0.50582668  0.98347031  0.92367305  1
  Na  Na42  1  0.75914089  0.26529796  0.65870482  1
  Na  Na43  1  0.75547580  0.75942189  0.65735335  1
  Na  Na44  1  0.76096748  0.26376959  0.32973667  1
  Na  Na45  1  0.24017864  0.73541889  0.01110145  1
  Na  Na46  1  0.76549490  0.26163010  -0.00225892  1
  Na  Na47  1  0.25745917  0.25644434  0.65986522  1
  Na  Na48  1  0.73380769  0.73427992  0.34444070  1
  Na  Na49  1  0.26635536  0.26155886  0.00343953  1
  Na  Na50  1  0.73998218  0.73494761  0.01333062  1
  Na  Na51  1  0.21783585  0.71439671  0.66516786  1
  Na  Na52  1  0.24640879  0.24069341  0.17859035  1
  Na  Na53  1  0.74812193  0.74506427  0.83737603  1
  Na  Na54  1  0.76434816  0.27374584  0.49802453  1
  Na  Na55  1  0.23524140  0.72784008  0.83780025  1
  Na  Na56  1  0.25722501  0.25875122  0.48389305  1
  Na  Na57  1  0.73143755  0.73765416  0.17946462  1
  Na  Na58  1  0.24351913  0.74421831  0.49639557  1
  Na  Na59  1  0.25691254  0.25824826  0.83060210  1
  Na  Na60  1  0.75378052  0.25786287  0.82851103  1
  Na  Na61  1  0.75882491  0.25712984  0.15896262  1
  Fe  Fe62  1  0.46718911  0.31162374  0.79206534  1
  Fe  Fe63  1  0.96494666  0.80998429  0.78737694  1
  Fe  Fe64  1  0.46590320  0.80521958  0.78374046  1
  Fe  Fe65  1  0.96874846  0.79574167  0.45221875  1
  Fe  Fe66  1  0.96531860  0.30973740  0.78775970  1
  Fe  Fe67  1  0.96486782  0.80526409  0.11971541  1
  Fe  Fe68  1  0.96694944  0.31927086  0.46203564  1
  Fe  Fe69  1  0.46400838  0.80182524  0.43989133  1
  Fe  Fe70  1  0.46813814  0.80319499  0.12663570  1
  Fe  Fe71  1  0.46259254  0.30601095  0.44880591  1
  Fe  Fe72  1  0.69931563  0.53100706  0.70927669  1
  Fe  Fe73  1  0.69652847  0.03089026  0.05054844  1
  Fe  Fe74  1  0.19490977  0.03496316  0.71452599  1
  Fe  Fe75  1  0.19474052  0.03016123  0.04669548  1
  Fe  Fe76  1  0.18917775  0.53556974  0.37654872  1
  Fe  Fe77  1  0.69087286  0.53892024  0.38103388  1
  Fe  Fe78  1  0.19315478  0.54025116  0.05179244  1
  Fe  Fe79  1  0.70315420  0.03604362  0.37687049  1
  Fe  Fe80  1  0.19203531  0.03358060  0.38102757  1
  Fe  Fe81  1  0.69266302  0.03649266  0.71509242  1
  Fe  Fe82  1  0.03482552  0.19934014  0.21374006  1
  Fe  Fe83  1  0.53285404  0.19079208  0.54496714  1
  Fe  Fe84  1  0.03320932  0.69049869  0.88105338  1
  Fe  Fe85  1  0.53706961  0.68565650  0.87856039  1
  Fe  Fe86  1  0.53687819  0.19668419  0.88656978  1
  Fe  Fe87  1  0.03775483  0.68638367  0.21354584  1
  Fe  Fe88  1  0.53341514  0.20165052  0.21088126  1
  Fe  Fe89  1  0.53354101  0.69461762  0.54591583  1
  Fe  Fe90  1  0.03513446  0.19681740  0.88377626  1
  Fe  Fe91  1  0.03786884  0.19134091  0.54733903  1
  Fe  Fe92  1  0.80659252  0.96524370  0.61847858  1
  Fe  Fe93  1  0.30727206  0.96097641  0.95061805  1
  Fe  Fe94  1  0.30483658  0.96120042  0.28406867  1
  Fe  Fe95  1  0.80804508  0.96094972  0.95301393  1
  Fe  Fe96  1  0.30650936  0.46577322  0.28179367  1
  Fe  Fe97  1  0.30383270  0.46899440  0.62511347  1
  Fe  Fe98  1  0.81091382  0.46824242  0.28812078  1
  Fe  Fe99  1  0.30744559  0.96406229  0.61520462  1
  Fe  Fe100  1  0.30789790  0.46783933  0.95467955  1
  Fe  Fe101  1  0.80183973  0.46799004  0.96207537  1
  S  S102  1  0.36144154  0.13453521  0.08409359  1
  S  S103  1  0.36047305  0.13627370  0.41505394  1
  S  S104  1  0.36203723  0.13866611  0.75044896  1
  S  S105  1  0.35863755  0.64282370  0.08103332  1
  S  S106  1  0.35891929  0.63974619  0.41576152  1
  S  S107  1  0.36206841  0.64397155  0.74803808  1
  S  S108  1  0.86194921  0.13594261  0.08307224  1
  S  S109  1  0.86100994  0.15015667  0.42196297  1
  S  S110  1  0.85938110  0.14052992  0.75055431  1
  S  S111  1  0.86057264  0.64111194  0.08322578  1
  S  S112  1  0.85632858  0.64183652  0.41737578  1
  S  S113  1  0.85654631  0.64773342  0.75198908  1
  S  S114  1  0.14511697  0.35825860  0.24870961  1
  S  S115  1  0.14321555  0.35495009  0.58218428  1
  S  S116  1  0.14050361  0.35971505  0.91896279  1
  S  S117  1  0.13817695  0.85968825  0.25039463  1
  S  S118  1  0.14221238  0.85934003  0.58429970  1
  S  S119  1  0.14210055  0.85822124  0.91449655  1
  S  S120  1  0.64578688  0.36084204  0.25387117  1
  S  S121  1  0.63559751  0.35715204  0.58518258  1
  S  S122  1  0.64138489  0.35566161  0.91493904  1
  S  S123  1  0.63640759  0.86634773  0.25295144  1
  S  S124  1  0.63737393  0.86359921  0.58239345  1
  S  S125  1  0.63910205  0.85777269  0.91611738  1
  S  S126  1  0.07261584  0.16427143  0.04192913  1
  S  S127  1  0.06590598  0.16677066  0.37423049  1
  S  S128  1  0.06765637  0.16693791  0.70988966  1
  S  S129  1  0.06650386  0.67135263  0.04219207  1
  S  S130  1  0.06249328  0.66343110  0.37070338  1
  S  S131  1  0.05303187  0.66816453  0.71098289  1
  S  S132  1  0.57211266  0.16377553  0.04102204  1
  S  S133  1  0.57392012  0.17739061  0.37872430  1
  S  S134  1  0.56460944  0.16506850  0.70726508  1
  S  S135  1  0.56536132  0.67635248  0.04438152  1
  S  S136  1  0.55762949  0.66503822  0.37239462  1
  S  S137  1  0.57072133  0.67255110  0.70905525  1
  S  S138  1  0.33361767  0.44386580  0.12397491  1
  S  S139  1  0.33533026  0.43501990  0.46146724  1
  S  S140  1  0.32835372  0.42781198  0.79030903  1
  S  S141  1  0.32706319  0.92554476  0.12232586  1
  S  S142  1  0.32974405  0.92950785  0.45661095  1
  S  S143  1  0.33288256  0.93150058  0.78958690  1
  S  S144  1  0.82927033  0.42820594  0.12290139  1
  S  S145  1  0.83149240  0.44292580  0.46123015  1
  S  S146  1  0.83125777  0.43534837  0.79673934  1
  S  S147  1  0.83343623  0.93151479  0.12338425  1
  S  S148  1  0.83118500  0.93296799  0.45780454  1
  S  S149  1  0.82602746  0.93418456  0.79050803  1
  S  S150  1  0.43548572  0.33235242  0.29129010  1
  S  S151  1  0.42764803  0.32469663  0.62180684  1
  S  S152  1  0.43457198  0.32954499  0.95936219  1
  S  S153  1  0.42963365  0.83459828  0.29145492  1
  S  S154  1  0.43483812  0.83430367  0.62253190  1
  S  S155  1  0.43255119  0.83082851  0.96042404  1
  S  S156  1  0.93396488  0.32707046  0.29274265  1
  S  S157  1  0.93550569  0.32814430  0.62463641  1
  S  S158  1  0.93116049  0.32802101  0.95639575  1
  S  S159  1  0.93576697  0.82568587  0.28742683  1
  S  S160  1  0.93427703  0.84219585  0.63067009  1
  S  S161  1  0.93607411  0.83168771  0.95848934  1
  S  S162  1  0.16917219  0.06640262  0.20813181  1
  S  S163  1  0.17002551  0.06546440  0.54236708  1
  S  S164  1  0.17462105  0.06994293  0.87726433  1
  S  S165  1  0.16843829  0.56404446  0.20655881  1
  S  S166  1  0.17757526  0.56656575  0.53957971  1
  S  S167  1  0.16603880  0.56327992  0.87690579  1
  S  S168  1  0.66946462  0.07715677  0.20966774  1
  S  S169  1  0.67036415  0.06937668  0.54240505  1
  S  S170  1  0.67040920  0.06584515  0.87641568  1
  S  S171  1  0.66582161  0.55995659  0.21189521  1
  S  S172  1  0.66381756  0.56921830  0.54329880  1
  S  S173  1  0.67573635  0.56800063  0.87430721  1
  O  O174  1  0.36759605  0.20937998  0.07171245  1
  O  O175  1  0.36939733  0.21556680  0.40855765  1
  O  O176  1  0.37041167  0.21726759  0.74212094  1
  O  O177  1  0.37206579  0.72299497  0.07306899  1
  O  O178  1  0.36965125  0.71823254  0.40883883  1
  O  O179  1  0.37578329  0.72004661  0.73333557  1
  O  O180  1  0.86590732  0.21085741  0.07018849  1
  O  O181  1  0.86904515  0.23366792  0.42360938  1
  O  O182  1  0.86767122  0.22004794  0.74356093  1
  O  O183  1  0.87620025  0.71596211  0.06724516  1
  O  O184  1  0.86717627  0.72263691  0.41195387  1
  O  O185  1  0.86293875  0.73093861  0.75141889  1
  O  O186  1  0.28404465  0.12188919  0.09560160  1
  O  O187  1  0.28290329  0.12691387  0.42648729  1
  O  O188  1  0.28317157  0.12960854  0.75900657  1
  O  O189  1  0.27623191  0.63853136  0.08163940  1
  O  O190  1  0.27904764  0.62965404  0.42064199  1
  O  O191  1  0.28293900  0.63961915  0.75265649  1
  O  O192  1  0.78471955  0.12264896  0.09441695  1
  O  O193  1  0.78354300  0.13873865  0.43284797  1
  O  O194  1  0.78131398  0.13167078  0.76106626  1
  O  O195  1  0.78435669  0.64219060  0.09473637  1
  O  O196  1  0.77394835  0.63465234  0.41966261  1
  O  O197  1  0.77630094  0.63452381  0.75634549  1
  O  O198  1  0.13606382  0.27803088  0.25401272  1
  O  O199  1  0.13424201  0.27262956  0.58637962  1
  O  O200  1  0.13192441  0.28171099  0.93028543  1
  O  O201  1  0.12904085  0.78219597  0.25881476  1
  O  O202  1  0.13690258  0.78598654  0.59960193  1
  O  O203  1  0.13448218  0.77744112  0.91897985  1
  O  O204  1  0.63302527  0.28249995  0.26313635  1
  O  O205  1  0.62184083  0.28031354  0.59800562  1
  O  O206  1  0.63681325  0.27244512  0.91709569  1
  O  O207  1  0.62965441  0.79199179  0.26736020  1
  O  O208  1  0.62827994  0.78706928  0.59485314  1
  O  O209  1  0.63197761  0.77789971  0.92152943  1
  O  O210  1  0.22597101  0.36781634  0.24289279  1
  O  O211  1  0.22323208  0.36284652  0.57469113  1
  O  O212  1  0.22184286  0.36830214  0.91618290  1
  O  O213  1  0.21401691  0.87107876  0.23816861  1
  O  O214  1  0.22025884  0.87217230  0.57422460  1
  O  O215  1  0.21975859  0.86781266  0.90268997  1
  O  O216  1  0.72842516  0.36510656  0.25218964  1
  O  O217  1  0.71482525  0.36258855  0.58135786  1
  O  O218  1  0.72289139  0.36826369  0.91012317  1
  O  O219  1  0.70703237  0.87690028  0.23376082  1
  O  O220  1  0.71754199  0.87347201  0.57862561  1
  O  O221  1  0.71598583  0.86840108  0.90424804  1
  O  O222  1  0.42300689  0.12830453  0.15253284  1
  O  O223  1  0.42114155  0.12684377  0.48200044  1
  O  O224  1  0.42181022  0.12912168  0.81753596  1
  O  O225  1  0.41339036  0.63220579  0.14749817  1
  O  O226  1  0.41655572  0.63234125  0.48577469  1
  O  O227  1  0.41926995  0.64256138  0.82012795  1
  O  O228  1  0.92359246  0.13063060  0.15124738  1
  O  O229  1  0.92128281  0.13547831  0.48700577  1
  O  O230  1  0.92037961  0.12994890  0.81657063  1
  O  O231  1  0.92151414  0.63157636  0.14875425  1
  O  O232  1  0.91080203  0.63248332  0.48497193  1
  O  O233  1  0.91333190  0.63876087  0.82178095  1
  O  O234  1  0.36988878  0.07092858  0.01766793  1
  O  O235  1  0.36591703  0.07739486  0.34593138  1
  O  O236  1  0.36970569  0.07897978  0.68200007  1
  O  O237  1  0.36719587  0.58439217  0.01173951  1
  O  O238  1  0.37013153  0.57916560  0.34998888  1
  O  O239  1  0.37430043  0.58068442  0.68491578  1
  O  O240  1  0.87120897  0.07250603  0.01681945  1
  O  O241  1  0.86719260  0.09739740  0.35192673  1
  O  O242  1  0.86449617  0.08258283  0.68088131  1
  O  O243  1  0.86290339  0.57767504  0.01404653  1
  O  O244  1  0.86477256  0.58585385  0.34763710  1
  O  O245  1  0.86856653  0.59406221  0.68536728  1
  O  O246  1  0.08707796  0.36994551  0.18405308  1
  O  O247  1  0.08610260  0.35955946  0.51086127  1
  O  O248  1  0.08514707  0.36155794  0.84654326  1
  O  O249  1  0.07548999  0.87097965  0.18484663  1
  O  O250  1  0.08166450  0.86263397  0.51422658  1
  O  O251  1  0.08167643  0.87052729  0.84976920  1
  O  O252  1  0.59119011  0.36993688  0.18619093  1
  O  O253  1  0.57770620  0.36308073  0.51527478  1
  O  O254  1  0.58589675  0.35838462  0.84219829  1
  O  O255  1  0.56779444  0.87280334  0.18698197  1
  O  O256  1  0.57984573  0.86923657  0.51218900  1
  O  O257  1  0.57764900  0.86852957  0.84986124  1
  O  O258  1  0.13956117  0.41568167  0.31946954  1
  O  O259  1  0.13379043  0.41124750  0.64781746  1
  O  O260  1  0.12591678  0.42054599  0.98208787  1
  O  O261  1  0.13185132  0.92029268  0.31944879  1
  O  O262  1  0.13200174  0.92464685  0.64892201  1
  O  O263  1  0.13904416  0.91400547  0.98622375  1
  O  O264  1  0.63619710  0.42046699  0.32200915  1
  O  O265  1  0.62415278  0.41968910  0.65015840  1
  O  O266  1  0.62858241  0.40982914  0.97957677  1
  O  O267  1  0.63139637  0.93072341  0.32104391  1
  O  O268  1  0.62504020  0.92552087  0.64765089  1
  O  O269  1  0.63216335  0.91561000  0.98534177  1
  O  O270  1  0.03622075  0.18392264  0.10159380  1
  O  O271  1  0.02745971  0.19302591  0.43365675  1
  O  O272  1  0.03148811  0.19741797  0.77096822  1
  O  O273  1  0.03555291  0.70267705  0.10651399  1
  O  O274  1  0.02729376  0.69280237  0.43084258  1
  O  O275  1  0.02226611  0.70802226  0.77706249  1
  O  O276  1  0.53961257  0.19095319  0.10256635  1
  O  O277  1  0.53202028  0.20208407  0.43690830  1
  O  O278  1  0.52918687  0.19401517  0.76837008  1
  O  O279  1  0.52690058  0.71280578  0.10311813  1
  O  O280  1  0.53120871  0.70177514  0.44205376  1
  O  O281  1  0.53517620  0.70117901  0.77103487  1
  O  O282  1  0.29281376  0.47774777  0.06157602  1
  O  O283  1  0.30808158  0.47030948  0.39982632  1
  O  O284  1  0.30505116  0.46308572  0.73022850  1
  O  O285  1  0.30125691  0.96187023  0.06068039  1
  O  O286  1  0.29805061  0.96492365  0.39505764  1
  O  O287  1  0.30306618  0.96880602  0.72921495  1
  O  O288  1  0.80039677  0.46586096  0.06298121  1
  O  O289  1  0.80017847  0.47290220  0.39528229  1
  O  O290  1  0.80464251  0.47345096  0.73854161  1
  O  O291  1  0.79696668  0.96067526  0.05642653  1
  O  O292  1  0.80703463  0.97446610  0.40123140  1
  O  O293  1  0.79664384  0.97229090  0.73029151  1
  O  O294  1  0.47305770  0.30407053  0.23293014  1
  O  O295  1  0.46344537  0.29601044  0.55997721  1
  O  O296  1  0.46907602  0.29737410  0.89458956  1
  O  O297  1  0.45508390  0.80374248  0.22447821  1
  O  O298  1  0.47047101  0.80416172  0.56152299  1
  O  O299  1  0.47178874  0.80520040  0.90166680  1
  O  O300  1  0.97400254  0.29926953  0.23587945  1
  O  O301  1  0.97692024  0.29655748  0.56709612  1
  O  O302  1  0.96559987  0.30021658  0.89112386  1
  O  O303  1  0.97144513  0.78778243  0.22632913  1
  O  O304  1  0.96657017  0.82029828  0.56844617  1
  O  O305  1  0.97385918  0.80175327  0.89864203  1
  O  O306  1  0.19875340  0.03091208  0.27009896  1
  O  O307  1  0.20393618  0.03223346  0.60557358  1
  O  O308  1  0.20241586  0.03160668  0.93697692  1
  O  O309  1  0.20177145  0.52788350  0.26856224  1
  O  O310  1  0.20915459  0.52825384  0.59779636  1
  O  O311  1  0.19854376  0.52928467  0.94062786  1
  O  O312  1  0.69706439  0.04910470  0.27437678  1
  O  O313  1  0.70015689  0.03319190  0.60388338  1
  O  O314  1  0.69952358  0.02837141  0.93644899  1
  O  O315  1  0.70564966  0.52524380  0.27486199  1
  O  O316  1  0.68618320  0.53060379  0.60136397  1
  O  O317  1  0.70375786  0.52783048  0.93108441  1
  O  O318  1  0.09052134  0.08079010  0.02837032  1
  O  O319  1  0.08369770  0.08368801  0.36702711  1
  O  O320  1  0.08404236  0.08429885  0.70467257  1
  O  O321  1  0.08675038  0.59050869  0.03858251  1
  O  O322  1  0.08066926  0.58096606  0.36231136  1
  O  O323  1  0.06296198  0.58757542  0.70981599  1
  O  O324  1  0.58902107  0.07980857  0.02992445  1
  O  O325  1  0.59715699  0.09818679  0.37610355  1
  O  O326  1  0.58020807  0.08128213  0.70098389  1
  O  O327  1  0.58125231  0.59872014  0.04687960  1
  O  O328  1  0.57634799  0.58345506  0.37193284  1
  O  O329  1  0.58960696  0.59151104  0.70157319  1
  O  O330  1  0.41482640  0.43873646  0.12557934  1
  O  O331  1  0.41899534  0.41772825  0.46870574  1
  O  O332  1  0.40927170  0.40641930  0.80071369  1
  O  O333  1  0.40823558  0.90388086  0.12700523  1
  O  O334  1  0.41065379  0.90971450  0.45931173  1
  O  O335  1  0.41625770  0.91632621  0.79484955  1
  O  O336  1  0.90668749  0.40464179  0.12670380  1
  O  O337  1  0.91217706  0.42019180  0.46377369  1
  O  O338  1  0.91464428  0.41843415  0.80422646  1
  O  O339  1  0.91435552  0.91238527  0.12236757  1
  O  O340  1  0.91265032  0.91209002  0.46216800  1
  O  O341  1  0.90668883  0.91509333  0.79377399  1
  O  O342  1  0.41531079  0.41404863  0.29422521  1
  O  O343  1  0.40770895  0.40515142  0.62605509  1
  O  O344  1  0.41117172  0.40866668  0.96042752  1
  O  O345  1  0.41203971  0.91761246  0.29930108  1
  O  O346  1  0.42070797  0.91838122  0.62937316  1
  O  O347  1  0.41855580  0.91542921  0.96878142  1
  O  O348  1  0.91269965  0.40689168  0.29433626  1
  O  O349  1  0.91587226  0.40592468  0.62556444  1
  O  O350  1  0.90393079  0.40643500  0.95705196  1
  O  O351  1  0.93018620  0.90774685  0.28935133  1
  O  O352  1  0.91839984  0.92765098  0.64478414  1
  O  O353  1  0.91830458  0.91351443  0.96312708  1
  O  O354  1  0.08771694  0.08543415  0.20358743  1
  O  O355  1  0.08813835  0.08069479  0.53917239  1
  O  O356  1  0.09396264  0.09111080  0.87130773  1
  O  O357  1  0.08732446  0.57940965  0.20557090  1
  O  O358  1  0.10201032  0.59173610  0.54198585  1
  O  O359  1  0.08715356  0.58820517  0.87995594  1
  O  O360  1  0.58659493  0.09490174  0.19756764  1
  O  O361  1  0.58643685  0.08220490  0.53488911  1
  O  O362  1  0.58836045  0.08405288  0.87104695  1
  O  O363  1  0.58625368  0.57226084  0.21586693  1
  O  O364  1  0.57963165  0.58582595  0.53135979  1
  O  O365  1  0.59589147  0.58854507  0.87088047  1
  O  O366  1  0.14409877  0.21755083  0.06083150  1
  O  O367  1  0.13720949  0.21871193  0.39211947  1
  O  O368  1  0.13979280  0.21724258  0.72544592  1
  O  O369  1  0.13356041  0.72388671  0.05088257  1
  O  O370  1  0.13451737  0.71467643  0.38624332  1
  O  O371  1  0.12868480  0.71595749  0.72846366  1
  O  O372  1  0.64290238  0.21383746  0.05236537  1
  O  O373  1  0.64284043  0.23403854  0.39897174  1
  O  O374  1  0.63702113  0.21419290  0.72211040  1
  O  O375  1  0.63715026  0.72958344  0.06106491  1
  O  O376  1  0.62829516  0.71409403  0.38341415  1
  O  O377  1  0.64060270  0.72678999  0.72549872  1
  O  O378  1  0.28887854  0.36835107  0.10895546  1
  O  O379  1  0.28442575  0.36391187  0.44594669  1
  O  O380  1  0.27335031  0.35679279  0.77296109  1
  O  O381  1  0.27309951  0.85689689  0.10652954  1
  O  O382  1  0.27765980  0.86219144  0.44752522  1
  O  O383  1  0.28268153  0.85971361  0.77344387  1
  O  O384  1  0.77093119  0.36053098  0.10692543  1
  O  O385  1  0.77860713  0.37199710  0.44699846  1
  O  O386  1  0.77975707  0.36168711  0.77682583  1
  O  O387  1  0.78393223  0.86045192  0.11197708  1
  O  O388  1  0.77619319  0.86455983  0.44104015  1
  O  O389  1  0.77250659  0.86362810  0.77275947  1
  O  O390  1  0.36623831  0.27937524  0.27800309  1
  O  O391  1  0.35709925  0.27026391  0.60412589  1
  O  O392  1  0.36318957  0.27457660  0.94036108  1
  O  O393  1  0.36365931  0.78563620  0.28872440  1
  O  O394  1  0.36209827  0.78578628  0.60662716  1
  O  O395  1  0.35936218  0.78104665  0.94071401  1
  O  O396  1  0.86307672  0.27235554  0.27479819  1
  O  O397  1  0.86542432  0.27220065  0.60628394  1
  O  O398  1  0.86209395  0.27066213  0.93728901  1
  O  O399  1  0.86025670  0.78107432  0.27148661  1
  O  O400  1  0.86331578  0.79215054  0.61755397  1
  O  O401  1  0.86376002  0.78092237  0.94122171  1
  O  O402  1  0.22283111  0.13445451  0.22131200  1
  O  O403  1  0.22017273  0.13702099  0.55590896  1
  O  O404  1  0.22914391  0.13957895  0.89395211  1
  O  O405  1  0.21817917  0.63386974  0.21857104  1
  O  O406  1  0.23349479  0.63569287  0.55336372  1
  O  O407  1  0.22057180  0.63366708  0.89270340  1
  O  O408  1  0.72117324  0.14667575  0.21969224  1
  O  O409  1  0.71934111  0.14303578  0.56081349  1
  O  O410  1  0.72335625  0.13563852  0.89149366  1
  O  O411  1  0.71437846  0.63518523  0.22988246  1
  O  O412  1  0.71517586  0.64162314  0.56321570  1
  O  O413  1  0.72927996  0.64027921  0.89346558  1
  O  O414  1  0.49427973  0.33172836  0.02839797  1
  O  O415  1  0.49394886  0.34059447  0.36732243  1
  O  O416  1  0.48690755  0.32576518  0.69358138  1
  O  O417  1  0.48834563  0.83215295  0.03498740  1
  O  O418  1  0.49833656  0.84119151  0.36100291  1
  O  O419  1  0.49373193  0.83634527  0.69568213  1
  O  O420  1  0.99254164  0.33229041  0.02471999  1
  O  O421  1  0.99005990  0.33130279  0.36784173  1
  O  O422  1  0.99213259  0.32990660  0.69935289  1
  O  O423  1  0.99472879  0.83330752  0.03101273  1
  O  O424  1  0.99144974  0.82467015  0.36120905  1
  O  O425  1  0.99587270  0.84314493  0.70261925  1
  O  O426  1  0.16336666  0.00435011  0.13515402  1
  O  O427  1  0.16856824  0.00517676  0.47098676  1
  O  O428  1  0.17087234  0.00951605  0.80429136  1
  O  O429  1  0.16377953  0.50279732  0.13375592  1
  O  O430  1  0.17150093  0.50764131  0.46449210  1
  O  O431  1  0.15715367  0.50385004  0.80580532  1
  O  O432  1  0.66942463  0.01203251  0.14020386  1
  O  O433  1  0.67110382  0.01183301  0.47028562  1
  O  O434  1  0.66541213  0.00626064  0.80241238  1
  O  O435  1  0.66307180  0.50433189  0.13992221  1
  O  O436  1  0.66609665  0.51219711  0.47090202  1
  O  O437  1  0.67263541  0.51247660  0.79917782  1
  O  O438  1  0.00819630  0.16487043  0.30087480  1
  O  O439  1  0.00890443  0.16457597  0.63707534  1
  O  O440  1  0.01348704  0.16758141  0.97070744  1
  O  O441  1  0.00381597  0.66151714  0.29714065  1
  O  O442  1  -0.00464096  0.67155431  0.64159126  1
  O  O443  1  0.00235158  0.66456399  0.97061623  1
  O  O444  1  0.51576263  0.17456777  0.30564357  1
  O  O445  1  0.50548660  0.16181597  0.63409816  1
  O  O446  1  0.50997176  0.16201367  0.96892466  1
  O  O447  1  0.49210427  0.66167944  0.30686937  1
  O  O448  1  0.50991984  0.67258756  0.63767971  1
  O  O449  1  0.50913970  0.67338773  0.96915668  1
  O  O450  1  0.33067513  0.50016863  0.19650257  1
  O  O451  1  0.33973633  0.49448239  0.53481547  1
  O  O452  1  0.32632880  0.48698407  0.86165080  1
  O  O453  1  0.33054866  0.98721873  0.19360536  1
  O  O454  1  0.33822669  0.99342501  0.52967579  1
  O  O455  1  0.33697391  0.99055386  0.86322349  1
  O  O456  1  0.83195850  0.48866674  0.19613509  1
  O  O457  1  0.83772789  0.50523920  0.53046637  1
  O  O458  1  0.83272605  0.49036578  0.87150399  1
  O  O459  1  0.84108503  0.99491002  0.19242462  1
  O  O460  1  0.83770404  0.99140334  0.53360970  1
  O  O461  1  0.82888062  0.99227211  0.86354228  1
