# generated using pymatgen
data_Na31Fe20(SO4)36
_symmetry_space_group_name_H-M   'P 1'
_cell_length_a   18.07606606
_cell_length_b   18.08365709
_cell_length_c   19.71497066
_cell_angle_alpha   107.59779289
_cell_angle_beta   107.58482989
_cell_angle_gamma   90.76026880
_symmetry_Int_Tables_number   1
_chemical_formula_structural   Na31Fe20(SO4)36
_chemical_formula_sum   'Na62 Fe40 S72 O288'
_cell_volume   5816.88415915
_cell_formula_units_Z   2
loop_
 _symmetry_equiv_pos_site_id
 _symmetry_equiv_pos_as_xyz
  1  'x, y, z'
loop_
 _atom_site_type_symbol
 _atom_site_label
 _atom_site_symmetry_multiplicity
 _atom_site_fract_x
 _atom_site_fract_y
 _atom_site_fract_z
 _atom_site_occupancy
  Na  Na0  1  0.13778691  0.36605309  0.09070378  1
  Na  Na1  1  0.13647040  0.36402723  0.41641041  1
  Na  Na2  1  0.14054547  0.36426518  0.75683141  1
  Na  Na3  1  0.13213318  0.85626304  0.07995064  1
  Na  Na4  1  0.12798527  0.85525530  0.40104027  1
  Na  Na5  1  0.13184002  0.86883986  0.74736274  1
  Na  Na6  1  0.63414081  0.37368455  0.08598487  1
  Na  Na7  1  0.63428712  0.36418306  0.41373753  1
  Na  Na8  1  0.63811873  0.37664995  0.75340033  1
  Na  Na9  1  0.63056981  0.85577291  0.08013798  1
  Na  Na10  1  0.62095701  0.85375704  0.39473492  1
  Na  Na11  1  0.63402616  0.86942341  0.75288190  1
  Na  Na12  1  0.35801794  0.12482241  0.23244893  1
  Na  Na13  1  0.35552109  0.13290548  0.58178798  1
  Na  Na14  1  0.36874213  0.13253318  0.91563076  1
  Na  Na15  1  0.35633282  0.63332503  0.24547757  1
  Na  Na16  1  0.37293849  0.63130517  0.58785906  1
  Na  Na17  1  0.37768650  0.65859896  0.95355883  1
  Na  Na18  1  0.86433863  0.13828394  0.25290075  1
  Na  Na19  1  0.86290688  0.13591333  0.58425165  1
  Na  Na20  1  0.86109090  0.13618364  0.91162837  1
  Na  Na21  1  0.87273664  0.64105149  0.24962302  1
  Na  Na22  1  0.86379055  0.63577622  0.58594958  1
  Na  Na23  1  0.87186483  0.64197308  0.92886849  1
  Na  Na24  1  0.97828273  0.51341644  0.75300621  1
  Na  Na25  1  0.46051742  0.00273887  0.75742109  1
  Na  Na26  1  1.01439211  -0.01594524  0.07798573  1
  Na  Na27  1  0.49140529  0.00851609  0.40703282  1
  Na  Na28  1  1.00164940  0.56280242  0.10096982  1
  Na  Na29  1  0.99206637  0.51336995  0.41521993  1
  Na  Na30  1  0.45736610  0.50807894  0.40338496  1
  Na  Na31  1  0.51160409  -0.03850823  0.13564790  1
  Na  Na32  1  0.98966497  0.01123051  0.41794962  1
  Na  Na33  1  0.01076125  0.48802931  0.58578282  1
  Na  Na34  1  0.01310320  0.48447854  0.92158562  1
  Na  Na35  1  0.04022373  0.99490855  0.91635724  1
  Na  Na36  1  0.01477075  0.49485768  0.24800145  1
  Na  Na37  1  0.00781575  0.98333772  0.60043827  1
  Na  Na38  1  0.47671818  1.00731969  0.59170300  1
  Na  Na39  1  0.50722476  0.50298751  0.90568747  1
  Na  Na40  1  0.48484208  0.53506854  0.20528330  1
  Na  Na41  1  -0.00246428  0.93461453  0.22779750  1
  Na  Na42  1  0.25204072  0.75396401  0.32102106  1
  Na  Na43  1  0.74883052  0.74789029  0.00704964  1
  Na  Na44  1  0.25870602  0.25784973  0.32383291  1
  Na  Na45  1  0.75420035  0.25728427  -0.00846340  1
  Na  Na46  1  0.73831284  0.73546513  0.67655948  1
  Na  Na47  1  0.26361110  0.25711055  -0.01124106  1
  Na  Na48  1  0.74314902  0.24786245  0.67504745  1
  Na  Na49  1  0.25688893  0.76092039  0.66130063  1
  Na  Na50  1  0.74269603  0.74669298  0.33609498  1
  Na  Na51  1  0.24296693  0.23781593  0.68144304  1
  Na  Na52  1  0.75344869  0.25771786  0.48974128  1
  Na  Na53  1  0.73752527  0.74106314  0.17262914  1
  Na  Na54  1  0.73767722  0.74108783  0.50263318  1
  Na  Na55  1  0.73885223  0.73203923  0.83834655  1
  Na  Na56  1  0.24747984  0.74430004  0.85098570  1
  Na  Na57  1  0.27546833  0.76064697  0.14137828  1
  Na  Na58  1  0.25209905  0.25262536  0.49969667  1
  Na  Na59  1  0.25184524  0.25312545  0.15976612  1
  Na  Na60  1  0.25951212  0.76703283  0.49456764  1
  Na  Na61  1  0.74265805  0.24366500  0.17459917  1
  Fe  Fe62  1  0.96416591  0.30653326  0.11622038  1
  Fe  Fe63  1  0.46821829  0.30847374  0.11918376  1
  Fe  Fe64  1  0.46390715  0.81233760  0.79116731  1
  Fe  Fe65  1  0.46705646  0.30942662  0.45420064  1
  Fe  Fe66  1  0.46386229  0.81033904  0.45486429  1
  Fe  Fe67  1  0.96576048  0.80343300  0.45017262  1
  Fe  Fe68  1  0.46744453  0.30793217  0.78623716  1
  Fe  Fe69  1  0.96645653  0.80928387  0.78624582  1
  Fe  Fe70  1  0.96543153  0.30321251  0.78540219  1
  Fe  Fe71  1  0.96313432  0.30776571  0.45024478  1
  Fe  Fe72  1  0.19626203  0.52987252  0.05228773  1
  Fe  Fe73  1  0.19925366  0.53122768  0.37918528  1
  Fe  Fe74  1  0.68406466  0.53702790  0.37364836  1
  Fe  Fe75  1  0.19057210  0.03428651  0.37920137  1
  Fe  Fe76  1  0.68720713  0.03309998  0.04372640  1
  Fe  Fe77  1  0.68924899  0.03688576  0.37795279  1
  Fe  Fe78  1  0.19843085  0.03435127  0.71215107  1
  Fe  Fe79  1  0.69303213  0.03585405  0.71424233  1
  Fe  Fe80  1  0.69421563  0.53588894  0.04600838  1
  Fe  Fe81  1  0.19595942  0.53529588  0.71860269  1
  Fe  Fe82  1  0.03362828  0.19577932  0.54972902  1
  Fe  Fe83  1  0.53703784  0.19367941  0.88029428  1
  Fe  Fe84  1  0.03777567  0.69341500  0.88476914  1
  Fe  Fe85  1  0.53594790  0.19357388  0.54746468  1
  Fe  Fe86  1  0.53696724  0.19243355  0.21398694  1
  Fe  Fe87  1  0.03624285  0.18888053  0.88142377  1
  Fe  Fe88  1  0.53586892  0.69269140  0.55003207  1
  Fe  Fe89  1  0.03058408  0.18713265  0.21068813  1
  Fe  Fe90  1  0.03587785  0.69159512  0.55010087  1
  Fe  Fe91  1  0.53618008  0.68856955  0.87528919  1
  Fe  Fe92  1  0.31127646  0.46048968  0.95448698  1
  Fe  Fe93  1  0.80857577  0.96452010  0.62088353  1
  Fe  Fe94  1  0.80898600  0.96391777  0.95223674  1
  Fe  Fe95  1  0.31526435  0.46506433  0.62600749  1
  Fe  Fe96  1  0.80580363  0.96838707  0.28282314  1
  Fe  Fe97  1  0.80724637  0.46412738  0.28488493  1
  Fe  Fe98  1  0.30244417  0.96657520  0.28092496  1
  Fe  Fe99  1  0.30276423  0.96893866  0.96184409  1
  Fe  Fe100  1  0.79766150  0.47086150  0.62017325  1
  Fe  Fe101  1  0.80819272  0.46637639  0.94944664  1
  S  S102  1  0.36339095  0.14135809  0.08171980  1
  S  S103  1  0.35933468  0.14150534  0.41733108  1
  S  S104  1  0.36470595  0.14094505  0.74797943  1
  S  S105  1  0.36074522  0.63023666  0.08735031  1
  S  S106  1  0.35862446  0.64642459  0.42221935  1
  S  S107  1  0.35721357  0.64386382  0.75215561  1
  S  S108  1  0.85462564  0.14268079  0.08015388  1
  S  S109  1  0.85919580  0.14093517  0.41867570  1
  S  S110  1  0.85987012  0.13929749  0.74801953  1
  S  S111  1  0.85927315  0.64074175  0.08330526  1
  S  S112  1  0.86018297  0.63790294  0.41742186  1
  S  S113  1  0.86194342  0.64307112  0.74846935  1
  S  S114  1  0.13626268  0.35484528  0.25306713  1
  S  S115  1  0.14073201  0.36109631  0.58431918  1
  S  S116  1  0.14023886  0.35699948  0.91671341  1
  S  S117  1  0.13999782  0.85960456  0.24943229  1
  S  S118  1  0.13835452  0.85877682  0.58430459  1
  S  S119  1  0.13903895  0.85832033  0.91510658  1
  S  S120  1  0.64154804  0.35944323  0.24948032  1
  S  S121  1  0.64234040  0.35481013  0.58051154  1
  S  S122  1  0.64224288  0.36126422  0.91515080  1
  S  S123  1  0.64377260  0.86453305  0.24780560  1
  S  S124  1  0.64236283  0.85997322  0.58317420  1
  S  S125  1  0.64200937  0.85927691  0.91607827  1
  S  S126  1  0.05952507  0.16621483  0.04216693  1
  S  S127  1  0.06391583  0.17100259  0.37770692  1
  S  S128  1  0.06734038  0.17043711  0.70812557  1
  S  S129  1  0.07341322  0.66376037  0.03939231  1
  S  S130  1  0.06636094  0.66432341  0.37922211  1
  S  S131  1  0.06794383  0.66573824  0.70958100  1
  S  S132  1  0.57351908  0.17721662  0.04378173  1
  S  S133  1  0.56364654  0.16822628  0.37510567  1
  S  S134  1  0.56790042  0.17000067  0.70603732  1
  S  S135  1  0.57268848  0.66795755  0.03865822  1
  S  S136  1  0.55994754  0.66905043  0.37634993  1
  S  S137  1  0.56840470  0.67520516  0.71474268  1
  S  S138  1  0.33011054  0.42782863  0.12348061  1
  S  S139  1  0.32989406  0.43179119  0.46018293  1
  S  S140  1  0.33068196  0.43167474  0.79053197  1
  S  S141  1  0.32306743  0.93122803  0.12002083  1
  S  S142  1  0.32772495  0.93877420  0.45813885  1
  S  S143  1  0.32256320  0.93188192  0.79432785  1
  S  S144  1  0.83288373  0.43292044  0.12539097  1
  S  S145  1  0.83271420  0.43388442  0.45930896  1
  S  S146  1  0.84046800  0.43434624  0.79181818  1
  S  S147  1  0.83094021  0.94120945  0.11942963  1
  S  S148  1  0.83281455  0.93351524  0.45978032  1
  S  S149  1  0.83095778  0.93237066  0.79002340  1
  S  S150  1  0.43429240  0.32595362  0.28836278  1
  S  S151  1  0.43339441  0.32550572  0.62281817  1
  S  S152  1  0.43638319  0.32945543  0.95576217  1
  S  S153  1  0.42720622  0.83287742  0.29337960  1
  S  S154  1  0.43765776  0.83439513  0.62702627  1
  S  S155  1  0.43192586  0.83766554  0.95932242  1
  S  S156  1  0.93222441  0.33296978  0.29166093  1
  S  S157  1  0.93419572  0.33225615  0.62408219  1
  S  S158  1  0.93434459  0.33075458  0.95831580  1
  S  S159  1  0.92515422  0.83376446  0.29346531  1
  S  S160  1  0.92950100  0.82673491  0.62044676  1
  S  S161  1  0.93435368  0.83043948  0.95347766  1
  S  S162  1  0.16443266  0.06661365  0.20923630  1
  S  S163  1  0.16336406  0.06964460  0.54110086  1
  S  S164  1  0.17455838  0.06776231  0.87545216  1
  S  S165  1  0.16964729  0.55911141  0.21469458  1
  S  S166  1  0.16994386  0.56570605  0.54476593  1
  S  S167  1  0.16858166  0.56322727  0.87398491  1
  S  S168  1  0.67307122  0.07054157  0.20824516  1
  S  S169  1  0.66916350  0.06521482  0.54208952  1
  S  S170  1  0.66791635  0.06661370  0.87416118  1
  S  S171  1  0.67683970  0.56969944  0.21329225  1
  S  S172  1  0.66968250  0.56754929  0.53817917  1
  S  S173  1  0.67430735  0.56549596  0.87485514  1
  O  O174  1  0.37777865  0.21729396  0.06815588  1
  O  O175  1  0.36691082  0.22255216  0.41344079  1
  O  O176  1  0.37447300  0.22139147  0.74203257  1
  O  O177  1  0.36676336  0.70669227  0.07770958  1
  O  O178  1  0.36461752  0.73029554  0.42353288  1
  O  O179  1  0.36420252  0.72165783  0.74114163  1
  O  O180  1  0.86592751  0.22130812  0.07160169  1
  O  O181  1  0.86797448  0.22068310  0.41377718  1
  O  O182  1  0.86955856  0.21725736  0.73702112  1
  O  O183  1  0.86519042  0.71296170  0.06584675  1
  O  O184  1  0.86968608  0.71621680  0.40845215  1
  O  O185  1  0.87635426  0.71921034  0.73517152  1
  O  O186  1  0.29030339  0.13989962  0.09824427  1
  O  O187  1  0.28170833  0.13117784  0.42832493  1
  O  O188  1  0.28349033  0.13155490  0.74985751  1
  O  O189  1  0.28096628  0.61937847  0.09747677  1
  O  O190  1  0.27996232  0.63333479  0.43019315  1
  O  O191  1  0.27798898  0.63334955  0.76006677  1
  O  O192  1  0.77496633  0.13532279  0.08640452  1
  O  O193  1  0.78059402  0.12959887  0.42702872  1
  O  O194  1  0.78040743  0.13061235  0.75424201  1
  O  O195  1  0.77883083  0.62934985  0.09077890  1
  O  O196  1  0.77994492  0.62918007  0.42256148  1
  O  O197  1  0.78385294  0.63887157  0.75457571  1
  O  O198  1  0.11828404  0.27906448  0.26540622  1
  O  O199  1  0.13132871  0.28242801  0.59260649  1
  O  O200  1  0.13154152  0.27861339  0.92590317  1
  O  O201  1  0.13214084  0.78889722  0.26914436  1
  O  O202  1  0.12460706  0.78354030  0.59985288  1
  O  O203  1  0.13301194  0.77591335  0.91467063  1
  O  O204  1  0.63258387  0.28022579  0.25577752  1
  O  O205  1  0.63567097  0.27048604  0.57939832  1
  O  O206  1  0.63235415  0.28093263  0.91983725  1
  O  O207  1  0.64046816  0.78899977  0.26058903  1
  O  O208  1  0.63579491  0.78054758  0.59135935  1
  O  O209  1  0.63273284  0.77808236  0.91955771  1
  O  O210  1  0.21364405  0.35424529  0.24454752  1
  O  O211  1  0.21941281  0.37053157  0.57652383  1
  O  O212  1  0.21801845  0.36715222  0.90772616  1
  O  O213  1  0.22125411  0.87055883  0.24509481  1
  O  O214  1  0.21687930  0.86396776  0.57957757  1
  O  O215  1  0.22032528  0.87298254  0.91164874  1
  O  O216  1  0.72002730  0.36898162  0.23984059  1
  O  O217  1  0.72182247  0.36722917  0.57209993  1
  O  O218  1  0.72025770  0.37108786  0.90633603  1
  O  O219  1  0.72321588  0.87633274  0.23741319  1
  O  O220  1  0.72132096  0.86990472  0.57477580  1
  O  O221  1  0.72137348  0.86842199  0.90765297  1
  O  O222  1  0.42815547  0.12988137  0.14439497  1
  O  O223  1  0.42061468  0.13058849  0.48315172  1
  O  O224  1  0.42053066  0.13471527  0.81968895  1
  O  O225  1  0.41888252  0.61948337  0.15224016  1
  O  O226  1  0.41816640  0.63571843  0.48966723  1
  O  O227  1  0.41630685  0.63870599  0.82081370  1
  O  O228  1  0.91197731  0.13650687  0.15017226  1
  O  O229  1  0.91885649  0.13068343  0.48574624  1
  O  O230  1  0.91822850  0.13438273  0.81736118  1
  O  O231  1  0.91693945  0.63649393  0.15201715  1
  O  O232  1  0.91751934  0.63078919  0.48715893  1
  O  O233  1  0.92145739  0.63452432  0.81655737  1
  O  O234  1  0.36158231  0.07923394  0.01011596  1
  O  O235  1  0.36594500  0.08526108  0.34752792  1
  O  O236  1  0.37986374  0.08319658  0.68460425  1
  O  O237  1  0.36350308  0.56988775  0.01586473  1
  O  O238  1  0.36941238  0.59417311  0.35433623  1
  O  O239  1  0.36397454  0.58378293  0.68414414  1
  O  O240  1  0.86364140  0.08296941  0.01309597  1
  O  O241  1  0.86823852  0.08332891  0.35023083  1
  O  O242  1  0.86870894  0.07935748  0.68079643  1
  O  O243  1  0.86909416  0.57474025  0.01775031  1
  O  O244  1  0.87229322  0.57785339  0.35205531  1
  O  O245  1  0.87080497  0.58053372  0.68155380  1
  O  O246  1  0.07735863  0.36540302  0.18534497  1
  O  O247  1  0.08093167  0.36896214  0.51599197  1
  O  O248  1  0.07974991  0.36409385  0.84838288  1
  O  O249  1  0.08364341  0.86245908  0.17931616  1
  O  O250  1  0.07947950  0.86240486  0.51348729  1
  O  O251  1  0.08307192  0.86655882  0.84377991  1
  O  O252  1  0.58220912  0.37008353  0.18285746  1
  O  O253  1  0.58378979  0.36263593  0.51170505  1
  O  O254  1  0.58105384  0.37209103  0.84936443  1
  O  O255  1  0.58467278  0.87196231  0.18198420  1
  O  O256  1  0.58305765  0.86703795  0.51537336  1
  O  O257  1  0.58347372  0.87102276  0.85036652  1
  O  O258  1  0.13029443  0.41821083  0.32028416  1
  O  O259  1  0.13102426  0.42055877  0.65146252  1
  O  O260  1  0.12973258  0.41652578  0.98351917  1
  O  O261  1  0.12768335  0.92680627  0.31347966  1
  O  O262  1  0.12606940  0.92274589  0.64807935  1
  O  O263  1  0.12342399  0.91281470  0.97932704  1
  O  O264  1  0.63610853  0.41762661  0.31888294  1
  O  O265  1  0.63570269  0.40691674  0.64937856  1
  O  O266  1  0.63573070  0.41789381  0.98522063  1
  O  O267  1  0.63984032  0.92606702  0.31813657  1
  O  O268  1  0.63513094  0.91846211  0.65184306  1
  O  O269  1  0.63670479  0.91438930  0.98685218  1
  O  O270  1  0.02450080  0.20351436  0.10428054  1
  O  O271  1  0.02736016  0.20352263  0.43905803  1
  O  O272  1  0.03225775  0.19851883  0.77057740  1
  O  O273  1  0.04166032  0.68549622  0.10067236  1
  O  O274  1  0.03322753  0.69551388  0.44443174  1
  O  O275  1  0.03240674  0.69575581  0.77028427  1
  O  O276  1  0.53807371  0.20764160  0.10521085  1
  O  O277  1  0.52426098  0.19884463  0.43401962  1
  O  O278  1  0.53497772  0.20154926  0.76923473  1
  O  O279  1  0.54141830  0.69097832  0.09953044  1
  O  O280  1  0.52991136  0.70302581  0.44261076  1
  O  O281  1  0.52600495  0.70949588  0.77219923  1
  O  O282  1  0.29365034  0.45423602  0.05560852  1
  O  O283  1  0.30102800  0.47063047  0.40283077  1
  O  O284  1  0.30082116  0.47052261  0.73061333  1
  O  O285  1  0.30047192  0.97192692  0.06088256  1
  O  O286  1  0.29752714  0.97159791  0.39389742  1
  O  O287  1  0.29809184  0.97295038  0.73790241  1
  O  O288  1  0.80219963  0.46636390  0.06308397  1
  O  O289  1  0.80399948  0.46846509  0.39748268  1
  O  O290  1  0.82115807  0.46937187  0.73113997  1
  O  O291  1  0.79176469  0.97839773  0.05959023  1
  O  O292  1  0.80449194  0.97055774  0.39988195  1
  O  O293  1  0.80125512  0.96964063  0.72920092  1
  O  O294  1  0.47181872  0.29266555  0.22758238  1
  O  O295  1  0.47242976  0.29719434  0.56307152  1
  O  O296  1  0.47369721  0.29714145  0.89486508  1
  O  O297  1  0.46258732  0.81053589  0.23542298  1
  O  O298  1  0.47702802  0.80061347  0.56839816  1
  O  O299  1  0.46583451  0.80998928  0.89538487  1
  O  O300  1  0.96316744  0.30131992  0.22787297  1
  O  O301  1  0.97059316  0.30130514  0.56265204  1
  O  O302  1  0.96905585  0.29681575  0.89620183  1
  O  O303  1  0.95332737  0.81215295  0.22991673  1
  O  O304  1  0.96537455  0.79668018  0.55903597  1
  O  O305  1  0.96857475  0.79791387  0.88962387  1
  O  O306  1  0.20230859  0.03931801  0.27629641  1
  O  O307  1  0.18836963  0.03590187  0.60208381  1
  O  O308  1  0.20123531  0.02631953  0.93207404  1
  O  O309  1  0.20454137  0.52342919  0.27405620  1
  O  O310  1  0.19900578  0.53034429  0.60643928  1
  O  O311  1  0.19672615  0.52682173  0.93436719  1
  O  O312  1  0.70629048  0.03903276  0.27246681  1
  O  O313  1  0.69843767  0.02888539  0.60327089  1
  O  O314  1  0.69521831  0.02764664  0.93328353  1
  O  O315  1  0.70921271  0.52856170  0.27228056  1
  O  O316  1  0.69841708  0.53156366  0.59764114  1
  O  O317  1  0.70483321  0.53069734  0.93885945  1
  O  O318  1  0.06676566  0.08442070  0.03792000  1
  O  O319  1  0.07892392  0.08935938  0.37396982  1
  O  O320  1  0.08852850  0.09015538  0.70154954  1
  O  O321  1  0.09086824  0.57860092  0.02619371  1
  O  O322  1  0.08759981  0.58318750  0.37823462  1
  O  O323  1  0.08297198  0.58241514  0.70339442  1
  O  O324  1  0.59575161  0.09858800  0.04318803  1
  O  O325  1  0.58279671  0.08800643  0.37604378  1
  O  O326  1  0.58669788  0.08858702  0.70243469  1
  O  O327  1  0.59073112  0.58378472  0.02214240  1
  O  O328  1  0.58124936  0.58862943  0.37562838  1
  O  O329  1  0.59092351  0.60062264  0.71900762  1
  O  O330  1  0.40999268  0.40640198  0.12178400  1
  O  O331  1  0.41029097  0.41191171  0.46111239  1
  O  O332  1  0.41177259  0.41321604  0.79397740  1
  O  O333  1  0.40020572  0.90678359  0.12772414  1
  O  O334  1  0.40999326  0.91894834  0.46362282  1
  O  O335  1  0.40418708  0.91355068  0.79888994  1
  O  O336  1  0.91512509  0.41524402  0.13109145  1
  O  O337  1  0.91694395  0.41857956  0.46562202  1
  O  O338  1  0.92423878  0.41409606  0.80307814  1
  O  O339  1  0.91070608  0.93202609  0.11697370  1
  O  O340  1  0.91643698  0.91794271  0.46849973  1
  O  O341  1  0.91281676  0.91578522  0.79643291  1
  O  O342  1  0.41882431  0.40546156  0.29198146  1
  O  O343  1  0.41208114  0.40453786  0.62623433  1
  O  O344  1  0.41770341  0.40905792  0.95487004  1
  O  O345  1  0.40472484  0.91547062  0.30619095  1
  O  O346  1  0.42540189  0.91539868  0.63044277  1
  O  O347  1  0.39995443  0.91464745  0.96011198  1
  O  O348  1  0.91789772  0.41660460  0.29799928  1
  O  O349  1  0.91953635  0.41463043  0.62906524  1
  O  O350  1  0.91788660  0.41202327  0.95988398  1
  O  O351  1  0.91007671  0.91955549  0.30956822  1
  O  O352  1  0.91371282  0.90874799  0.62579454  1
  O  O353  1  0.91381089  0.91141064  0.95399218  1
  O  O354  1  0.08400569  0.08705518  0.21154775  1
  O  O355  1  0.07989124  0.08847549  0.53133532  1
  O  O356  1  0.09447169  0.08915115  0.87636138  1
  O  O357  1  0.08752367  0.56931159  0.21080750  1
  O  O358  1  0.08560162  0.57925832  0.53757655  1
  O  O359  1  0.08516629  0.57946554  0.86584353  1
  O  O360  1  0.59264599  0.08934653  0.20670741  1
  O  O361  1  0.58701928  0.08316828  0.53645756  1
  O  O362  1  0.58589566  0.08484839  0.86606883  1
  O  O363  1  0.60108901  0.59117211  0.21675448  1
  O  O364  1  0.58811958  0.58631000  0.53055638  1
  O  O365  1  0.59324042  0.58513889  0.87249594  1
  O  O366  1  0.13346208  0.21369143  0.05796644  1
  O  O367  1  0.13687054  0.22103435  0.39505708  1
  O  O368  1  0.13494701  0.22520866  0.72148481  1
  O  O369  1  0.14299916  0.71403593  0.04914108  1
  O  O370  1  0.13645294  0.71708042  0.39414413  1
  O  O371  1  0.13970300  0.71540594  0.72412601  1
  O  O372  1  0.64225365  0.23192473  0.05730318  1
  O  O373  1  0.63480277  0.22006664  0.39184520  1
  O  O374  1  0.63567342  0.22213271  0.71564522  1
  O  O375  1  0.64536197  0.71934898  0.05229613  1
  O  O376  1  0.63203087  0.72025083  0.39004491  1
  O  O377  1  0.63638120  0.73388195  0.73146805  1
  O  O378  1  0.27939126  0.35698552  0.11294334  1
  O  O379  1  0.27716795  0.35982845  0.44342311  1
  O  O380  1  0.27749146  0.36103069  0.77177285  1
  O  O381  1  0.26294963  0.86608561  0.10085800  1
  O  O382  1  0.27531110  0.86717337  0.44160798  1
  O  O383  1  0.26978056  0.85982085  0.77422330  1
  O  O384  1  0.78186122  0.36176124  0.11169241  1
  O  O385  1  0.78362259  0.36223039  0.44492659  1
  O  O386  1  0.78687545  0.36471310  0.77501793  1
  O  O387  1  0.78341794  0.86774525  0.10448588  1
  O  O388  1  0.78240879  0.86117558  0.44350385  1
  O  O389  1  0.77886507  0.86086087  0.77258453  1
  O  O390  1  0.36301093  0.27218455  0.27115960  1
  O  O391  1  0.36328213  0.27048597  0.60463878  1
  O  O392  1  0.36650810  0.27724032  0.94131768  1
  O  O393  1  0.35694799  0.77876420  0.27943010  1
  O  O394  1  0.36455571  0.78332602  0.60826475  1
  O  O395  1  0.36691196  0.77948359  0.94579522  1
  O  O396  1  0.86103856  0.28454339  0.28055515  1
  O  O397  1  0.86185463  0.28146240  0.60687087  1
  O  O398  1  0.86367257  0.28113549  0.94657862  1
  O  O399  1  0.85387775  0.78433704  0.28336408  1
  O  O400  1  0.85743207  0.77611291  0.60406375  1
  O  O401  1  0.86335594  0.77846728  0.93796936  1
  O  O402  1  0.21370136  0.13727960  0.21816803  1
  O  O403  1  0.21486272  0.14183669  0.55707980  1
  O  O404  1  0.22839405  0.13744042  0.89250657  1
  O  O405  1  0.21661619  0.63292025  0.22900631  1
  O  O406  1  0.21826401  0.63928034  0.56170893  1
  O  O407  1  0.21930890  0.63339683  0.88746567  1
  O  O408  1  0.72470601  0.13893267  0.21805131  1
  O  O409  1  0.72194183  0.13636099  0.55948446  1
  O  O410  1  0.72125117  0.13719589  0.89261114  1
  O  O411  1  0.73409912  0.63827034  0.23136167  1
  O  O412  1  0.72233263  0.64023572  0.55572640  1
  O  O413  1  0.72664487  0.63877895  0.89536173  1
  O  O414  1  0.49642775  0.33467209  0.02875167  1
  O  O415  1  0.49242558  0.32532692  0.36132735  1
  O  O416  1  0.49227113  0.32769931  0.69536160  1
  O  O417  1  0.49597674  0.85011105  0.02927451  1
  O  O418  1  0.48682150  0.83675501  0.36897999  1
  O  O419  1  0.49231443  0.83565752  0.70201715  1
  O  O420  1  0.99563384  0.33535946  0.03085404  1
  O  O421  1  0.99369722  0.33621151  0.36385930  1
  O  O422  1  0.99280457  0.33246448  0.69611563  1
  O  O423  1  0.99539668  0.83734588  0.02380426  1
  O  O424  1  0.98784106  0.83220671  0.36440013  1
  O  O425  1  0.98889712  0.82690536  0.69201406  1
  O  O426  1  0.15366112  0.00233073  0.14001565  1
  O  O427  1  0.16190250  0.01031511  0.46865511  1
  O  O428  1  0.16602972  0.01175182  0.79932661  1
  O  O429  1  0.16846655  0.50258948  0.13971721  1
  O  O430  1  0.17042976  0.50737259  0.47300252  1
  O  O431  1  0.16594181  0.50231347  0.80094763  1
  O  O432  1  0.66575481  0.00677357  0.13670096  1
  O  O433  1  0.66685282  0.00648561  0.46955013  1
  O  O434  1  0.66744495  0.00824374  0.80131462  1
  O  O435  1  0.67283968  0.51216591  0.13908429  1
  O  O436  1  0.67027073  0.50989635  0.46518700  1
  O  O437  1  0.67441595  0.50747022  0.80595739  1
  O  O438  1  0.00503661  0.17165517  0.30632930  1
  O  O439  1  0.00427546  0.16712578  0.63659631  1
  O  O440  1  0.00247432  0.16875508  0.96942717  1
  O  O441  1  0.00413376  0.65784385  0.30995602  1
  O  O442  1  0.00811829  0.66263240  0.63633613  1
  O  O443  1  0.01061006  0.66122111  0.96621086  1
  O  O444  1  0.50663436  0.16234163  0.30078431  1
  O  O445  1  0.50444210  0.16179323  0.63318674  1
  O  O446  1  0.51292316  0.17077106  0.97079023  1
  O  O447  1  0.49813335  0.66309689  0.30711972  1
  O  O448  1  0.51132736  0.67100556  0.63950434  1
  O  O449  1  0.51329581  0.66993390  0.96561668  1
  O  O450  1  0.33915975  0.49208797  0.19189546  1
  O  O451  1  0.33470909  0.48838107  0.53534316  1
  O  O452  1  0.33390525  0.49002174  0.86326426  1
  O  O453  1  0.32332526  0.99276845  0.19214807  1
  O  O454  1  0.33228652  0.99948320  0.52838065  1
  O  O455  1  0.32328199  0.98737978  0.86868302  1
  O  O456  1  0.83668068  0.49319262  0.19803412  1
  O  O457  1  0.83599805  0.49374403  0.53213468  1
  O  O458  1  0.84274149  0.49465520  0.86408981  1
  O  O459  1  0.83459933  0.99712887  0.19477320  1
  O  O460  1  0.83361546  0.99229703  0.53268033  1
  O  O461  1  0.83023158  0.99179007  0.86148055  1
