# generated using pymatgen
data_Na31Fe20(SO4)36
_symmetry_space_group_name_H-M   'P 1'
_cell_length_a   18.05918861
_cell_length_b   18.06254036
_cell_length_c   19.67798021
_cell_angle_alpha   107.58733395
_cell_angle_beta   107.57638341
_cell_angle_gamma   90.71541780
_symmetry_Int_Tables_number   1
_chemical_formula_structural   Na31Fe20(SO4)36
_chemical_formula_sum   'Na62 Fe40 S72 O288'
_cell_volume   5795.04001176
_cell_formula_units_Z   2
loop_
 _symmetry_equiv_pos_site_id
 _symmetry_equiv_pos_as_xyz
  1  'x, y, z'
loop_
 _atom_site_type_symbol
 _atom_site_label
 _atom_site_symmetry_multiplicity
 _atom_site_fract_x
 _atom_site_fract_y
 _atom_site_fract_z
 _atom_site_occupancy
  Na  Na0  1  0.13723944  0.36960924  0.08070271  1
  Na  Na1  1  0.15125594  0.37639724  0.43279905  1
  Na  Na2  1  0.14424682  0.36374343  0.75442478  1
  Na  Na3  1  0.12845299  0.85236334  0.07754017  1
  Na  Na4  1  0.14526781  0.87488467  0.43135536  1
  Na  Na5  1  0.13509489  0.85967798  0.74994551  1
  Na  Na6  1  0.62770599  0.36399693  0.07911288  1
  Na  Na7  1  0.62702305  0.36735456  0.41347872  1
  Na  Na8  1  0.63439361  0.36723902  0.75487668  1
  Na  Na9  1  0.62383604  0.85855591  0.06463895  1
  Na  Na10  1  0.63575477  0.86348193  0.41795437  1
  Na  Na11  1  0.63463293  0.86003287  0.74497207  1
  Na  Na12  1  0.36299140  0.13163983  0.24550767  1
  Na  Na13  1  0.36788182  0.12746639  0.58561046  1
  Na  Na14  1  0.35821904  0.15256921  0.91667583  1
  Na  Na15  1  0.36082258  0.63035166  0.24401137  1
  Na  Na16  1  0.35051708  0.62875110  0.56909846  1
  Na  Na17  1  0.37333600  0.63740125  0.91917836  1
  Na  Na18  1  0.86108356  0.13111489  0.24255259  1
  Na  Na19  1  0.86626585  0.13634352  0.58655889  1
  Na  Na20  1  0.86705789  0.13732315  0.91996532  1
  Na  Na21  1  0.87121402  0.63204221  0.25019208  1
  Na  Na22  1  0.87043307  0.65972127  0.61076929  1
  Na  Na23  1  0.86743307  0.63848397  0.92210540  1
  Na  Na24  1  1.00295870  0.00608288  0.39190903  1
  Na  Na25  1  0.48862758  0.00340668  0.43116166  1
  Na  Na26  1  0.46710094  0.52184385  0.75843761  1
  Na  Na27  1  1.01236877  -0.03905267  0.13772444  1
  Na  Na28  1  1.00377070  0.51420815  0.09058489  1
  Na  Na29  1  1.00850622  -0.01184986  0.75335850  1
  Na  Na30  1  0.99673248  0.52327923  0.74724032  1
  Na  Na31  1  0.46957469  0.01840024  0.73858728  1
  Na  Na32  1  1.04537588  0.48532272  0.35037990  1
  Na  Na33  1  0.49586725  1.00722904  0.92419711  1
  Na  Na34  1  0.47668442  0.50960307  0.58841339  1
  Na  Na35  1  0.50613973  0.48930143  0.93174024  1
  Na  Na36  1  0.00453040  0.95922989  0.91326146  1
  Na  Na37  1  0.01860757  0.99356597  0.58072512  1
  Na  Na38  1  0.50760236  0.99024477  0.23775806  1
  Na  Na39  1  0.05062400  0.49330779  0.92346999  1
  Na  Na40  1  0.50323415  0.48855704  0.25753750  1
  Na  Na41  1  0.02007817  0.49569907  0.56344113  1
  Na  Na42  1  0.73046733  0.23560056  0.01327971  1
  Na  Na43  1  0.75828068  0.25938874  0.31569780  1
  Na  Na44  1  0.25885913  0.26013232  0.32682603  1
  Na  Na45  1  0.75463329  0.75548001  -0.01092365  1
  Na  Na46  1  0.24548582  0.24044101  0.68090574  1
  Na  Na47  1  0.24928516  0.74909965  0.66535883  1
  Na  Na48  1  0.74953530  0.74962062  0.33290530  1
  Na  Na49  1  0.23962607  0.73514715  0.33867476  1
  Na  Na50  1  0.74741073  0.24642274  0.67411827  1
  Na  Na51  1  0.24291056  0.73731579  0.00560674  1
  Na  Na52  1  0.76715014  0.76238936  0.81470387  1
  Na  Na53  1  0.75071298  0.25185139  0.49559968  1
  Na  Na54  1  0.76068657  0.75890185  0.15704407  1
  Na  Na55  1  0.25475615  0.74774009  0.83269098  1
  Na  Na56  1  0.74293190  0.74131769  0.51629812  1
  Na  Na57  1  0.26103332  0.26176208  0.50171019  1
  Na  Na58  1  0.25775490  0.25959885  0.14894831  1
  Na  Na59  1  0.73495597  0.24042616  0.84406778  1
  Na  Na60  1  0.23618986  0.73556370  0.17247419  1
  Na  Na61  1  0.24715682  0.74939122  0.50300432  1
  Fe  Fe62  1  0.96156787  0.81116412  0.45044280  1
  Fe  Fe63  1  0.46588750  0.30936198  0.45634479  1
  Fe  Fe64  1  0.96605317  0.30401708  0.44865199  1
  Fe  Fe65  1  0.46753223  0.30419472  0.79319934  1
  Fe  Fe66  1  0.97093951  0.30713445  0.78773854  1
  Fe  Fe67  1  0.47005035  0.80016017  0.78804128  1
  Fe  Fe68  1  0.46449409  0.81062116  0.45690812  1
  Fe  Fe69  1  0.96441749  0.30751299  0.11880367  1
  Fe  Fe70  1  0.46845176  0.80139863  0.11564738  1
  Fe  Fe71  1  0.46194141  0.30683719  0.11653751  1
  Fe  Fe72  1  0.68826763  0.03947879  0.04700183  1
  Fe  Fe73  1  0.19299781  0.03392379  0.04761158  1
  Fe  Fe74  1  0.20340592  0.03269174  0.71644542  1
  Fe  Fe75  1  0.68917109  0.03495154  0.71486110  1
  Fe  Fe76  1  0.19967051  0.53133011  0.70593965  1
  Fe  Fe77  1  0.19672075  0.03359957  0.38196756  1
  Fe  Fe78  1  0.69058421  0.03509849  0.37966840  1
  Fe  Fe79  1  0.69547834  0.53420298  0.05014239  1
  Fe  Fe80  1  0.68995925  0.53405716  0.71688041  1
  Fe  Fe81  1  0.69560761  0.53349817  0.38407717  1
  Fe  Fe82  1  0.03123663  0.19278215  0.54742154  1
  Fe  Fe83  1  0.53580696  0.19564119  0.55126291  1
  Fe  Fe84  1  0.02933522  0.70270765  0.88020518  1
  Fe  Fe85  1  0.53677470  0.68398496  0.20977522  1
  Fe  Fe86  1  0.03228059  0.70253359  0.21086612  1
  Fe  Fe87  1  0.03585108  0.18913008  0.20976388  1
  Fe  Fe88  1  0.04225735  0.18908295  0.88123309  1
  Fe  Fe89  1  0.03064325  0.69606981  0.54486615  1
  Fe  Fe90  1  0.53696046  0.69088614  0.54841561  1
  Fe  Fe91  1  0.53328405  0.19066619  0.21223061  1
  Fe  Fe92  1  0.80300639  0.96465317  0.28231614  1
  Fe  Fe93  1  0.80741325  0.46581921  0.62062058  1
  Fe  Fe94  1  0.80840144  0.46547072  0.95185610  1
  Fe  Fe95  1  0.80952916  0.46269354  0.28494780  1
  Fe  Fe96  1  0.30283551  0.46875717  0.96200067  1
  Fe  Fe97  1  0.29612984  0.47229731  0.28757680  1
  Fe  Fe98  1  0.31051341  0.96225496  0.28672257  1
  Fe  Fe99  1  0.80619274  0.96795369  0.95101324  1
  Fe  Fe100  1  0.80909812  0.96478908  0.62099224  1
  Fe  Fe101  1  0.31078163  0.96510748  0.95562051  1
  S  S102  1  0.35889268  0.13897200  0.08486286  1
  S  S103  1  0.36144587  0.13926529  0.41719863  1
  S  S104  1  0.35946373  0.14157460  0.75119092  1
  S  S105  1  0.35943521  0.64070447  0.08351632  1
  S  S106  1  0.36286052  0.64176641  0.41487044  1
  S  S107  1  0.35718631  0.64258527  0.74429046  1
  S  S108  1  0.85880719  0.14218568  0.08337064  1
  S  S109  1  0.85799438  0.14052155  0.41356822  1
  S  S110  1  0.86162798  0.14268897  0.75115756  1
  S  S111  1  0.85891126  0.63911560  0.08485846  1
  S  S112  1  0.85769852  0.64086918  0.41719976  1
  S  S113  1  0.85964046  0.63598990  0.75307576  1
  S  S114  1  0.13990301  0.35266515  0.24503141  1
  S  S115  1  0.13769306  0.35767885  0.58362276  1
  S  S116  1  0.14351979  0.35615456  0.91526057  1
  S  S117  1  0.14424843  0.86274423  0.25160700  1
  S  S118  1  0.13780564  0.86294917  0.58497397  1
  S  S119  1  0.14395678  0.86019081  0.91756411  1
  S  S120  1  0.63910757  0.36041031  0.25258520  1
  S  S121  1  0.64402850  0.35817637  0.58287226  1
  S  S122  1  0.64283002  0.36131096  0.91873702  1
  S  S123  1  0.63906825  0.85816207  0.25112999  1
  S  S124  1  0.64014098  0.86040410  0.58126698  1
  S  S125  1  0.64011024  0.86273964  0.91525328  1
  S  S126  1  0.06622534  0.16569388  0.03980768  1
  S  S127  1  0.07062491  0.17281700  0.37571707  1
  S  S128  1  0.06647028  0.16501378  0.70769420  1
  S  S129  1  0.06084798  0.67088340  0.04166577  1
  S  S130  1  0.06661884  0.68427160  0.37773957  1
  S  S131  1  0.06755283  0.66650486  0.70792214  1
  S  S132  1  0.55994428  0.17141278  0.04364764  1
  S  S133  1  0.56429006  0.16775658  0.37561056  1
  S  S134  1  0.56839659  0.17182748  0.71025577  1
  S  S135  1  0.56965812  0.66659400  0.04461857  1
  S  S136  1  0.57196056  0.67012769  0.37621129  1
  S  S137  1  0.56627576  0.66524681  0.70809809  1
  S  S138  1  0.32700627  0.43091653  0.12531736  1
  S  S139  1  0.33416647  0.43064506  0.45520911  1
  S  S140  1  0.32987236  0.43446626  0.79542887  1
  S  S141  1  0.32957576  0.92788180  0.12366310  1
  S  S142  1  0.33176197  0.93396710  0.45727042  1
  S  S143  1  0.33221841  0.93094623  0.79274626  1
  S  S144  1  0.83105101  0.43004593  0.12334153  1
  S  S145  1  0.82954247  0.42967764  0.45706385  1
  S  S146  1  0.83790652  0.43155404  0.79324229  1
  S  S147  1  0.81785792  0.93344268  0.11981865  1
  S  S148  1  0.82858132  0.93748266  0.45725547  1
  S  S149  1  0.83234238  0.94312495  0.79047684  1
  S  S150  1  0.42914513  0.32868816  0.28830539  1
  S  S151  1  0.44009792  0.33310672  0.62907113  1
  S  S152  1  0.42897616  0.34098992  0.96342407  1
  S  S153  1  0.43510716  0.83033477  0.29035328  1
  S  S154  1  0.43484608  0.82550970  0.62352762  1
  S  S155  1  0.43236511  0.83324880  0.95833485  1
  S  S156  1  0.93544616  0.32780263  0.29043540  1
  S  S157  1  0.93119713  0.32906566  0.62373935  1
  S  S158  1  0.93364231  0.32992980  0.95578147  1
  S  S159  1  0.93127408  0.83335603  0.29152286  1
  S  S160  1  0.93592639  0.83850248  0.62315870  1
  S  S161  1  0.93294473  0.83445619  0.95919574  1
  S  S162  1  0.17355258  0.06643524  0.21129591  1
  S  S163  1  0.16120465  0.06957226  0.54046046  1
  S  S164  1  0.17199354  0.06385057  0.87624273  1
  S  S165  1  0.16605197  0.56661902  0.20821123  1
  S  S166  1  0.15845707  0.56746762  0.53447765  1
  S  S167  1  0.17381315  0.56870506  0.87244818  1
  S  S168  1  0.66656352  0.06509617  0.21011764  1
  S  S169  1  0.67108174  0.06936395  0.54207293  1
  S  S170  1  0.66285040  0.06176054  0.87422583  1
  S  S171  1  0.67257266  0.56356979  0.21305645  1
  S  S172  1  0.67437916  0.56708862  0.54513318  1
  S  S173  1  0.66520661  0.56020632  0.87633918  1
  O  O174  1  0.36657531  0.21984024  0.08194118  1
  O  O175  1  0.37052760  0.21890468  0.41054757  1
  O  O176  1  0.37103489  0.22432308  0.74942717  1
  O  O177  1  0.37541540  0.71617039  0.06963761  1
  O  O178  1  0.37827481  0.71810594  0.40174020  1
  O  O179  1  0.36740922  0.72594464  0.74417086  1
  O  O180  1  0.86894031  0.22035437  0.07300046  1
  O  O181  1  0.86702596  0.21919429  0.40443600  1
  O  O182  1  0.87309516  0.21999368  0.73969505  1
  O  O183  1  0.85870693  0.71554576  0.07409458  1
  O  O184  1  0.86559884  0.71882414  0.40628988  1
  O  O185  1  0.86450175  0.71234803  0.74357164  1
  O  O186  1  0.28071184  0.12765985  0.09544371  1
  O  O187  1  0.28304983  0.13115115  0.42704730  1
  O  O188  1  0.27514914  0.13333367  0.74909896  1
  O  O189  1  0.28308107  0.63938267  0.09386826  1
  O  O190  1  0.28669632  0.64140813  0.42694129  1
  O  O191  1  0.27234280  0.63398451  0.74118098  1
  O  O192  1  0.77977793  0.13512747  0.09125658  1
  O  O193  1  0.77777148  0.13150977  0.41906728  1
  O  O194  1  0.78236388  0.13745206  0.75975212  1
  O  O195  1  0.78372269  0.62399975  0.09997239  1
  O  O196  1  0.77745268  0.63180366  0.42342582  1
  O  O197  1  0.78245414  0.62118073  0.76391593  1
  O  O198  1  0.13493072  0.26896066  0.24414656  1
  O  O199  1  0.12365004  0.27948895  0.59314780  1
  O  O200  1  0.13545588  0.27482973  0.91609369  1
  O  O201  1  0.13405103  0.78171838  0.25580070  1
  O  O202  1  0.12419825  0.78475322  0.59485435  1
  O  O203  1  0.13337097  0.78064372  0.92489754  1
  O  O204  1  0.62801032  0.28315478  0.26390548  1
  O  O205  1  0.63753384  0.27799079  0.58932728  1
  O  O206  1  0.63841984  0.28538733  0.92960347  1
  O  O207  1  0.62850606  0.78061918  0.26116870  1
  O  O208  1  0.63401600  0.78006732  0.58622083  1
  O  O209  1  0.63417269  0.79081282  0.93318651  1
  O  O210  1  0.21929860  0.36782880  0.23800512  1
  O  O211  1  0.21193096  0.36325997  0.56990944  1
  O  O212  1  0.22344409  0.37357214  0.91086206  1
  O  O213  1  0.22522963  0.86886590  0.24543483  1
  O  O214  1  0.21201761  0.86724052  0.57069037  1
  O  O215  1  0.22471870  0.86782614  0.91252115  1
  O  O216  1  0.72020371  0.36811003  0.24969887  1
  O  O217  1  0.72257865  0.36867333  0.57356353  1
  O  O218  1  0.72013310  0.37378436  0.90625158  1
  O  O219  1  0.71909059  0.86527279  0.24499328  1
  O  O220  1  0.71798675  0.87288237  0.57058568  1
  O  O221  1  0.71978064  0.87340165  0.90658947  1
  O  O222  1  0.41885971  0.12794271  0.15136049  1
  O  O223  1  0.42168679  0.12888598  0.48362588  1
  O  O224  1  0.41151149  0.12986733  0.81932662  1
  O  O225  1  0.42043661  0.63186102  0.15033745  1
  O  O226  1  0.42386944  0.63137715  0.48053427  1
  O  O227  1  0.40725880  0.63183366  0.81388877  1
  O  O228  1  0.91776848  0.13563063  0.15240644  1
  O  O229  1  0.91486107  0.13479190  0.48386762  1
  O  O230  1  0.92083091  0.13572924  0.81939424  1
  O  O231  1  0.92250126  0.63320981  0.15172579  1
  O  O232  1  0.91453679  0.63666295  0.48774962  1
  O  O233  1  0.92121791  0.62725768  0.82017596  1
  O  O234  1  0.36368952  0.08297089  0.01442954  1
  O  O235  1  0.36834627  0.08103333  0.34798603  1
  O  O236  1  0.37078174  0.08715883  0.68348677  1
  O  O237  1  0.36220439  0.57787758  0.01393982  1
  O  O238  1  0.36433326  0.57936560  0.34482190  1
  O  O239  1  0.37140108  0.58880226  0.67782744  1
  O  O240  1  0.86736340  0.08220462  0.01627340  1
  O  O241  1  0.86936879  0.08067038  0.34765220  1
  O  O242  1  0.86743820  0.08147615  0.68298326  1
  O  O243  1  0.86779273  0.57823028  0.01734675  1
  O  O244  1  0.86718008  0.58029796  0.35068857  1
  O  O245  1  0.87004939  0.57504036  0.68533563  1
  O  O246  1  0.08062710  0.36167509  0.17729567  1
  O  O247  1  0.07354326  0.36839630  0.51834992  1
  O  O248  1  0.08576425  0.36507077  0.84457249  1
  O  O249  1  0.08846617  0.87530558  0.18628727  1
  O  O250  1  0.07387769  0.87594841  0.52131133  1
  O  O251  1  0.08658329  0.87142672  0.85188235  1
  O  O252  1  0.58214015  0.36772021  0.18346767  1
  O  O253  1  0.58440971  0.36532611  0.51505988  1
  O  O254  1  0.58161299  0.36762289  0.85073430  1
  O  O255  1  0.58138004  0.86766898  0.18290052  1
  O  O256  1  0.57981369  0.86939001  0.51386572  1
  O  O257  1  0.58255438  0.86240054  0.84240850  1
  O  O258  1  0.13144496  0.40338611  0.31486977  1
  O  O259  1  0.13362114  0.41774918  0.65326127  1
  O  O260  1  0.12941528  0.41179843  0.98024446  1
  O  O261  1  0.13833601  0.91853262  0.32300067  1
  O  O262  1  0.13461788  0.92277140  0.65571061  1
  O  O263  1  0.13656145  0.91803672  0.98796961  1
  O  O264  1  0.62783111  0.42191087  0.31876640  1
  O  O265  1  0.63717329  0.41520228  0.65223179  1
  O  O266  1  0.63429147  0.42348127  0.98575924  1
  O  O267  1  0.63022847  0.91904057  0.31849429  1
  O  O268  1  0.63339667  0.91739065  0.65052364  1
  O  O269  1  0.62611752  0.92901597  0.97622406  1
  O  O270  1  0.02615230  0.19332067  0.09845882  1
  O  O271  1  0.03043930  0.20029364  0.43488805  1
  O  O272  1  0.03039675  0.19675394  0.76902814  1
  O  O273  1  0.03042597  0.70695636  0.10439401  1
  O  O274  1  0.02714280  0.71385958  0.43816601  1
  O  O275  1  0.03337849  0.68536203  0.76956593  1
  O  O276  1  0.53007346  0.20496500  0.11080987  1
  O  O277  1  0.52980179  0.19948094  0.43770530  1
  O  O278  1  0.53280188  0.20252063  0.76948262  1
  O  O279  1  0.53866573  0.70105767  0.11099658  1
  O  O280  1  0.53750922  0.69954439  0.43786109  1
  O  O281  1  0.52863103  0.69461190  0.76609727  1
  O  O282  1  0.30577947  0.46987914  0.06642253  1
  O  O283  1  0.30991200  0.45284410  0.38570789  1
  O  O284  1  0.30565741  0.47806189  0.74110950  1
  O  O285  1  0.30132262  0.96681295  0.06462507  1
  O  O286  1  0.30101928  0.96878623  0.39282247  1
  O  O287  1  0.30321632  0.96889533  0.73449806  1
  O  O288  1  0.79987322  0.46605925  0.06204623  1
  O  O289  1  0.80090680  0.46755462  0.39694756  1
  O  O290  1  0.80371639  0.46206903  0.72883617  1
  O  O291  1  0.78724094  0.97325455  0.06062612  1
  O  O292  1  0.79769003  0.97306507  0.39545440  1
  O  O293  1  0.79280988  0.97646154  0.72714248  1
  O  O294  1  0.46819531  0.29824432  0.22886168  1
  O  O295  1  0.47642767  0.29743427  0.56663680  1
  O  O296  1  0.46854050  0.32697130  0.90586957  1
  O  O297  1  0.47003764  0.80040629  0.22856603  1
  O  O298  1  0.47185935  0.79182459  0.56131020  1
  O  O299  1  0.46621422  0.81050897  0.89707942  1
  O  O300  1  0.97169397  0.29784557  0.22912586  1
  O  O301  1  0.96241453  0.29686999  0.55928808  1
  O  O302  1  0.97228830  0.30203599  0.89604173  1
  O  O303  1  0.96831389  0.80417484  0.23344640  1
  O  O304  1  0.96219991  0.80051467  0.55557263  1
  O  O305  1  0.96830589  0.80445395  0.89801146  1
  O  O306  1  0.20331058  0.02974340  0.27217437  1
  O  O307  1  0.17906399  0.03476217  0.60087712  1
  O  O308  1  0.20093940  0.02710109  0.93776346  1
  O  O309  1  0.19777890  0.53120532  0.26988503  1
  O  O310  1  0.17984855  0.53082427  0.59492317  1
  O  O311  1  0.20200458  0.52891125  0.93060501  1
  O  O312  1  0.69821562  0.02620539  0.27033852  1
  O  O313  1  0.69966114  0.03489222  0.60407207  1
  O  O314  1  0.70574634  0.03374127  0.93959739  1
  O  O315  1  0.70543086  0.52704465  0.27418775  1
  O  O316  1  0.70317317  0.53004989  0.60655827  1
  O  O317  1  0.70795413  0.53135595  0.94145249  1
  O  O318  1  0.08491257  0.08400432  0.03414788  1
  O  O319  1  0.09063391  0.09218810  0.37229254  1
  O  O320  1  0.08546770  0.08421607  0.70626387  1
  O  O321  1  0.06497527  0.58688408  0.03151493  1
  O  O322  1  0.08747784  0.60679967  0.37478571  1
  O  O323  1  0.08388384  0.58228156  0.69132383  1
  O  O324  1  0.58774321  0.09379949  0.04642641  1
  O  O325  1  0.57939498  0.08464480  0.37011972  1
  O  O326  1  0.58958810  0.09144014  0.70859670  1
  O  O327  1  0.59174583  0.58707608  0.04609190  1
  O  O328  1  0.59046415  0.58831999  0.36966220  1
  O  O329  1  0.58376748  0.58231564  0.70427443  1
  O  O330  1  0.41009072  0.41308757  0.13995142  1
  O  O331  1  0.41762918  0.41066728  0.46948407  1
  O  O332  1  0.41344300  0.41904822  0.80365119  1
  O  O333  1  0.41005255  0.90675739  0.12873644  1
  O  O334  1  0.41267240  0.91427720  0.45687197  1
  O  O335  1  0.41336561  0.91094093  0.79629198  1
  O  O336  1  0.91231678  0.41290431  0.12560950  1
  O  O337  1  0.91038602  0.40947296  0.46118504  1
  O  O338  1  0.92112004  0.41762812  0.79822949  1
  O  O339  1  0.89455795  0.91080610  0.12088825  1
  O  O340  1  0.91130848  0.92290729  0.46348703  1
  O  O341  1  0.91365404  0.93531463  0.79167886  1
  O  O342  1  0.40896105  0.40842838  0.28985142  1
  O  O343  1  0.43280414  0.41541570  0.63498927  1
  O  O344  1  0.40613460  0.42390649  0.97668067  1
  O  O345  1  0.42167558  0.91464886  0.29785063  1
  O  O346  1  0.42385377  0.90645809  0.63020864  1
  O  O347  1  0.41603491  0.91685240  0.97248682  1
  O  O348  1  0.91547266  0.40859961  0.29364656  1
  O  O349  1  0.91733975  0.41220765  0.63161086  1
  O  O350  1  0.91715221  0.41257311  0.96382055  1
  O  O351  1  0.90677801  0.91310991  0.29254857  1
  O  O352  1  0.91834055  0.92062029  0.62237460  1
  O  O353  1  0.90697289  0.91315220  0.95498503  1
  O  O354  1  0.09203606  0.08460660  0.20656136  1
  O  O355  1  0.07535509  0.08413265  0.52220831  1
  O  O356  1  0.08829926  0.07900706  0.86993266  1
  O  O357  1  0.09038179  0.59780757  0.21320502  1
  O  O358  1  0.07658993  0.59130061  0.52784129  1
  O  O359  1  0.09297903  0.58898225  0.87159483  1
  O  O360  1  0.58693872  0.08451083  0.21248394  1
  O  O361  1  0.59020379  0.09009854  0.53561478  1
  O  O362  1  0.58069381  0.06501945  0.86994310  1
  O  O363  1  0.59152548  0.57986250  0.21159802  1
  O  O364  1  0.59460728  0.58767391  0.54147235  1
  O  O365  1  0.58221797  0.55905413  0.87029321  1
  O  O366  1  0.13611989  0.21932914  0.05756633  1
  O  O367  1  0.14102131  0.22677739  0.39395674  1
  O  O368  1  0.13405618  0.21785609  0.71866835  1
  O  O369  1  0.13823224  0.71418131  0.05641685  1
  O  O370  1  0.13693831  0.74034663  0.39723304  1
  O  O371  1  0.13912568  0.71988164  0.72722066  1
  O  O372  1  0.62545038  0.22656086  0.05297369  1
  O  O373  1  0.63661311  0.21738128  0.39059067  1
  O  O374  1  0.63990547  0.22383194  0.72313025  1
  O  O375  1  0.63955783  0.71903092  0.05742094  1
  O  O376  1  0.64338859  0.72263404  0.39200092  1
  O  O377  1  0.63779562  0.71543921  0.72165153  1
  O  O378  1  0.27300241  0.36063632  0.10444068  1
  O  O379  1  0.28240445  0.35935081  0.44271919  1
  O  O380  1  0.27785013  0.36202840  0.77265553  1
  O  O381  1  0.27481573  0.85887583  0.10798527  1
  O  O382  1  0.28089688  0.86104842  0.43928449  1
  O  O383  1  0.27840664  0.86046785  0.77763009  1
  O  O384  1  0.77922685  0.36006031  0.10962694  1
  O  O385  1  0.77555712  0.35860061  0.43865269  1
  O  O386  1  0.78993371  0.35897884  0.78144232  1
  O  O387  1  0.76131680  0.86471387  0.10366330  1
  O  O388  1  0.77885169  0.86453141  0.44029585  1
  O  O389  1  0.78611305  0.86979125  0.77720212  1
  O  O390  1  0.35840372  0.27406760  0.27030415  1
  O  O391  1  0.36544069  0.28481483  0.60981596  1
  O  O392  1  0.36166909  0.28528844  0.94502593  1
  O  O393  1  0.36196654  0.78153910  0.27408868  1
  O  O394  1  0.36128741  0.77434765  0.60433530  1
  O  O395  1  0.36075727  0.78103694  0.94218669  1
  O  O396  1  0.86672485  0.27471103  0.27737028  1
  O  O397  1  0.85826419  0.28006406  0.60952044  1
  O  O398  1  0.86177924  0.27766837  0.93691060  1
  O  O399  1  0.86196648  0.77950632  0.27944013  1
  O  O400  1  0.86441376  0.79208240  0.61503667  1
  O  O401  1  0.86292290  0.78015006  0.94441596  1
  O  O402  1  0.22633594  0.13671264  0.22726094  1
  O  O403  1  0.21255982  0.14186765  0.55883532  1
  O  O404  1  0.22162402  0.13426578  0.89098140  1
  O  O405  1  0.22387442  0.63383518  0.22159383  1
  O  O406  1  0.21336454  0.63843973  0.55392922  1
  O  O407  1  0.22745492  0.63949552  0.88963135  1
  O  O408  1  0.71940781  0.13557633  0.22720156  1
  O  O409  1  0.72496353  0.13905731  0.55624685  1
  O  O410  1  0.70620993  0.13805489  0.88737404  1
  O  O411  1  0.72294423  0.63618444  0.22931939  1
  O  O412  1  0.72938762  0.63516929  0.55967023  1
  O  O413  1  0.70567209  0.63677898  0.88857318  1
  O  O414  1  0.48996764  0.34154027  0.03564371  1
  O  O415  1  0.48716668  0.33036791  0.36150815  1
  O  O416  1  0.49557956  0.32800262  0.70086782  1
  O  O417  1  0.49197802  0.82877230  0.02890914  1
  O  O418  1  0.49378944  0.83117239  0.36285262  1
  O  O419  1  0.49247772  0.81918951  0.69412034  1
  O  O420  1  0.99175323  0.32945005  0.02808503  1
  O  O421  1  0.99714762  0.33423742  0.36351586  1
  O  O422  1  0.99226754  0.32702503  0.69355959  1
  O  O423  1  0.99232738  0.84828637  0.03287916  1
  O  O424  1  0.99024791  0.84637755  0.36843734  1
  O  O425  1  1.00011105  0.84681965  0.69221881  1
  O  O426  1  0.16969641  0.00646616  0.13837190  1
  O  O427  1  0.16586783  0.01054452  0.46963700  1
  O  O428  1  0.16847950  0.00302264  0.80346671  1
  O  O429  1  0.15000421  0.50619096  0.13473499  1
  O  O430  1  0.15407409  0.50871080  0.46283574  1
  O  O431  1  0.16657597  0.51218992  0.79687916  1
  O  O432  1  0.66052237  0.00723807  0.13650647  1
  O  O433  1  0.66681677  0.00824787  0.46933516  1
  O  O434  1  0.66830026  0.00384919  0.80326855  1
  O  O435  1  0.67108547  0.50516010  0.14084204  1
  O  O436  1  0.67059654  0.50578369  0.47249645  1
  O  O437  1  0.67321573  0.50230257  0.80579900  1
  O  O438  1  0.01191945  0.16971932  0.30264340  1
  O  O439  1  0.00437767  0.15724449  0.63374024  1
  O  O440  1  0.00796410  0.16368009  0.96630701  1
  O  O441  1  0.00812863  0.68549424  0.30579847  1
  O  O442  1  0.00773914  0.67304958  0.63866807  1
  O  O443  1  0.00566008  0.67876242  0.97006009  1
  O  O444  1  0.50492274  0.16596289  0.30324832  1
  O  O445  1  0.51030204  0.16476588  0.63487293  1
  O  O446  1  0.49416757  0.15767961  0.97488684  1
  O  O447  1  0.51203420  0.66773962  0.30353542  1
  O  O448  1  0.50831965  0.65676526  0.63152580  1
  O  O449  1  0.50665698  0.65853270  0.97540330  1
  O  O450  1  0.32331229  0.48976537  0.19728530  1
  O  O451  1  0.33345341  0.49521838  0.52072079  1
  O  O452  1  0.32900075  0.48746689  0.87161397  1
  O  O453  1  0.33508372  0.98826570  0.19756295  1
  O  O454  1  0.33415429  0.99342232  0.52645894  1
  O  O455  1  0.33848639  0.98925698  0.86818098  1
  O  O456  1  0.83507838  0.49024360  0.19662625  1
  O  O457  1  0.83341554  0.48830093  0.53014764  1
  O  O458  1  0.83884634  0.49270565  0.86417465  1
  O  O459  1  0.82103806  0.99311542  0.19362369  1
  O  O460  1  0.82809751  0.99624416  0.52903538  1
  O  O461  1  0.83241402  1.00218220  0.86292305  1
