# generated using pymatgen
data_Na31Fe20(SO4)36
_symmetry_space_group_name_H-M   'P 1'
_cell_length_a   18.08449831
_cell_length_b   18.09705986
_cell_length_c   19.72622120
_cell_angle_alpha   107.59057816
_cell_angle_beta   107.56267848
_cell_angle_gamma   90.73710349
_symmetry_Int_Tables_number   1
_chemical_formula_structural   Na31Fe20(SO4)36
_chemical_formula_sum   'Na62 Fe40 S72 O288'
_cell_volume   5828.60513001
_cell_formula_units_Z   2
loop_
 _symmetry_equiv_pos_site_id
 _symmetry_equiv_pos_as_xyz
  1  'x, y, z'
loop_
 _atom_site_type_symbol
 _atom_site_label
 _atom_site_symmetry_multiplicity
 _atom_site_fract_x
 _atom_site_fract_y
 _atom_site_fract_z
 _atom_site_occupancy
  Na  Na0  1  0.16423033  0.33780342  0.10643709  1
  Na  Na1  1  0.13890405  0.33295840  0.40533629  1
  Na  Na2  1  0.13692738  0.36531234  0.75128875  1
  Na  Na3  1  0.14559409  0.87260276  0.08282701  1
  Na  Na4  1  0.13821420  0.86457559  0.42106241  1
  Na  Na5  1  0.13984234  0.86645770  0.76604846  1
  Na  Na6  1  0.62773451  0.36726004  0.08152180  1
  Na  Na7  1  0.61762138  0.38037422  0.41436013  1
  Na  Na8  1  0.63168916  0.36496943  0.74517722  1
  Na  Na9  1  0.62781070  0.87027778  0.08144037  1
  Na  Na10  1  0.63070093  0.86542688  0.41844329  1
  Na  Na11  1  0.63534278  0.86296782  0.74289960  1
  Na  Na12  1  0.31515626  0.12392687  0.20198820  1
  Na  Na13  1  0.35894766  0.13492839  0.57675382  1
  Na  Na14  1  0.35002998  0.14207438  0.92313528  1
  Na  Na15  1  0.35643690  0.61613565  0.23509950  1
  Na  Na16  1  0.38760768  0.62825759  0.58374020  1
  Na  Na17  1  0.36165823  0.63437239  0.91764878  1
  Na  Na18  1  0.86412104  0.13560692  0.24367430  1
  Na  Na19  1  0.86864059  0.13009561  0.58072300  1
  Na  Na20  1  0.86133039  0.13279284  0.91844036  1
  Na  Na21  1  0.87318250  0.63170816  0.25343159  1
  Na  Na22  1  0.87503108  0.64097162  0.59835544  1
  Na  Na23  1  0.87303054  0.63095472  0.91643614  1
  Na  Na24  1  1.03413889  0.48377868  0.38650354  1
  Na  Na25  1  1.04809944  0.16685918  0.18178193  1
  Na  Na26  1  0.47470129  0.50241455  0.10414131  1
  Na  Na27  1  0.49786326  0.51754301  0.72931451  1
  Na  Na28  1  1.00381864  -0.01586990  0.74633177  1
  Na  Na29  1  0.48385614  0.00852951  0.76704973  1
  Na  Na30  1  0.99066793  0.50380855  0.76809894  1
  Na  Na31  1  0.48448939  0.01299093  0.41103204  1
  Na  Na32  1  0.99192058  0.00229116  0.43153554  1
  Na  Na33  1  0.03489446  0.97782386  0.93074111  1
  Na  Na34  1  0.47974097  1.02999461  0.21688470  1
  Na  Na35  1  0.50880332  0.98067418  0.58709786  1
  Na  Na36  1  0.01539711  0.45494995  0.17707929  1
  Na  Na37  1  0.00332612  0.98876024  0.24907066  1
  Na  Na38  1  0.45884661  1.01531351  0.96392527  1
  Na  Na39  1  0.01372172  0.48961660  0.57375927  1
  Na  Na40  1  0.05640956  0.47674889  1.02513406  1
  Na  Na41  1  0.50168033  0.49648982  0.92066453  1
  Na  Na42  1  0.25952911  0.26032882  0.31809769  1
  Na  Na43  1  0.74159746  0.74198049  0.33934613  1
  Na  Na44  1  0.25118059  0.74068104  0.32583936  1
  Na  Na45  1  0.75506753  0.75122107  0.66881364  1
  Na  Na46  1  0.75427200  0.75222333  -0.00325083  1
  Na  Na47  1  0.76328968  0.26225622  -0.00599908  1
  Na  Na48  1  0.24683000  0.74931090  0.67808659  1
  Na  Na49  1  0.75460591  0.25577127  0.65971298  1
  Na  Na50  1  0.25585461  0.25619959  0.65723393  1
  Na  Na51  1  0.75388179  0.25631213  0.32972678  1
  Na  Na52  1  0.75101995  0.25564001  0.49306333  1
  Na  Na53  1  0.76711518  0.75828563  0.82998745  1
  Na  Na54  1  0.25916243  0.74971605  0.50163463  1
  Na  Na55  1  0.75799504  0.25780269  0.83111582  1
  Na  Na56  1  0.25464803  0.74673484  0.15169352  1
  Na  Na57  1  0.74906986  0.75069381  0.16839942  1
  Na  Na58  1  0.73742116  0.74070759  0.50769643  1
  Na  Na59  1  0.24199442  0.74879941  0.85682978  1
  Na  Na60  1  0.23688708  0.24078816  0.84316136  1
  Na  Na61  1  0.76751757  0.26304495  0.15708704  1
  Fe  Fe62  1  0.96612711  0.30120781  0.44733109  1
  Fe  Fe63  1  0.46323750  0.80790934  0.11743289  1
  Fe  Fe64  1  0.45864091  0.30995832  0.44798608  1
  Fe  Fe65  1  0.46746973  0.81170689  0.78975794  1
  Fe  Fe66  1  0.96853155  0.80726810  0.11983704  1
  Fe  Fe67  1  0.46245666  0.30976223  0.12609047  1
  Fe  Fe68  1  0.46501754  0.30850852  0.78683149  1
  Fe  Fe69  1  0.46686522  0.79603010  0.45660843  1
  Fe  Fe70  1  0.96360356  0.80933157  0.45434591  1
  Fe  Fe71  1  0.96705238  0.30688573  0.78843957  1
  Fe  Fe72  1  0.18956782  0.03383703  0.71630483  1
  Fe  Fe73  1  0.68902344  0.03561135  0.04614701  1
  Fe  Fe74  1  0.69003291  0.53690206  0.38178029  1
  Fe  Fe75  1  0.69365351  0.03888616  0.71681506  1
  Fe  Fe76  1  0.68991171  0.53755936  0.70999086  1
  Fe  Fe77  1  0.19571320  0.53542407  0.71585024  1
  Fe  Fe78  1  0.69176048  0.53651064  0.04606356  1
  Fe  Fe79  1  0.68783623  0.03402851  0.37940902  1
  Fe  Fe80  1  0.20493485  0.52771803  0.37190318  1
  Fe  Fe81  1  0.19078873  0.03633351  0.38577657  1
  Fe  Fe82  1  0.03723432  0.19146648  0.54744488  1
  Fe  Fe83  1  0.04532325  0.19832012  0.89655572  1
  Fe  Fe84  1  0.03639035  0.69979701  0.87967392  1
  Fe  Fe85  1  0.03644808  0.68470903  0.20686540  1
  Fe  Fe86  1  0.53187099  0.19683909  0.54853922  1
  Fe  Fe87  1  0.53320689  0.19500895  0.21400770  1
  Fe  Fe88  1  0.53819080  0.69325719  0.88088628  1
  Fe  Fe89  1  0.03442549  0.69235938  0.54446327  1
  Fe  Fe90  1  0.53367598  0.19655888  0.88454011  1
  Fe  Fe91  1  0.53399234  0.69410836  0.21476346  1
  Fe  Fe92  1  0.30608027  0.46445208  0.61482163  1
  Fe  Fe93  1  0.81464608  0.46544313  0.95685147  1
  Fe  Fe94  1  0.80409513  0.96517571  0.28512292  1
  Fe  Fe95  1  0.81380178  0.96555392  0.95499837  1
  Fe  Fe96  1  0.80576301  0.46307794  0.61812266  1
  Fe  Fe97  1  0.30649177  0.96304840  0.28277674  1
  Fe  Fe98  1  0.80708982  0.46599626  0.28671958  1
  Fe  Fe99  1  0.81052185  0.96653408  0.62115000  1
  Fe  Fe100  1  0.29658113  0.47049499  0.95433769  1
  Fe  Fe101  1  0.30644111  0.96561625  0.62071844  1
  S  S102  1  0.36665371  0.13982680  0.07947823  1
  S  S103  1  0.36039641  0.13892005  0.41941519  1
  S  S104  1  0.35870016  0.14231018  0.75135132  1
  S  S105  1  0.36361728  0.63765419  0.08202024  1
  S  S106  1  0.35546948  0.64395071  0.41518728  1
  S  S107  1  0.36429065  0.63920034  0.74873992  1
  S  S108  1  0.85278511  0.13922849  0.08343124  1
  S  S109  1  0.85666660  0.13776253  0.41692570  1
  S  S110  1  0.85788924  0.14339170  0.74789007  1
  S  S111  1  0.85722112  0.64341811  0.08377034  1
  S  S112  1  0.85955056  0.64047629  0.41645577  1
  S  S113  1  0.86387718  0.63394558  0.75279204  1
  S  S114  1  0.14309632  0.35798742  0.26192700  1
  S  S115  1  0.13999748  0.36061703  0.58158555  1
  S  S116  1  0.13966285  0.35857902  0.90810413  1
  S  S117  1  0.14031498  0.85762083  0.25513379  1
  S  S118  1  0.13979552  0.85812864  0.58280227  1
  S  S119  1  0.13572210  0.85641864  0.90980243  1
  S  S120  1  0.63999313  0.36070656  0.24953818  1
  S  S121  1  0.63625955  0.35997509  0.58276218  1
  S  S122  1  0.64034233  0.36128935  0.91632930  1
  S  S123  1  0.63937702  0.85895935  0.24996372  1
  S  S124  1  0.64203914  0.86458086  0.58357455  1
  S  S125  1  0.64469536  0.86195557  0.91692118  1
  S  S126  1  0.06093659  0.16661543  0.02599172  1
  S  S127  1  0.05844553  0.15492983  0.37598023  1
  S  S128  1  0.06462685  0.17146635  0.70579587  1
  S  S129  1  0.06867023  0.67793406  0.04460864  1
  S  S130  1  0.07184948  0.67159592  0.37631099  1
  S  S131  1  0.07052945  0.66484020  0.70627173  1
  S  S132  1  0.57114991  0.17448537  0.04438360  1
  S  S133  1  0.56595946  0.16809329  0.37614399  1
  S  S134  1  0.56567866  0.17103912  0.71078095  1
  S  S135  1  0.56928106  0.67074398  0.04198961  1
  S  S136  1  0.56937924  0.67245538  0.37569318  1
  S  S137  1  0.57364344  0.67755111  0.71511568  1
  S  S138  1  0.33535333  0.42539588  0.11988328  1
  S  S139  1  0.32926901  0.43458033  0.45743397  1
  S  S140  1  0.32939586  0.43294081  0.78929327  1
  S  S141  1  0.33389631  0.92923482  0.13120532  1
  S  S142  1  0.33247421  0.93176856  0.45957589  1
  S  S143  1  0.33026663  0.93734183  0.79084293  1
  S  S144  1  0.82184298  0.43264340  0.11802056  1
  S  S145  1  0.83015266  0.43177934  0.45899447  1
  S  S146  1  0.82526402  0.42947427  0.78853167  1
  S  S147  1  0.82733938  0.92906863  0.12487181  1
  S  S148  1  0.82616126  0.93256567  0.45433789  1
  S  S149  1  0.83318882  0.94051712  0.79056785  1
  S  S150  1  0.42787638  0.32241332  0.28657698  1
  S  S151  1  0.43126855  0.32978505  0.62661680  1
  S  S152  1  0.43437619  0.33378874  0.95671252  1
  S  S153  1  0.43073748  0.82418668  0.29292556  1
  S  S154  1  0.43650358  0.84089242  0.63085274  1
  S  S155  1  0.43496515  0.82269841  0.95268401  1
  S  S156  1  0.92570926  0.33296577  0.29229899  1
  S  S157  1  0.93293484  0.32990012  0.62263965  1
  S  S158  1  0.93743857  0.33076881  0.95710239  1
  S  S159  1  0.93245667  0.83288505  0.29256593  1
  S  S160  1  0.93258170  0.82995759  0.62100553  1
  S  S161  1  0.93173581  0.82625558  0.95821833  1
  S  S162  1  0.16618493  0.05502585  0.21884324  1
  S  S163  1  0.17112849  0.06586407  0.54740875  1
  S  S164  1  0.15786551  0.06784805  0.86771164  1
  S  S165  1  0.16146020  0.55895584  0.20357701  1
  S  S166  1  0.17579030  0.57256868  0.54145218  1
  S  S167  1  0.16787730  0.56759323  0.86967331  1
  S  S168  1  0.67060736  0.06849299  0.21170549  1
  S  S169  1  0.66472322  0.07014747  0.54155860  1
  S  S170  1  0.66674021  0.07039583  0.87509327  1
  S  S171  1  0.67247747  0.56851490  0.20860075  1
  S  S172  1  0.67666333  0.57073523  0.54829720  1
  S  S173  1  0.66755076  0.56473501  0.87390067  1
  O  O174  1  0.38535976  0.22010958  0.07234479  1
  O  O175  1  0.36781096  0.21749692  0.41125137  1
  O  O176  1  0.36935902  0.22236862  0.74578974  1
  O  O177  1  0.37531779  0.71699916  0.07609749  1
  O  O178  1  0.36071762  0.73043481  0.42088964  1
  O  O179  1  0.37491377  0.71765679  0.74059207  1
  O  O180  1  0.85200288  0.21571223  0.07245825  1
  O  O181  1  0.86561333  0.21890671  0.41378579  1
  O  O182  1  0.86584829  0.22304944  0.73986544  1
  O  O183  1  0.86639537  0.72289942  0.07736295  1
  O  O184  1  0.86949212  0.71818943  0.40563260  1
  O  O185  1  0.86652291  0.70852960  0.73889372  1
  O  O186  1  0.29026167  0.13653428  0.08781995  1
  O  O187  1  0.28523960  0.12721152  0.43235287  1
  O  O188  1  0.27963762  0.13268555  0.75801741  1
  O  O189  1  0.28994884  0.62655849  0.09487386  1
  O  O190  1  0.27069812  0.63117528  0.41728977  1
  O  O191  1  0.28389969  0.63045356  0.75334320  1
  O  O192  1  0.77558840  0.12358473  0.09644597  1
  O  O193  1  0.77899027  0.12895806  0.42799448  1
  O  O194  1  0.77802586  0.13571404  0.75605933  1
  O  O195  1  0.77728133  0.63457236  0.09036412  1
  O  O196  1  0.77943971  0.63342282  0.42271907  1
  O  O197  1  0.78817773  0.62147963  0.76729098  1
  O  O198  1  0.11898226  0.28671388  0.27570528  1
  O  O199  1  0.13010875  0.28371806  0.59306468  1
  O  O200  1  0.13140351  0.27254347  0.89752359  1
  O  O201  1  0.12687000  0.77799266  0.26080610  1
  O  O202  1  0.13125037  0.77821255  0.58946496  1
  O  O203  1  0.13073937  0.76999637  0.90956499  1
  O  O204  1  0.63276992  0.28276354  0.26003664  1
  O  O205  1  0.62707639  0.28297629  0.59636812  1
  O  O206  1  0.63240602  0.28301545  0.92566886  1
  O  O207  1  0.63233231  0.77910858  0.25686288  1
  O  O208  1  0.64138427  0.78942200  0.59657643  1
  O  O209  1  0.63716067  0.78364169  0.92647893  1
  O  O210  1  0.22491851  0.36099203  0.26534828  1
  O  O211  1  0.21948007  0.36947819  0.57652169  1
  O  O212  1  0.21378894  0.37168600  0.89151137  1
  O  O213  1  0.22050985  0.86353667  0.24998373  1
  O  O214  1  0.21789977  0.86716663  0.57224865  1
  O  O215  1  0.21105297  0.86895276  0.89902114  1
  O  O216  1  0.71773479  0.36974359  0.23847167  1
  O  O217  1  0.71674010  0.36513703  0.57630187  1
  O  O218  1  0.72117432  0.37115359  0.91234014  1
  O  O219  1  0.71890369  0.86892118  0.24260567  1
  O  O220  1  0.71812591  0.87956856  0.57051781  1
  O  O221  1  0.72374085  0.87152083  0.90845625  1
  O  O222  1  0.42704977  0.13067552  0.14876081  1
  O  O223  1  0.42357756  0.13254177  0.48769299  1
  O  O224  1  0.41819765  0.13299212  0.81891065  1
  O  O225  1  0.42877201  0.62631136  0.14639788  1
  O  O226  1  0.40971906  0.63322568  0.48133484  1
  O  O227  1  0.42164800  0.62984679  0.81711399  1
  O  O228  1  0.91527944  0.13440196  0.14875490  1
  O  O229  1  0.91765252  0.12499812  0.48122619  1
  O  O230  1  0.91664903  0.13472005  0.81384575  1
  O  O231  1  0.91482301  0.63537377  0.15208620  1
  O  O232  1  0.91691296  0.63361624  0.48544273  1
  O  O233  1  0.92705148  0.62959223  0.82107949  1
  O  O234  1  0.37530534  0.08269559  0.01267573  1
  O  O235  1  0.37136159  0.07883090  0.35365196  1
  O  O236  1  0.36777771  0.08483959  0.68290615  1
  O  O237  1  0.37002519  0.57992347  0.01161768  1
  O  O238  1  0.36134903  0.59717609  0.34380989  1
  O  O239  1  0.37442649  0.57884973  0.68201822  1
  O  O240  1  0.85715692  0.07936581  0.01329307  1
  O  O241  1  0.86078366  0.08188492  0.34588497  1
  O  O242  1  0.86162626  0.08499559  0.67735048  1
  O  O243  1  0.86406723  0.58498464  0.01492038  1
  O  O244  1  0.86746807  0.58039719  0.34913424  1
  O  O245  1  0.87371780  0.57012465  0.68797321  1
  O  O246  1  0.09287478  0.36829219  0.19265903  1
  O  O247  1  0.08140007  0.36614376  0.51155810  1
  O  O248  1  0.07489725  0.37562500  0.84777681  1
  O  O249  1  0.08270584  0.86918054  0.18827339  1
  O  O250  1  0.07990186  0.86584145  0.51496461  1
  O  O251  1  0.07116467  0.86487971  0.84628875  1
  O  O252  1  0.57918768  0.36648933  0.18141293  1
  O  O253  1  0.57924230  0.36262912  0.51239120  1
  O  O254  1  0.58353959  0.36671118  0.84591781  1
  O  O255  1  0.58119621  0.86641692  0.18197505  1
  O  O256  1  0.57907863  0.86865783  0.51565974  1
  O  O257  1  0.58580052  0.87009124  0.84963235  1
  O  O258  1  0.13317516  0.42689204  0.32921184  1
  O  O259  1  0.12850255  0.42244780  0.64654187  1
  O  O260  1  0.14179078  0.40455317  0.98282144  1
  O  O261  1  0.13224432  0.91609337  0.32387465  1
  O  O262  1  0.13377852  0.91561088  0.65152460  1
  O  O263  1  0.12729981  0.90489001  0.98089733  1
  O  O264  1  0.63506636  0.42084362  0.31770440  1
  O  O265  1  0.62792758  0.42172820  0.64850322  1
  O  O266  1  0.62693539  0.42130465  0.98105014  1
  O  O267  1  0.63157052  0.91625700  0.31875692  1
  O  O268  1  0.63161973  0.92695257  0.64961367  1
  O  O269  1  0.63749855  0.92070506  0.98579500  1
  O  O270  1  0.05118633  0.22006390  0.09353597  1
  O  O271  1  0.02883791  0.19669324  0.44199723  1
  O  O272  1  0.02381851  0.20046493  0.76269781  1
  O  O273  1  0.02456349  0.70514492  0.10237984  1
  O  O274  1  0.03129568  0.69691512  0.43505177  1
  O  O275  1  0.03204248  0.68066889  0.76389962  1
  O  O276  1  0.54110393  0.20849923  0.10869983  1
  O  O277  1  0.53063444  0.20043246  0.43724580  1
  O  O278  1  0.53023752  0.20114655  0.77245590  1
  O  O279  1  0.53590027  0.70306419  0.10402290  1
  O  O280  1  0.53275997  0.70097863  0.43452640  1
  O  O281  1  0.53911661  0.70740901  0.77913708  1
  O  O282  1  0.32945224  0.45344167  0.05428666  1
  O  O283  1  0.30223593  0.47798188  0.40248305  1
  O  O284  1  0.30095569  0.47072057  0.72887734  1
  O  O285  1  0.30279313  0.95796401  0.06983322  1
  O  O286  1  0.30300004  0.96801611  0.39926440  1
  O  O287  1  0.29816572  0.96990133  0.72543142  1
  O  O288  1  0.79095001  0.47549821  0.06071607  1
  O  O289  1  0.79978568  0.46834528  0.39864260  1
  O  O290  1  0.79193418  0.46190353  0.72558401  1
  O  O291  1  0.80101500  0.96292758  0.06264945  1
  O  O292  1  0.79476404  0.96928712  0.39329409  1
  O  O293  1  0.79438080  0.97472197  0.72776885  1
  O  O294  1  0.47175800  0.29419669  0.22709512  1
  O  O295  1  0.46612618  0.30174532  0.56442689  1
  O  O296  1  0.47597468  0.30147547  0.89895343  1
  O  O297  1  0.46966090  0.79866841  0.23318570  1
  O  O298  1  0.47187790  0.81854111  0.57079592  1
  O  O299  1  0.47763523  0.79303938  0.89435606  1
  O  O300  1  0.94972806  0.31259359  0.22647082  1
  O  O301  1  0.96865434  0.30038142  0.56143948  1
  O  O302  1  0.97373748  0.29261868  0.89485108  1
  O  O303  1  0.96751902  0.80360244  0.23155778  1
  O  O304  1  0.96410856  0.79622262  0.55553596  1
  O  O305  1  0.96700095  0.79068856  0.89910139  1
  O  O306  1  0.20908429  0.02621299  0.28567589  1
  O  O307  1  0.20001625  0.02906743  0.60816009  1
  O  O308  1  0.17004973  0.03561179  0.92762505  1
  O  O309  1  0.18830558  0.53204557  0.27108708  1
  O  O310  1  0.20293083  0.53137398  0.59907233  1
  O  O311  1  0.19752610  0.53383143  0.93033408  1
  O  O312  1  0.69792744  0.02901412  0.27131556  1
  O  O313  1  0.69663828  0.03872102  0.60489229  1
  O  O314  1  0.69482341  0.03483473  0.93585132  1
  O  O315  1  0.70199180  0.53243959  0.26980084  1
  O  O316  1  0.71105665  0.52960850  0.60754946  1
  O  O317  1  0.69869346  0.52891488  0.93482102  1
  O  O318  1  0.07403892  0.08903036  0.03108054  1
  O  O319  1  0.07357860  0.07379275  0.38021827  1
  O  O320  1  0.08373869  0.09102686  0.70043057  1
  O  O321  1  0.09036639  0.60112030  0.04368705  1
  O  O322  1  0.09499568  0.59200303  0.37200383  1
  O  O323  1  0.08939468  0.58129122  0.68852133  1
  O  O324  1  0.58607107  0.09218803  0.03917030  1
  O  O325  1  0.58143956  0.08554909  0.37340101  1
  O  O326  1  0.58212797  0.08865134  0.70451360  1
  O  O327  1  0.58665953  0.58880860  0.03829538  1
  O  O328  1  0.59415904  0.59429364  0.37368874  1
  O  O329  1  0.59258435  0.59611019  0.71425506  1
  O  O330  1  0.42321411  0.40944384  0.14310453  1
  O  O331  1  0.40765444  0.41154632  0.45793815  1
  O  O332  1  0.41300303  0.41828320  0.79772921  1
  O  O333  1  0.41712167  0.90911621  0.13807193  1
  O  O334  1  0.41457656  0.91458344  0.46529057  1
  O  O335  1  0.41111700  0.91589306  0.79205255  1
  O  O336  1  0.89454025  0.40558090  0.10969784  1
  O  O337  1  0.91017950  0.40906820  0.46255660  1
  O  O338  1  0.90552178  0.41063500  0.78936445  1
  O  O339  1  0.90833658  0.90826427  0.13408830  1
  O  O340  1  0.90715987  0.91522029  0.45651806  1
  O  O341  1  0.91521682  0.93661344  0.79641824  1
  O  O342  1  0.40550910  0.39796983  0.28720629  1
  O  O343  1  0.41215110  0.41115086  0.63392565  1
  O  O344  1  0.42510901  0.41644482  0.96045767  1
  O  O345  1  0.41216475  0.90621084  0.30169777  1
  O  O346  1  0.41928341  0.92530062  0.64184445  1
  O  O347  1  0.41200220  0.89830338  0.95072414  1
  O  O348  1  0.90947259  0.41787803  0.31334731  1
  O  O349  1  0.91612366  0.41224535  0.62904619  1
  O  O350  1  0.91195269  0.40671300  0.94670686  1
  O  O351  1  0.91563924  0.91598803  0.29943106  1
  O  O352  1  0.90927645  0.90944134  0.62004834  1
  O  O353  1  0.91033925  0.90421042  0.95321240  1
  O  O354  1  0.08390099  0.05585682  0.21610420  1
  O  O355  1  0.08927645  0.08315843  0.54023505  1
  O  O356  1  0.07578779  0.09537479  0.84895574  1
  O  O357  1  0.07872765  0.58028558  0.19726654  1
  O  O358  1  0.09138509  0.58424924  0.53209339  1
  O  O359  1  0.08917702  0.59395320  0.86864544  1
  O  O360  1  0.59109951  0.09009091  0.20907690  1
  O  O361  1  0.58158754  0.08506141  0.53538694  1
  O  O362  1  0.58558636  0.09119025  0.86993389  1
  O  O363  1  0.59200801  0.58847814  0.20300123  1
  O  O364  1  0.60168815  0.59211920  0.55189451  1
  O  O365  1  0.58453763  0.58023581  0.86928365  1
  O  O366  1  0.12175336  0.20463925  0.00344236  1
  O  O367  1  0.13110753  0.19875735  0.38555494  1
  O  O368  1  0.13557386  0.22482413  0.72284387  1
  O  O369  1  0.13543727  0.73664147  0.06564042  1
  O  O370  1  0.14072545  0.72814685  0.39594542  1
  O  O371  1  0.14207722  0.71881777  0.72803094  1
  O  O372  1  0.64213024  0.22336949  0.05426600  1
  O  O373  1  0.63856147  0.21723043  0.39078236  1
  O  O374  1  0.63764527  0.22194644  0.72684069  1
  O  O375  1  0.64035967  0.72119834  0.05463171  1
  O  O376  1  0.63970310  0.72801799  0.39125482  1
  O  O377  1  0.64740711  0.72792747  0.73379464  1
  O  O378  1  0.28611889  0.35256832  0.09787521  1
  O  O379  1  0.27378169  0.36605017  0.44022604  1
  O  O380  1  0.27915093  0.35983611  0.76885083  1
  O  O381  1  0.28658666  0.86209980  0.13180415  1
  O  O382  1  0.27973509  0.86163802  0.44460318  1
  O  O383  1  0.27877784  0.86650849  0.77588879  1
  O  O384  1  0.76217932  0.36683266  0.10145797  1
  O  O385  1  0.77531923  0.36266753  0.44443775  1
  O  O386  1  0.77394892  0.35808313  0.77529636  1
  O  O387  1  0.77246834  0.85995359  0.11000683  1
  O  O388  1  0.77521409  0.86092187  0.43837626  1
  O  O389  1  0.78794649  0.86399590  0.77261872  1
  O  O390  1  0.36499551  0.26056660  0.26954870  1
  O  O391  1  0.36287477  0.27668558  0.61388828  1
  O  O392  1  0.36079182  0.28473982  0.93492230  1
  O  O393  1  0.35974766  0.77013677  0.27263080  1
  O  O394  1  0.36501390  0.78985299  0.61511225  1
  O  O395  1  0.36863129  0.76442409  0.93478000  1
  O  O396  1  0.85459808  0.28219556  0.28250368  1
  O  O397  1  0.86042469  0.27835973  0.60509797  1
  O  O398  1  0.86731258  0.27791027  0.94351893  1
  O  O399  1  0.86066793  0.78224440  0.27758861  1
  O  O400  1  0.86243977  0.77738127  0.60828145  1
  O  O401  1  0.86047410  0.77473777  0.94651533  1
  O  O402  1  0.20291452  0.13493599  0.23597074  1
  O  O403  1  0.22286240  0.13668203  0.56398961  1
  O  O404  1  0.21582635  0.13210505  0.87891748  1
  O  O405  1  0.21257774  0.62917497  0.21554049  1
  O  O406  1  0.22587614  0.64654552  0.56465040  1
  O  O407  1  0.22321905  0.63124448  0.87529176  1
  O  O408  1  0.72539830  0.13805174  0.23033014  1
  O  O409  1  0.71358314  0.14212553  0.55341414  1
  O  O410  1  0.71942131  0.14036889  0.88851826  1
  O  O411  1  0.72656102  0.63882745  0.22483449  1
  O  O412  1  0.73538018  0.63832333  0.56480069  1
  O  O413  1  0.71721722  0.63714477  0.88981657  1
  O  O414  1  0.48804260  0.33314924  0.03161148  1
  O  O415  1  0.48992577  0.32441194  0.35923532  1
  O  O416  1  0.49368052  0.33353619  0.69872353  1
  O  O417  1  0.49363006  0.82747129  0.02705515  1
  O  O418  1  0.48884036  0.82500363  0.36536284  1
  O  O419  1  0.49597143  0.84158025  0.70313885  1
  O  O420  1  0.99836999  0.34691300  0.02893141  1
  O  O421  1  0.99010242  0.32877412  0.36128417  1
  O  O422  1  0.99089462  0.33159511  0.69520861  1
  O  O423  1  0.98935925  0.83728867  0.03377252  1
  O  O424  1  0.99142078  0.83558983  0.36564252  1
  O  O425  1  0.99523330  0.83881578  0.69050469  1
  O  O426  1  0.17711479  0.00087356  0.15220303  1
  O  O427  1  0.17107284  0.00602558  0.47575885  1
  O  O428  1  0.15264941  0.00407008  0.79415212  1
  O  O429  1  0.15547966  0.49346769  0.13661613  1
  O  O430  1  0.17822663  0.51875483  0.46809987  1
  O  O431  1  0.15436238  0.50418800  0.79452663  1
  O  O432  1  0.66708680  0.00990885  0.13882502  1
  O  O433  1  0.66317947  0.00885784  0.47016822  1
  O  O434  1  0.66157837  0.00995349  0.80201702  1
  O  O435  1  0.66952149  0.50880461  0.13619838  1
  O  O436  1  0.67432286  0.51187950  0.47464100  1
  O  O437  1  0.66421372  0.50626720  0.80070018  1
  O  O438  1  -0.00492427  0.14716778  0.30662337  1
  O  O439  1  0.00665970  0.16973829  0.63159063  1
  O  O440  1  -0.01080873  0.15923978  0.95628667  1
  O  O441  1  0.01303433  0.66995769  0.30380662  1
  O  O442  1  0.01273984  0.66908742  0.63465804  1
  O  O443  1  0.01150505  0.67570316  0.97027531  1
  O  O444  1  0.50806010  0.16289032  0.30265882  1
  O  O445  1  0.50646288  0.16985403  0.63898907  1
  O  O446  1  0.50835222  0.17124308  0.97316964  1
  O  O447  1  0.51177782  0.66623994  0.30092901  1
  O  O448  1  0.51554173  0.67648165  0.64609934  1
  O  O449  1  0.50944768  0.66452333  0.96862307  1
  O  O450  1  0.32693702  0.48796878  0.18188096  1
  O  O451  1  0.33723899  0.49161286  0.53368013  1
  O  O452  1  0.32773488  0.49001343  0.86109600  1
  O  O453  1  0.34647244  0.99487347  0.20657123  1
  O  O454  1  0.33563276  0.99139642  0.53315820  1
  O  O455  1  0.33653079  1.00008106  0.85977402  1
  O  O456  1  0.83244863  0.48958539  0.19431241  1
  O  O457  1  0.83735614  0.49174707  0.53258249  1
  O  O458  1  0.82832258  0.48970920  0.86043512  1
  O  O459  1  0.82941854  0.99061428  0.19650752  1
  O  O460  1  0.82785274  0.99179966  0.52618499  1
  O  O461  1  0.82476291  0.99536314  0.86110020  1
