# generated using pymatgen
data_Na31Fe20(SO4)36
_symmetry_space_group_name_H-M   'P 1'
_cell_length_a   18.08728238
_cell_length_b   18.07888639
_cell_length_c   19.71292866
_cell_angle_alpha   107.56750158
_cell_angle_beta   107.58849997
_cell_angle_gamma   90.77903874
_symmetry_Int_Tables_number   1
_chemical_formula_structural   Na31Fe20(SO4)36
_chemical_formula_sum   'Na62 Fe40 S72 O288'
_cell_volume   5819.07869862
_cell_formula_units_Z   2
loop_
 _symmetry_equiv_pos_site_id
 _symmetry_equiv_pos_as_xyz
  1  'x, y, z'
loop_
 _atom_site_type_symbol
 _atom_site_label
 _atom_site_symmetry_multiplicity
 _atom_site_fract_x
 _atom_site_fract_y
 _atom_site_fract_z
 _atom_site_occupancy
  Na  Na0  1  0.13654784  0.36522608  0.08977791  1
  Na  Na1  1  0.13300863  0.36531367  0.41434229  1
  Na  Na2  1  0.12867124  0.36459903  0.75100032  1
  Na  Na3  1  0.14135784  0.87129774  0.09108026  1
  Na  Na4  1  0.12708432  0.84475643  0.39309660  1
  Na  Na5  1  0.14442328  0.87561832  0.76063569  1
  Na  Na6  1  0.63391014  0.37216513  0.09006189  1
  Na  Na7  1  0.63517644  0.36567329  0.41516415  1
  Na  Na8  1  0.62743672  0.35144383  0.73771537  1
  Na  Na9  1  0.63677623  0.86296996  0.08034851  1
  Na  Na10  1  0.63782650  0.86378156  0.41859173  1
  Na  Na11  1  0.64372079  0.86415096  0.75194437  1
  Na  Na12  1  0.33611453  0.12389488  0.20823660  1
  Na  Na13  1  0.37243832  0.15589035  0.60007352  1
  Na  Na14  1  0.34218282  0.12889178  0.90177810  1
  Na  Na15  1  0.36958816  0.63345137  0.25442323  1
  Na  Na16  1  0.36610262  0.63259189  0.58123568  1
  Na  Na17  1  0.36891556  0.62936444  0.91556765  1
  Na  Na18  1  0.86517932  0.13185809  0.24667163  1
  Na  Na19  1  0.86505361  0.13232602  0.58183049  1
  Na  Na20  1  0.86533502  0.12959803  0.91667305  1
  Na  Na21  1  0.85953139  0.63776868  0.25191919  1
  Na  Na22  1  0.86573558  0.64310209  0.58699112  1
  Na  Na23  1  0.86615787  0.64409783  0.92700934  1
  Na  Na24  1  0.48365382  0.01539478  0.75238468  1
  Na  Na25  1  1.01036932  -0.01123812  0.75074597  1
  Na  Na26  1  0.49357739  0.03858650  0.40641123  1
  Na  Na27  1  0.48867017  0.50781884  0.08042092  1
  Na  Na28  1  0.96115627  0.51140225  0.38352214  1
  Na  Na29  1  0.49840078  0.50801355  0.40191061  1
  Na  Na30  1  0.51064703  0.45725646  0.80093430  1
  Na  Na31  1  0.45956842  -0.00060899  0.08890168  1
  Na  Na32  1  0.99209193  0.51682312  0.75069643  1
  Na  Na33  1  0.00074449  0.48820022  0.93369778  1
  Na  Na34  1  0.46929335  1.01737425  0.93481866  1
  Na  Na35  1  0.04058613  0.99048491  0.58156995  1
  Na  Na36  1  0.48934126  1.02230757  0.57030588  1
  Na  Na37  1  0.01244113  0.98449545  0.24643562  1
  Na  Na38  1  -0.01707267  0.53972739  0.19663675  1
  Na  Na39  1  0.50467710  0.47875841  0.59155801  1
  Na  Na40  1  0.01078049  0.49458181  0.57414064  1
  Na  Na41  1  0.05237888  0.98313207  0.94791064  1
  Na  Na42  1  0.75179381  0.25892314  0.32993154  1
  Na  Na43  1  0.73270536  0.23642862  0.66709583  1
  Na  Na44  1  0.24790251  0.24287231  0.67845996  1
  Na  Na45  1  0.77055550  0.76492999  0.65809182  1
  Na  Na46  1  0.25759130  0.25242048  0.32183259  1
  Na  Na47  1  0.26021921  0.76223372  0.66111151  1
  Na  Na48  1  0.23526097  0.21815230  0.02268433  1
  Na  Na49  1  0.74370283  0.74360637  0.34332538  1
  Na  Na50  1  0.74830062  0.25477559  0.00037265  1
  Na  Na51  1  0.26069059  0.76670701  -0.00226172  1
  Na  Na52  1  0.73927792  0.24305469  0.83603513  1
  Na  Na53  1  0.23602394  0.23523422  0.84049300  1
  Na  Na54  1  0.25391911  0.75493546  0.48156589  1
  Na  Na55  1  0.25514024  0.25389642  0.49913723  1
  Na  Na56  1  0.76026992  0.26510251  0.16684225  1
  Na  Na57  1  0.23641204  0.74262301  0.18633878  1
  Na  Na58  1  0.75087553  0.74373851  0.83912886  1
  Na  Na59  1  0.73986456  0.24316466  0.50523605  1
  Na  Na60  1  0.75826438  0.75632421  0.15504382  1
  Na  Na61  1  0.25998536  0.76095648  0.83154997  1
  Fe  Fe62  1  0.47061301  0.80898605  0.79041219  1
  Fe  Fe63  1  0.96290152  0.30761087  0.44877944  1
  Fe  Fe64  1  0.46911630  0.29974420  0.45309565  1
  Fe  Fe65  1  0.96765641  0.79943829  0.12076696  1
  Fe  Fe66  1  0.46570851  0.80672236  0.45337336  1
  Fe  Fe67  1  0.96451657  0.80634092  0.45060875  1
  Fe  Fe68  1  0.46438972  0.31537480  0.12337831  1
  Fe  Fe69  1  0.96048575  0.30584264  0.78242851  1
  Fe  Fe70  1  0.96213343  0.31143142  0.12309006  1
  Fe  Fe71  1  0.46815983  0.80802829  0.12381013  1
  Fe  Fe72  1  0.19274691  0.03685843  0.37986713  1
  Fe  Fe73  1  0.69742779  0.53440249  0.37747222  1
  Fe  Fe74  1  0.19185469  0.53805702  0.05248807  1
  Fe  Fe75  1  0.19316728  0.53777444  0.71698308  1
  Fe  Fe76  1  0.69396571  0.53300778  0.71564840  1
  Fe  Fe77  1  0.68967946  0.53517332  0.04690793  1
  Fe  Fe78  1  0.69297566  0.03372818  0.37711685  1
  Fe  Fe79  1  0.69090190  0.03089662  0.71076578  1
  Fe  Fe80  1  0.69340752  0.03118611  0.04373683  1
  Fe  Fe81  1  0.18744577  0.53614274  0.37776224  1
  Fe  Fe82  1  0.02762773  0.19444349  0.88199573  1
  Fe  Fe83  1  0.53453120  0.69539913  0.21693053  1
  Fe  Fe84  1  0.54085337  0.69028731  0.88299222  1
  Fe  Fe85  1  0.03180651  0.70108734  0.87782110  1
  Fe  Fe86  1  0.53834916  0.69130090  0.54789493  1
  Fe  Fe87  1  0.03626473  0.18559649  0.20890316  1
  Fe  Fe88  1  0.03488227  0.18920097  0.54370114  1
  Fe  Fe89  1  0.52837613  0.20328921  0.87930588  1
  Fe  Fe90  1  0.03312212  0.69458380  0.54856363  1
  Fe  Fe91  1  0.53827585  0.19236327  0.21103568  1
  Fe  Fe92  1  0.30014006  0.96833567  0.61908788  1
  Fe  Fe93  1  0.80632062  0.46602163  0.61659408  1
  Fe  Fe94  1  0.30339426  0.46297031  0.95193172  1
  Fe  Fe95  1  0.30480494  0.46122039  0.28355197  1
  Fe  Fe96  1  0.81184514  0.96572599  0.28791497  1
  Fe  Fe97  1  0.80681863  0.46681103  0.95529893  1
  Fe  Fe98  1  0.81822863  0.96169999  0.95536254  1
  Fe  Fe99  1  0.81115075  0.96119525  0.61866574  1
  Fe  Fe100  1  0.30738801  0.46643706  0.62300347  1
  Fe  Fe101  1  0.30635629  0.96742130  0.28594943  1
  S  S102  1  0.37274362  0.14006539  0.07525601  1
  S  S103  1  0.35991285  0.13972312  0.42103086  1
  S  S104  1  0.36046659  0.13967849  0.75049360  1
  S  S105  1  0.35853995  0.64127683  0.08361159  1
  S  S106  1  0.36325106  0.63638248  0.41849594  1
  S  S107  1  0.36225742  0.64167574  0.75103914  1
  S  S108  1  0.85629047  0.13945262  0.08446637  1
  S  S109  1  0.85679070  0.14362775  0.41613036  1
  S  S110  1  0.85433201  0.14163086  0.74594514  1
  S  S111  1  0.85662037  0.63778983  0.08259192  1
  S  S112  1  0.85749817  0.64422266  0.41945847  1
  S  S113  1  0.85991189  0.63775167  0.75100137  1
  S  S114  1  0.13916826  0.35931442  0.25118647  1
  S  S115  1  0.13720744  0.36109514  0.58308550  1
  S  S116  1  0.13318017  0.36288631  0.91759575  1
  S  S117  1  0.13963659  0.86195254  0.25011086  1
  S  S118  1  0.14085443  0.85504141  0.57839498  1
  S  S119  1  0.14729342  0.85061774  0.91822499  1
  S  S120  1  0.63835864  0.36172627  0.25288099  1
  S  S121  1  0.64130330  0.36126195  0.58127154  1
  S  S122  1  0.64178365  0.36252280  0.91611025  1
  S  S123  1  0.64461965  0.85833162  0.25076297  1
  S  S124  1  0.64280636  0.85607879  0.58464041  1
  S  S125  1  0.64697977  0.85668372  0.91463063  1
  S  S126  1  0.05781791  0.17333551  0.04500405  1
  S  S127  1  0.06581692  0.17137453  0.37579244  1
  S  S128  1  0.05828465  0.16911830  0.70622588  1
  S  S129  1  0.06949157  0.67299387  0.04023002  1
  S  S130  1  0.05947061  0.66122188  0.37551425  1
  S  S131  1  0.06726354  0.66516113  0.70960541  1
  S  S132  1  0.57651089  0.17429701  0.04242594  1
  S  S133  1  0.57077156  0.17281721  0.37372263  1
  S  S134  1  0.56705891  0.16267342  0.70756299  1
  S  S135  1  0.56578079  0.66924969  0.04391619  1
  S  S136  1  0.56934839  0.66970733  0.37729735  1
  S  S137  1  0.56949653  0.66808655  0.70959033  1
  S  S138  1  0.32721663  0.43290247  0.12152285  1
  S  S139  1  0.33110141  0.43158332  0.45675273  1
  S  S140  1  0.31823685  0.43073456  0.78815808  1
  S  S141  1  0.33991489  0.93119152  0.13128008  1
  S  S142  1  0.32872619  0.93096037  0.45777152  1
  S  S143  1  0.33797902  0.92933834  0.79002085  1
  S  S144  1  0.82791514  0.43622329  0.12521493  1
  S  S145  1  0.83273039  0.43760544  0.45892707  1
  S  S146  1  0.82898745  0.42974172  0.79081467  1
  S  S147  1  0.83137172  0.93037219  0.12518073  1
  S  S148  1  0.83279957  0.93525901  0.45748909  1
  S  S149  1  0.83380064  0.93895997  0.79025715  1
  S  S150  1  0.42905924  0.32599150  0.29114154  1
  S  S151  1  0.43448282  0.34248011  0.62729886  1
  S  S152  1  0.42981452  0.33157705  0.95810180  1
  S  S153  1  0.43391385  0.83040663  0.29448029  1
  S  S154  1  0.43481290  0.82951210  0.62293062  1
  S  S155  1  0.44238460  0.82813897  0.95854845  1
  S  S156  1  0.93332211  0.32518273  0.28750402  1
  S  S157  1  0.93220302  0.33391458  0.62266049  1
  S  S158  1  0.92863671  0.32882155  0.95709773  1
  S  S159  1  0.92999651  0.83060693  0.28916749  1
  S  S160  1  0.94235349  0.83421220  0.62653254  1
  S  S161  1  0.93637972  0.82766865  0.95846038  1
  S  S162  1  0.16670810  0.06515782  0.21025869  1
  S  S163  1  0.17327646  0.07138691  0.54274181  1
  S  S164  1  0.15504211  0.06996305  0.87635898  1
  S  S165  1  0.17633938  0.56838498  0.21329577  1
  S  S166  1  0.17191196  0.56770727  0.54456157  1
  S  S167  1  0.16829107  0.57030887  0.87644582  1
  S  S168  1  0.67130504  0.06710070  0.20728374  1
  S  S169  1  0.66901953  0.05854022  0.53891272  1
  S  S170  1  0.66743130  0.06758649  0.87573688  1
  S  S171  1  0.66539566  0.57127294  0.20825789  1
  S  S172  1  0.67200906  0.56823145  0.54308828  1
  S  S173  1  0.67056758  0.56445545  0.87330089  1
  O  O174  1  0.38390796  0.22194712  0.07209400  1
  O  O175  1  0.36884398  0.21989204  0.41443370  1
  O  O176  1  0.37249234  0.21225194  0.73455252  1
  O  O177  1  0.36970492  0.71870722  0.07370242  1
  O  O178  1  0.37183618  0.71540067  0.41174287  1
  O  O179  1  0.37298693  0.72123318  0.74397772  1
  O  O180  1  0.86150429  0.22015299  0.07855122  1
  O  O181  1  0.86516775  0.22362976  0.40945286  1
  O  O182  1  0.86377735  0.21960198  0.73466517  1
  O  O183  1  0.86736323  0.71694875  0.07588745  1
  O  O184  1  0.86649834  0.72571658  0.41600429  1
  O  O185  1  0.86398810  0.71191955  0.73769178  1
  O  O186  1  0.29561445  0.12996224  0.08241622  1
  O  O187  1  0.27899661  0.13216111  0.42633367  1
  O  O188  1  0.28446884  0.13170754  0.76180266  1
  O  O189  1  0.27998305  0.63367447  0.09227203  1
  O  O190  1  0.28508621  0.62607699  0.42795040  1
  O  O191  1  0.28378133  0.63450247  0.76102277  1
  O  O192  1  0.77887825  0.12850796  0.09570331  1
  O  O193  1  0.77797250  0.13380963  0.42469556  1
  O  O194  1  0.77311104  0.13400845  0.74953877  1
  O  O195  1  0.77407551  0.62877307  0.08437107  1
  O  O196  1  0.77875203  0.63374469  0.42694165  1
  O  O197  1  0.78318314  0.62310185  0.76248842  1
  O  O198  1  0.12879911  0.28132243  0.26073627  1
  O  O199  1  0.12804805  0.28261811  0.59177935  1
  O  O200  1  0.12397168  0.28453198  0.92553834  1
  O  O201  1  0.13491323  0.78617223  0.26055845  1
  O  O202  1  0.13314949  0.77467409  0.58549235  1
  O  O203  1  0.13009268  0.76407092  0.91644910  1
  O  O204  1  0.62459315  0.28438231  0.26492725  1
  O  O205  1  0.63514613  0.28487871  0.59104259  1
  O  O206  1  0.63121484  0.28256584  0.92276538  1
  O  O207  1  0.63406563  0.78001237  0.26020815  1
  O  O208  1  0.63308410  0.77750851  0.59397685  1
  O  O209  1  0.63944620  0.77689715  0.92001041  1
  O  O210  1  0.21727069  0.36651405  0.24141627  1
  O  O211  1  0.21588193  0.37056483  0.57488630  1
  O  O212  1  0.21060189  0.37120123  0.90641368  1
  O  O213  1  0.21700885  0.87599192  0.23890964  1
  O  O214  1  0.22033640  0.86352389  0.57023694  1
  O  O215  1  0.22874644  0.85380789  0.91920754  1
  O  O216  1  0.71467672  0.36520963  0.24263738  1
  O  O217  1  0.71993950  0.37381278  0.57177615  1
  O  O218  1  0.72438459  0.36862798  0.91340759  1
  O  O219  1  0.72434026  0.86777153  0.24462147  1
  O  O220  1  0.72305103  0.86528964  0.58031872  1
  O  O221  1  0.72533146  0.87018348  0.90642872  1
  O  O222  1  0.43206419  0.13051730  0.14473709  1
  O  O223  1  0.41711166  0.12955298  0.48738312  1
  O  O224  1  0.42230467  0.13308893  0.81990076  1
  O  O225  1  0.41806718  0.63336904  0.15171246  1
  O  O226  1  0.42375998  0.62776411  0.48620339  1
  O  O227  1  0.42189328  0.63170849  0.81733170  1
  O  O228  1  0.91733523  0.13013294  0.14987217  1
  O  O229  1  0.91590758  0.13662248  0.48411661  1
  O  O230  1  0.90911261  0.13820263  0.81735478  1
  O  O231  1  0.91039505  0.62811732  0.15028349  1
  O  O232  1  0.91688128  0.63451489  0.48772347  1
  O  O233  1  0.92169631  0.63393003  0.82119682  1
  O  O234  1  0.38624058  0.08480758  0.00919873  1
  O  O235  1  0.36780941  0.08189557  0.35174075  1
  O  O236  1  0.37059796  0.07341061  0.68594230  1
  O  O237  1  0.36568050  0.57961826  0.01619884  1
  O  O238  1  0.37230805  0.57657619  0.35113700  1
  O  O239  1  0.36552582  0.58364374  0.68066303  1
  O  O240  1  0.86065694  0.08305888  0.01376145  1
  O  O241  1  0.86331746  0.08627667  0.34709278  1
  O  O242  1  0.86581950  0.08129589  0.68094247  1
  O  O243  1  0.86537374  0.57969704  0.01325305  1
  O  O244  1  0.86613970  0.58899811  0.35151959  1
  O  O245  1  0.87143461  0.57343885  0.68702914  1
  O  O246  1  0.07922094  0.36925839  0.18484539  1
  O  O247  1  0.07818136  0.36907930  0.51440910  1
  O  O248  1  0.07214900  0.37265800  0.85078177  1
  O  O249  1  0.07802580  0.86946018  0.18247468  1
  O  O250  1  0.08294903  0.86130372  0.50801101  1
  O  O251  1  0.09328788  0.86318471  0.85151854  1
  O  O252  1  0.57708684  0.36965144  0.18567353  1
  O  O253  1  0.58200015  0.36897848  0.51292997  1
  O  O254  1  0.58824104  0.37111680  0.84787192  1
  O  O255  1  0.58728720  0.86328363  0.18106508  1
  O  O256  1  0.58517980  0.86257902  0.51534938  1
  O  O257  1  0.58768309  0.86456125  0.84641439  1
  O  O258  1  0.13443761  0.41912331  0.32067859  1
  O  O259  1  0.12715144  0.42108917  0.64962185  1
  O  O260  1  0.12636116  0.42299694  0.98582183  1
  O  O261  1  0.13034651  0.92437323  0.31678066  1
  O  O262  1  0.13150399  0.91373622  0.64384150  1
  O  O263  1  0.13623470  0.90044008  0.98759458  1
  O  O264  1  0.63291528  0.42244931  0.32146836  1
  O  O265  1  0.63195194  0.42267212  0.64819974  1
  O  O266  1  0.63366803  0.41992755  0.98522216  1
  O  O267  1  0.63619157  0.91801571  0.31796952  1
  O  O268  1  0.63199806  0.91474026  0.65151661  1
  O  O269  1  0.63833654  0.91434519  0.98318970  1
  O  O270  1  0.02091328  0.21044809  0.10621216  1
  O  O271  1  0.02731149  0.20091234  0.43608944  1
  O  O272  1  0.02326572  0.20607704  0.76777987  1
  O  O273  1  0.02832953  0.69787859  0.09555826  1
  O  O274  1  0.02651164  0.69623099  0.43930697  1
  O  O275  1  0.02942160  0.68405041  0.76879319  1
  O  O276  1  0.54719393  0.20588053  0.10736840  1
  O  O277  1  0.53167939  0.19935757  0.43162818  1
  O  O278  1  0.54306468  0.18610931  0.77526528  1
  O  O279  1  0.52748246  0.70081703  0.10374954  1
  O  O280  1  0.53178720  0.70022835  0.43800396  1
  O  O281  1  0.53275848  0.69689836  0.77015028  1
  O  O282  1  0.29400908  0.47193428  0.06200905  1
  O  O283  1  0.29865018  0.46735134  0.39602810  1
  O  O284  1  0.28886716  0.47202839  0.72897056  1
  O  O285  1  0.32592233  0.96587678  0.07188701  1
  O  O286  1  0.30057971  0.96771222  0.39705573  1
  O  O287  1  0.31205294  0.94660253  0.71845664  1
  O  O288  1  0.79538037  0.46773508  0.06018131  1
  O  O289  1  0.80199115  0.47284087  0.39946707  1
  O  O290  1  0.79779301  0.46246823  0.72767396  1
  O  O291  1  0.80403529  0.96698361  0.06357202  1
  O  O292  1  0.80471693  0.97477858  0.39791850  1
  O  O293  1  0.79481578  0.97529608  0.72897800  1
  O  O294  1  0.46392548  0.29948249  0.22919587  1
  O  O295  1  0.46487548  0.32534954  0.56272881  1
  O  O296  1  0.46843913  0.30530564  0.90049675  1
  O  O297  1  0.47305934  0.80124964  0.23483536  1
  O  O298  1  0.47199383  0.79755361  0.56236963  1
  O  O299  1  0.48162348  0.79414784  0.89920877  1
  O  O300  1  0.96980127  0.28859832  0.22741043  1
  O  O301  1  0.96761343  0.30416675  0.56142306  1
  O  O302  1  0.96300630  0.29725104  0.89438867  1
  O  O303  1  0.96529445  0.80621381  0.22896525  1
  O  O304  1  0.97201391  0.80103530  0.55992819  1
  O  O305  1  0.97511671  0.79622331  0.89968058  1
  O  O306  1  0.20333126  0.03622508  0.27735161  1
  O  O307  1  0.20100170  0.03241676  0.60023126  1
  O  O308  1  0.16735687  0.04514201  0.94219848  1
  O  O309  1  0.20811020  0.52884647  0.27359843  1
  O  O310  1  0.20204889  0.53111402  0.60589424  1
  O  O311  1  0.19385667  0.53319440  0.93701182  1
  O  O312  1  0.70087865  0.02943345  0.26772750  1
  O  O313  1  0.70440360  0.02278225  0.59998523  1
  O  O314  1  0.69913594  0.03174147  0.93667286  1
  O  O315  1  0.68720873  0.53823733  0.26991327  1
  O  O316  1  0.70145723  0.53219636  0.60476617  1
  O  O317  1  0.70022327  0.52965808  0.93528903  1
  O  O318  1  0.07179352  0.09527871  0.04712294  1
  O  O319  1  0.08410457  0.09057250  0.37072013  1
  O  O320  1  0.06404195  0.08661131  0.69830396  1
  O  O321  1  0.08696369  0.59001548  0.03153611  1
  O  O322  1  0.07977519  0.58072057  0.37779373  1
  O  O323  1  0.08342883  0.58017922  0.69607237  1
  O  O324  1  0.59131618  0.09105745  0.03432509  1
  O  O325  1  0.59289804  0.09259763  0.37256458  1
  O  O326  1  0.58716241  0.07864992  0.69512959  1
  O  O327  1  0.58275175  0.58830935  0.04198124  1
  O  O328  1  0.58917486  0.58990067  0.37695664  1
  O  O329  1  0.58674135  0.58583366  0.70223608  1
  O  O330  1  0.40862100  0.41939662  0.12316191  1
  O  O331  1  0.41295205  0.41592999  0.46043884  1
  O  O332  1  0.39427009  0.40784067  0.78907423  1
  O  O333  1  0.42349834  0.91047787  0.14837204  1
  O  O334  1  0.41097324  0.91249113  0.46387907  1
  O  O335  1  0.42353391  0.91339982  0.80429207  1
  O  O336  1  0.90661994  0.41073144  0.12269562  1
  O  O337  1  0.91469030  0.41838684  0.46144271  1
  O  O338  1  0.91253180  0.41549898  0.79710720  1
  O  O339  1  0.91081293  0.90749959  0.13017368  1
  O  O340  1  0.91370550  0.91588715  0.46334959  1
  O  O341  1  0.91474152  0.93260150  0.79324107  1
  O  O342  1  0.40860692  0.40769568  0.29778922  1
  O  O343  1  0.41457947  0.42669852  0.64241312  1
  O  O344  1  0.40842912  0.41328787  0.96413290  1
  O  O345  1  0.41555905  0.91173478  0.30229637  1
  O  O346  1  0.41854229  0.91078477  0.62676961  1
  O  O347  1  0.42941171  0.90861864  0.96161877  1
  O  O348  1  0.91439148  0.40226134  0.28469763  1
  O  O349  1  0.91729016  0.41713421  0.62930645  1
  O  O350  1  0.91028497  0.40923558  0.95766408  1
  O  O351  1  0.91419516  0.91422604  0.30036753  1
  O  O352  1  0.91716090  0.91362135  0.62506589  1
  O  O353  1  0.92035384  0.90890370  0.95922616  1
  O  O354  1  0.08536861  0.08212745  0.21192376  1
  O  O355  1  0.09169928  0.09010955  0.54038821  1
  O  O356  1  0.07174112  0.09440802  0.85591909  1
  O  O357  1  0.10137455  0.59311177  0.21621350  1
  O  O358  1  0.09014040  0.58461117  0.54049439  1
  O  O359  1  0.08784434  0.59428082  0.87115101  1
  O  O360  1  0.58938619  0.08306756  0.19890360  1
  O  O361  1  0.58689869  0.06779897  0.53217237  1
  O  O362  1  0.58681764  0.08651093  0.87211972  1
  O  O363  1  0.58232965  0.59070191  0.19423640  1
  O  O364  1  0.58818770  0.58174504  0.53514561  1
  O  O365  1  0.58937977  0.58377411  0.86968743  1
  O  O366  1  0.12776796  0.22597005  0.05927386  1
  O  O367  1  0.13689392  0.22504265  0.39469226  1
  O  O368  1  0.13406588  0.21607238  0.72462896  1
  O  O369  1  0.14189528  0.72454287  0.05988440  1
  O  O370  1  0.13085239  0.71081989  0.38841907  1
  O  O371  1  0.13918746  0.71636483  0.72859762  1
  O  O372  1  0.64841691  0.22410202  0.05494391  1
  O  O373  1  0.64213226  0.22671837  0.39195327  1
  O  O374  1  0.63780073  0.21531880  0.72052213  1
  O  O375  1  0.63641505  0.72115938  0.05991524  1
  O  O376  1  0.63781585  0.72310071  0.39073553  1
  O  O377  1  0.64118000  0.71984934  0.72669121  1
  O  O378  1  0.27728603  0.36052853  0.10395143  1
  O  O379  1  0.28007473  0.35937507  0.44120789  1
  O  O380  1  0.26020221  0.36308884  0.77042916  1
  O  O381  1  0.28581304  0.86088119  0.11451758  1
  O  O382  1  0.27619238  0.86106870  0.44211811  1
  O  O383  1  0.28888816  0.85799613  0.78112673  1
  O  O384  1  0.77425548  0.36685372  0.11248668  1
  O  O385  1  0.78281730  0.36598888  0.44699258  1
  O  O386  1  0.77985246  0.35739541  0.77683483  1
  O  O387  1  0.77489160  0.86408477  0.11151570  1
  O  O388  1  0.77799193  0.86587816  0.43910055  1
  O  O389  1  0.78654464  0.86357890  0.77230023  1
  O  O390  1  0.36085833  0.27207555  0.27727479  1
  O  O391  1  0.36271768  0.28955665  0.60854431  1
  O  O392  1  0.35929077  0.27855072  0.94185522  1
  O  O393  1  0.36425704  0.77639982  0.27675739  1
  O  O394  1  0.36256074  0.77707357  0.60448437  1
  O  O395  1  0.37043494  0.77563909  0.93959860  1
  O  O396  1  0.86342544  0.27199411  0.27530658  1
  O  O397  1  0.85995644  0.28385388  0.60722919  1
  O  O398  1  0.85761049  0.27703479  0.94270403  1
  O  O399  1  0.85745413  0.77943380  0.27220498  1
  O  O400  1  0.87522170  0.78122534  0.61729384  1
  O  O401  1  0.86347169  0.77727719  0.93987007  1
  O  O402  1  0.21349601  0.13867638  0.22328811  1
  O  O403  1  0.22439708  0.14445375  0.56052600  1
  O  O404  1  0.21098220  0.14079119  0.89385663  1
  O  O405  1  0.23467552  0.63291262  0.22593572  1
  O  O406  1  0.22384847  0.63903910  0.56100171  1
  O  O407  1  0.22547433  0.63641027  0.89055613  1
  O  O408  1  0.72288174  0.13979495  0.22620083  1
  O  O409  1  0.71732768  0.13363127  0.55696149  1
  O  O410  1  0.72053807  0.13858195  0.89085183  1
  O  O411  1  0.71873048  0.64175848  0.22395098  1
  O  O412  1  0.72191377  0.64055942  0.56105410  1
  O  O413  1  0.72263324  0.63287277  0.88451476  1
  O  O414  1  0.48918736  0.33828997  0.03322807  1
  O  O415  1  0.49123647  0.33119819  0.36355489  1
  O  O416  1  0.49558918  0.34040255  0.69476988  1
  O  O417  1  0.49780547  0.82896351  0.03286313  1
  O  O418  1  0.49393563  0.83110026  0.36678782  1
  O  O419  1  0.49262134  0.83022251  0.69558918  1
  O  O420  1  0.98846739  0.33342220  0.02917005  1
  O  O421  1  0.99260274  0.33122909  0.36229334  1
  O  O422  1  0.99064549  0.33626904  0.69573064  1
  O  O423  1  0.99148198  0.83058884  0.03271810  1
  O  O424  1  0.98828326  0.82682330  0.36021956  1
  O  O425  1  1.00759706  0.84598308  0.69535054  1
  O  O426  1  0.16437616  0.00418132  0.14223363  1
  O  O427  1  0.16893099  0.01503227  0.46832595  1
  O  O428  1  0.15655345  0.00810610  0.80869055  1
  O  O429  1  0.16789005  0.50679792  0.13886531  1
  O  O430  1  0.17106413  0.50860550  0.47274590  1
  O  O431  1  0.15940531  0.50884604  0.80261164  1
  O  O432  1  0.67315611  0.00863515  0.13561714  1
  O  O433  1  0.67270497  0.00325456  0.46631994  1
  O  O434  1  0.66426149  0.00811999  0.80285757  1
  O  O435  1  0.66657726  0.50995878  0.13752146  1
  O  O436  1  0.67231274  0.50935817  0.47129010  1
  O  O437  1  0.66367277  0.50141152  0.80076951  1
  O  O438  1  0.00737439  0.16998017  0.30347906  1
  O  O439  1  0.00315695  0.17567696  0.63414263  1
  O  O440  1  -0.00140003  0.17088580  0.97140877  1
  O  O441  1  -0.00218942  0.65249240  0.30480975  1
  O  O442  1  0.00872212  0.66721522  0.63809887  1
  O  O443  1  0.01342916  0.67078497  0.96416952  1
  O  O444  1  0.51434429  0.16696608  0.29926622  1
  O  O445  1  0.50402928  0.16107195  0.64008875  1
  O  O446  1  0.51425331  0.17355466  0.97228900  1
  O  O447  1  0.50862068  0.66403244  0.30413353  1
  O  O448  1  0.51044426  0.66677081  0.63704252  1
  O  O449  1  0.50812936  0.66512154  0.96986618  1
  O  O450  1  0.33036170  0.48991288  0.19535439  1
  O  O451  1  0.33381315  0.48985286  0.53021453  1
  O  O452  1  0.32055505  0.49032278  0.86140644  1
  O  O453  1  0.33645861  0.99159637  0.20233705  1
  O  O454  1  0.33366699  0.99160451  0.53100437  1
  O  O455  1  0.33701626  0.99570883  0.85379255  1
  O  O456  1  0.83883346  0.49895838  0.19519739  1
  O  O457  1  0.84061736  0.49677236  0.53414242  1
  O  O458  1  0.83142524  0.49037665  0.86247720  1
  O  O459  1  0.83728814  0.99277078  0.19807407  1
  O  O460  1  0.83468022  0.99389446  0.53042760  1
  O  O461  1  0.82886120  0.99342593  0.86298640  1
