# generated using pymatgen
data_Na31Fe20(SO4)36
_symmetry_space_group_name_H-M   'P 1'
_cell_length_a   18.07481106
_cell_length_b   18.08483962
_cell_length_c   19.72139844
_cell_angle_alpha   107.58729939
_cell_angle_beta   107.57131478
_cell_angle_gamma   90.74018912
_symmetry_Int_Tables_number   1
_chemical_formula_structural   Na31Fe20(SO4)36
_chemical_formula_sum   'Na62 Fe40 S72 O288'
_cell_volume   5819.89143973
_cell_formula_units_Z   2
loop_
 _symmetry_equiv_pos_site_id
 _symmetry_equiv_pos_as_xyz
  1  'x, y, z'
loop_
 _atom_site_type_symbol
 _atom_site_label
 _atom_site_symmetry_multiplicity
 _atom_site_fract_x
 _atom_site_fract_y
 _atom_site_fract_z
 _atom_site_occupancy
  Na  Na0  1  0.14358968  0.37551950  0.09912036  1
  Na  Na1  1  0.13202405  0.34489660  0.38808307  1
  Na  Na2  1  0.13584784  0.36500548  0.74993055  1
  Na  Na3  1  0.13260828  0.86924170  0.09878840  1
  Na  Na4  1  0.13684108  0.85436914  0.40425370  1
  Na  Na5  1  0.13458201  0.86388982  0.74913091  1
  Na  Na6  1  0.62221097  0.34914697  0.06245703  1
  Na  Na7  1  0.63322945  0.37083297  0.41481320  1
  Na  Na8  1  0.62355138  0.36319531  0.75750722  1
  Na  Na9  1  0.63640242  0.87029871  0.08818676  1
  Na  Na10  1  0.63901320  0.86429001  0.42237512  1
  Na  Na11  1  0.63040920  0.86879449  0.74541056  1
  Na  Na12  1  0.35857136  0.12712430  0.25036570  1
  Na  Na13  1  0.38205255  0.13746378  0.59754796  1
  Na  Na14  1  0.36319348  0.14581518  0.91703556  1
  Na  Na15  1  0.35854036  0.63559334  0.25408151  1
  Na  Na16  1  0.36454381  0.63312165  0.58022583  1
  Na  Na17  1  0.37356460  0.63035663  0.91699932  1
  Na  Na18  1  0.87280312  0.13787852  0.24807281  1
  Na  Na19  1  0.86502533  0.13706604  0.58598063  1
  Na  Na20  1  0.82500324  0.12607383  0.88122428  1
  Na  Na21  1  0.86559380  0.63143341  0.24934374  1
  Na  Na22  1  0.84159472  0.62844273  0.55674930  1
  Na  Na23  1  0.87463867  0.64081333  0.93154079  1
  Na  Na24  1  0.98530119  0.04283170  0.09442997  1
  Na  Na25  1  0.97920109  0.00690714  0.75071347  1
  Na  Na26  1  1.00176099  0.00424766  0.40865044  1
  Na  Na27  1  0.46375471  0.51112794  0.40509591  1
  Na  Na28  1  0.45480452  0.00275426  0.40253778  1
  Na  Na29  1  0.51190868  0.06106925  0.75990811  1
  Na  Na30  1  0.99824178  0.50948870  0.40511413  1
  Na  Na31  1  0.98858224  0.51106309  0.75778211  1
  Na  Na32  1  0.51399643  0.49783749  0.06280377  1
  Na  Na33  1  0.01081671  0.99235496  0.92454507  1
  Na  Na34  1  0.00096545  0.48327919  0.94368927  1
  Na  Na35  1  0.00656521  0.99067794  0.58404230  1
  Na  Na36  1  0.50944344  0.48564432  0.59113592  1
  Na  Na37  1  0.01832611  0.98278036  0.23866326  1
  Na  Na38  1  0.52363457  0.48731259  0.25730885  1
  Na  Na39  1  0.48979622  1.01166028  0.92137093  1
  Na  Na40  1  0.01052618  0.48896711  0.58223497  1
  Na  Na41  1  0.01563174  0.49792351  0.22168042  1
  Na  Na42  1  0.24735885  0.25400696  0.00755930  1
  Na  Na43  1  0.27320931  0.26404243  0.65978835  1
  Na  Na44  1  0.25872665  0.75640426  0.66062913  1
  Na  Na45  1  0.76723952  0.76024341  0.00320685  1
  Na  Na46  1  0.24782802  0.74969492  0.00734838  1
  Na  Na47  1  0.75204261  0.25164408  0.33330668  1
  Na  Na48  1  0.74230710  0.25296671  -0.02323577  1
  Na  Na49  1  0.75667838  0.75830584  0.64964906  1
  Na  Na50  1  0.73801685  0.22884955  0.68638364  1
  Na  Na51  1  0.73947316  0.72939595  0.35397634  1
  Na  Na52  1  0.25149466  0.75739470  0.18083496  1
  Na  Na53  1  0.26244629  0.76013530  0.48525490  1
  Na  Na54  1  0.23403913  0.25024230  0.19666797  1
  Na  Na55  1  0.27708486  0.26615834  0.82483079  1
  Na  Na56  1  0.74633895  0.25218274  0.15955264  1
  Na  Na57  1  0.75316760  0.74324461  0.17190189  1
  Na  Na58  1  0.74417974  0.24447250  0.50558806  1
  Na  Na59  1  0.25117601  0.75109664  0.83664423  1
  Na  Na60  1  0.26050861  0.25852441  0.48275987  1
  Na  Na61  1  0.75736653  0.75318957  0.83025398  1
  Fe  Fe62  1  0.96615598  0.80467062  0.44871049  1
  Fe  Fe63  1  0.46948369  0.80695883  0.79001620  1
  Fe  Fe64  1  0.96641587  0.80668898  0.78419451  1
  Fe  Fe65  1  0.96346409  0.29953128  0.12008989  1
  Fe  Fe66  1  0.46695979  0.81514913  0.12628366  1
  Fe  Fe67  1  0.46180558  0.30751484  0.11937363  1
  Fe  Fe68  1  0.97078404  0.30092346  0.44925336  1
  Fe  Fe69  1  0.46497638  0.81140437  0.45351534  1
  Fe  Fe70  1  0.46133018  0.30693476  0.44832698  1
  Fe  Fe71  1  0.96337599  0.30701030  0.78580044  1
  Fe  Fe72  1  0.19987242  0.53706672  0.05495923  1
  Fe  Fe73  1  0.68606860  0.03512838  0.04505191  1
  Fe  Fe74  1  0.20027735  0.53451850  0.37609033  1
  Fe  Fe75  1  0.68885737  0.03441123  0.37364069  1
  Fe  Fe76  1  0.19973046  0.03194655  0.37773532  1
  Fe  Fe77  1  0.19340018  0.53611149  0.71312289  1
  Fe  Fe78  1  0.19373996  0.03235135  0.71739580  1
  Fe  Fe79  1  0.19409871  0.03381295  0.05629039  1
  Fe  Fe80  1  0.69529307  0.53371887  0.71636409  1
  Fe  Fe81  1  0.69332229  0.53379324  0.04553014  1
  Fe  Fe82  1  0.53247139  0.18775426  0.21172629  1
  Fe  Fe83  1  0.53842274  0.69046846  0.54591504  1
  Fe  Fe84  1  0.03398416  0.69852737  0.88487033  1
  Fe  Fe85  1  0.03992579  0.19097443  0.55043616  1
  Fe  Fe86  1  0.03631854  0.19335034  0.88237823  1
  Fe  Fe87  1  0.03090807  0.70026083  0.20932650  1
  Fe  Fe88  1  0.53636379  0.69230017  0.21806518  1
  Fe  Fe89  1  0.53690654  0.68871238  0.88000257  1
  Fe  Fe90  1  0.53529119  0.19201593  0.54591612  1
  Fe  Fe91  1  0.03614396  0.69171779  0.54672751  1
  Fe  Fe92  1  0.80946321  0.96474377  0.28280886  1
  Fe  Fe93  1  0.31595307  0.46463597  0.62459945  1
  Fe  Fe94  1  0.79679515  0.96570603  0.61472874  1
  Fe  Fe95  1  0.79872742  0.46678952  0.28948806  1
  Fe  Fe96  1  0.30697961  0.46837190  0.95267762  1
  Fe  Fe97  1  0.31257878  0.96621211  0.96187625  1
  Fe  Fe98  1  0.80371094  0.45798178  0.95148754  1
  Fe  Fe99  1  0.80657785  0.96605550  0.95162127  1
  Fe  Fe100  1  0.30867951  0.96426798  0.62057250  1
  Fe  Fe101  1  0.80576893  0.46572134  0.61696977  1
  S  S102  1  0.35520451  0.14192402  0.08687694  1
  S  S103  1  0.35827439  0.14163924  0.41721732  1
  S  S104  1  0.35552516  0.13591470  0.75258675  1
  S  S105  1  0.36275278  0.64374645  0.08306794  1
  S  S106  1  0.36179221  0.64536440  0.42292724  1
  S  S107  1  0.35954206  0.64366128  0.75041978  1
  S  S108  1  0.84994411  0.14250083  0.07529886  1
  S  S109  1  0.86323771  0.13845533  0.41842388  1
  S  S110  1  0.86558914  0.13592427  0.74480673  1
  S  S111  1  0.86180777  0.63186759  0.08201186  1
  S  S112  1  0.86471214  0.63663349  0.41540814  1
  S  S113  1  0.86205904  0.63925782  0.74813511  1
  S  S114  1  0.13230521  0.36887419  0.24591523  1
  S  S115  1  0.14180785  0.35978244  0.58326099  1
  S  S116  1  0.13733432  0.36363788  0.91677132  1
  S  S117  1  0.13523302  0.86245536  0.25412982  1
  S  S118  1  0.13950715  0.85970924  0.58460024  1
  S  S119  1  0.14078975  0.86127953  0.91677884  1
  S  S120  1  0.63820362  0.35468404  0.24641151  1
  S  S121  1  0.64193497  0.35937867  0.58391489  1
  S  S122  1  0.63210593  0.36560498  0.91843043  1
  S  S123  1  0.64645412  0.85612904  0.24959974  1
  S  S124  1  0.64009465  0.85704608  0.58134698  1
  S  S125  1  0.64415789  0.85418926  0.91924785  1
  S  S126  1  0.06688573  0.17038598  0.04200804  1
  S  S127  1  0.06724376  0.16358997  0.37810608  1
  S  S128  1  0.07253371  0.16875094  0.71157953  1
  S  S129  1  0.07404594  0.66953542  0.04203234  1
  S  S130  1  0.06869751  0.66882545  0.37526383  1
  S  S131  1  0.06639414  0.66882484  0.70842994  1
  S  S132  1  0.55838820  0.16504263  0.04357919  1
  S  S133  1  0.56793644  0.17274813  0.37638070  1
  S  S134  1  0.57082017  0.17012131  0.70601181  1
  S  S135  1  0.57098708  0.67555807  0.04718014  1
  S  S136  1  0.55751454  0.66480198  0.37519099  1
  S  S137  1  0.56948428  0.67028235  0.71040104  1
  S  S138  1  0.33349968  0.44017710  0.12647389  1
  S  S139  1  0.32958628  0.43593666  0.46005184  1
  S  S140  1  0.32737476  0.43539359  0.78652721  1
  S  S141  1  0.32686796  0.93180171  0.12428425  1
  S  S142  1  0.32847352  0.93528442  0.46149729  1
  S  S143  1  0.32783686  0.92804516  0.79433613  1
  S  S144  1  0.82424392  0.42588138  0.12450279  1
  S  S145  1  0.83617142  0.42792796  0.45932233  1
  S  S146  1  0.83665299  0.43365285  0.79230851  1
  S  S147  1  0.83546222  0.94363682  0.12410129  1
  S  S148  1  0.83436625  0.93135865  0.45532484  1
  S  S149  1  0.83643058  0.92986508  0.78898923  1
  S  S150  1  0.43764097  0.33176273  0.28890996  1
  S  S151  1  0.43643557  0.32997301  0.61986481  1
  S  S152  1  0.41836374  0.33111466  0.96041122  1
  S  S153  1  0.43927634  0.82889464  0.28980513  1
  S  S154  1  0.43244152  0.82875787  0.62659250  1
  S  S155  1  0.43559549  0.82932514  0.95822787  1
  S  S156  1  0.92518902  0.33081662  0.29085512  1
  S  S157  1  0.93694232  0.33246846  0.62435033  1
  S  S158  1  0.92608857  0.31986321  0.95287482  1
  S  S159  1  0.93089287  0.82997751  0.29177365  1
  S  S160  1  0.93348303  0.82951216  0.62215136  1
  S  S161  1  0.93825451  0.83482156  0.95851793  1
  S  S162  1  0.16461983  0.06576619  0.21169637  1
  S  S163  1  0.17062437  0.06566008  0.54362891  1
  S  S164  1  0.16623868  0.06412008  0.87770970  1
  S  S165  1  0.16736578  0.57941887  0.20853880  1
  S  S166  1  0.16880549  0.56637435  0.54108953  1
  S  S167  1  0.17010388  0.57040642  0.87481624  1
  S  S168  1  0.67569043  0.06938340  0.21186746  1
  S  S169  1  0.67284842  0.06822185  0.53596332  1
  S  S170  1  0.66016031  0.05210256  0.87740414  1
  S  S171  1  0.66961570  0.56602592  0.20930058  1
  S  S172  1  0.66622354  0.56135646  0.54492520  1
  S  S173  1  0.67889132  0.57380216  0.87889115  1
  O  O174  1  0.36506419  0.22177677  0.08114194  1
  O  O175  1  0.36433768  0.22332534  0.41462503  1
  O  O176  1  0.35592808  0.21163262  0.74014069  1
  O  O177  1  0.37226286  0.72307559  0.07586106  1
  O  O178  1  0.36695126  0.72819950  0.42397906  1
  O  O179  1  0.36972773  0.72316549  0.74307671  1
  O  O180  1  0.86130724  0.22162320  0.06790610  1
  O  O181  1  0.87348454  0.21689697  0.40927607  1
  O  O182  1  0.87989744  0.21256115  0.73186465  1
  O  O183  1  0.86817262  0.70479380  0.06562257  1
  O  O184  1  0.87706599  0.71422972  0.40444070  1
  O  O185  1  0.87121845  0.71767577  0.73931716  1
  O  O186  1  0.27597375  0.13307422  0.09485260  1
  O  O187  1  0.27852350  0.12951668  0.42527263  1
  O  O188  1  0.27670175  0.12235746  0.76394280  1
  O  O189  1  0.28251116  0.63543464  0.08900781  1
  O  O190  1  0.28515616  0.63141282  0.43511027  1
  O  O191  1  0.27950813  0.63602164  0.75718127  1
  O  O192  1  0.76868245  0.13523725  0.07912333  1
  O  O193  1  0.78264515  0.12996498  0.42243390  1
  O  O194  1  0.78958315  0.13176990  0.75477419  1
  O  O195  1  0.78368969  0.62349467  0.09474340  1
  O  O196  1  0.78909501  0.63000520  0.42582699  1
  O  O197  1  0.78420462  0.63118712  0.75783533  1
  O  O198  1  0.12447892  0.29427534  0.25897601  1
  O  O199  1  0.13324094  0.28384434  0.59743807  1
  O  O200  1  0.13000893  0.28536570  0.92647384  1
  O  O201  1  0.11915654  0.78874367  0.27049500  1
  O  O202  1  0.12920383  0.78277836  0.59668920  1
  O  O203  1  0.13239902  0.78086113  0.92218587  1
  O  O204  1  0.63335165  0.27351635  0.25148722  1
  O  O205  1  0.63500908  0.27846888  0.58673691  1
  O  O206  1  0.62363072  0.29334020  0.93593669  1
  O  O207  1  0.64029678  0.77612274  0.25630521  1
  O  O208  1  0.63121033  0.77386026  0.58339581  1
  O  O209  1  0.63545923  0.77483365  0.92676683  1
  O  O210  1  0.20452790  0.38096017  0.22963703  1
  O  O211  1  0.22296086  0.36982625  0.58138086  1
  O  O212  1  0.21296440  0.37347650  0.90335780  1
  O  O213  1  0.21265087  0.86546769  0.24631643  1
  O  O214  1  0.22013073  0.86681110  0.58032385  1
  O  O215  1  0.22015685  0.87111490  0.91014537  1
  O  O216  1  0.71852472  0.36714980  0.24132244  1
  O  O217  1  0.72125371  0.37102269  0.57609222  1
  O  O218  1  0.71517403  0.37381925  0.91400342  1
  O  O219  1  0.72339104  0.86747848  0.23719927  1
  O  O220  1  0.71876174  0.86530826  0.57052218  1
  O  O221  1  0.72488976  0.86318758  0.91419499  1
  O  O222  1  0.41384614  0.13126273  0.15299329  1
  O  O223  1  0.41682925  0.13270471  0.48558231  1
  O  O224  1  0.41592868  0.12754370  0.81746944  1
  O  O225  1  0.42046398  0.63386040  0.15008216  1
  O  O226  1  0.42354435  0.63389817  0.48945708  1
  O  O227  1  0.41743041  0.63670857  0.81901729  1
  O  O228  1  0.90582296  0.13305449  0.14258998  1
  O  O229  1  0.91979544  0.13339070  0.48938306  1
  O  O230  1  0.92743115  0.12678134  0.81150484  1
  O  O231  1  0.92152488  0.62969925  0.15250492  1
  O  O232  1  0.92739947  0.62776419  0.48233137  1
  O  O233  1  0.92248834  0.63081571  0.81582785  1
  O  O234  1  0.35989948  0.08501814  0.01579706  1
  O  O235  1  0.36819455  0.08577792  0.35063709  1
  O  O236  1  0.36101736  0.07512510  0.68280826  1
  O  O237  1  0.36967213  0.58528582  0.01405720  1
  O  O238  1  0.36937618  0.59128847  0.35447369  1
  O  O239  1  0.36660552  0.58535617  0.68212217  1
  O  O240  1  0.86009773  0.08379774  0.00700626  1
  O  O241  1  0.87574540  0.07827506  0.35354762  1
  O  O242  1  0.87308234  0.07376435  0.67713171  1
  O  O243  1  0.86978351  0.56623233  0.01773138  1
  O  O244  1  0.87304646  0.57580940  0.34757349  1
  O  O245  1  0.87013650  0.57929197  0.68044216  1
  O  O246  1  0.06533555  0.37619832  0.17995437  1
  O  O247  1  0.08619248  0.36184674  0.51087013  1
  O  O248  1  0.07424889  0.37089051  0.85016175  1
  O  O249  1  0.07439959  0.87112252  0.18914591  1
  O  O250  1  0.08262136  0.86594215  0.51486466  1
  O  O251  1  0.08257687  0.86844870  0.84742258  1
  O  O252  1  0.58106139  0.36125405  0.17586784  1
  O  O253  1  0.58235981  0.37103910  0.51800448  1
  O  O254  1  0.57657101  0.37251510  0.85148105  1
  O  O255  1  0.58549714  0.86502250  0.18350008  1
  O  O256  1  0.58058414  0.86542162  0.51357120  1
  O  O257  1  0.58726028  0.86031558  0.84935285  1
  O  O258  1  0.12528101  0.43313974  0.31362469  1
  O  O259  1  0.12582954  0.42235047  0.64562085  1
  O  O260  1  0.13053601  0.42382706  0.98499107  1
  O  O261  1  0.13021761  0.92749280  0.32358800  1
  O  O262  1  0.12818228  0.92119983  0.65018139  1
  O  O263  1  0.12888421  0.91889205  0.98312963  1
  O  O264  1  0.62569466  0.41107961  0.31151954  1
  O  O265  1  0.63499483  0.41565100  0.65407689  1
  O  O266  1  0.62626188  0.43123701  0.98674742  1
  O  O267  1  0.64234658  0.91336018  0.31978600  1
  O  O268  1  0.63613511  0.91108608  0.65056734  1
  O  O269  1  0.63329796  0.91212250  0.98594422  1
  O  O270  1  0.02735259  0.19789258  0.09886818  1
  O  O271  1  0.03593508  0.19388065  0.44495748  1
  O  O272  1  0.03946696  0.20168705  0.77398685  1
  O  O273  1  0.04099880  0.69418482  0.10313864  1
  O  O274  1  0.03526715  0.70016298  0.43908252  1
  O  O275  1  0.03168831  0.69994937  0.77024194  1
  O  O276  1  0.52528068  0.19862274  0.10760558  1
  O  O277  1  0.52985762  0.20237749  0.43649111  1
  O  O278  1  0.52693200  0.18929891  0.75906892  1
  O  O279  1  0.53212022  0.70513600  0.10608408  1
  O  O280  1  0.52256570  0.70535201  0.43613034  1
  O  O281  1  0.53181478  0.69832116  0.77098613  1
  O  O282  1  0.30013720  0.47184492  0.05979802  1
  O  O283  1  0.30138494  0.47163269  0.40021218  1
  O  O284  1  0.29224954  0.47670951  0.72762929  1
  O  O285  1  0.29333739  0.96624214  0.05932142  1
  O  O286  1  0.29819620  0.97324373  0.40281697  1
  O  O287  1  0.29721947  0.96145080  0.73167031  1
  O  O288  1  0.79668195  0.46350398  0.06455475  1
  O  O289  1  0.80888736  0.46105225  0.39820502  1
  O  O290  1  0.80720378  0.47105921  0.73182924  1
  O  O291  1  0.79289891  0.97679728  0.06283341  1
  O  O292  1  0.80730322  0.96779971  0.39453361  1
  O  O293  1  0.81407423  0.96170271  0.72645261  1
  O  O294  1  0.47456546  0.29354197  0.22881112  1
  O  O295  1  0.47157865  0.30034057  0.55631241  1
  O  O296  1  0.43612554  0.30000789  0.89185436  1
  O  O297  1  0.47999405  0.79467424  0.23078251  1
  O  O298  1  0.47208897  0.80254992  0.56849855  1
  O  O299  1  0.47358056  0.79818530  0.89801701  1
  O  O300  1  0.95345165  0.30421258  0.22649003  1
  O  O301  1  0.97401598  0.30256596  0.56407454  1
  O  O302  1  0.96613235  0.29278816  0.89304603  1
  O  O303  1  0.95813338  0.79442996  0.22784668  1
  O  O304  1  0.96979776  0.79865118  0.56106036  1
  O  O305  1  0.96826258  0.80090862  0.89125133  1
  O  O306  1  0.19759665  0.03300197  0.27404653  1
  O  O307  1  0.19851291  0.02708695  0.60317664  1
  O  O308  1  0.19466985  0.02986107  0.93975726  1
  O  O309  1  0.19734291  0.55377159  0.27477520  1
  O  O310  1  0.19887454  0.53035672  0.60210842  1
  O  O311  1  0.20037129  0.53495839  0.93577600  1
  O  O312  1  0.70683575  0.03050081  0.27201400  1
  O  O313  1  0.70090950  0.03171614  0.59508621  1
  O  O314  1  0.70173202  0.01866253  0.94089890  1
  O  O315  1  0.69778408  0.53013844  0.26890856  1
  O  O316  1  0.69986637  0.53014393  0.61142901  1
  O  O317  1  0.70839544  0.53763883  0.93961127  1
  O  O318  1  0.08634458  0.08830874  0.03921551  1
  O  O319  1  0.09085775  0.08293259  0.37614826  1
  O  O320  1  0.08447932  0.08488689  0.70542160  1
  O  O321  1  0.09427014  0.58708224  0.02915302  1
  O  O322  1  0.08256180  0.58567367  0.36824638  1
  O  O323  1  0.08208069  0.58604225  0.70344194  1
  O  O324  1  0.58235592  0.08584204  0.04532430  1
  O  O325  1  0.58905294  0.09333560  0.37369219  1
  O  O326  1  0.59705518  0.09250683  0.69772703  1
  O  O327  1  0.59063624  0.59554506  0.04535203  1
  O  O328  1  0.56379880  0.58392183  0.37549288  1
  O  O329  1  0.58859384  0.58902471  0.70449591  1
  O  O330  1  0.41472298  0.41931406  0.12947757  1
  O  O331  1  0.41238087  0.41784764  0.46463193  1
  O  O332  1  0.40283101  0.41608574  0.78282225  1
  O  O333  1  0.40276662  0.90532747  0.11727516  1
  O  O334  1  0.40688177  0.91247185  0.45806447  1
  O  O335  1  0.40934154  0.90988629  0.80085022  1
  O  O336  1  0.90536827  0.40673521  0.13028345  1
  O  O337  1  0.91945295  0.40964084  0.46925215  1
  O  O338  1  0.92131102  0.42098458  0.79934283  1
  O  O339  1  0.91680612  0.94096812  0.12502939  1
  O  O340  1  0.91849268  0.91602258  0.46377276  1
  O  O341  1  0.92235388  0.91629738  0.80331861  1
  O  O342  1  0.43206671  0.41339847  0.29140579  1
  O  O343  1  0.41554266  0.41083813  0.61971155  1
  O  O344  1  0.40668557  0.41705038  0.97519655  1
  O  O345  1  0.42211648  0.90664390  0.28806142  1
  O  O346  1  0.41112873  0.90879252  0.63331129  1
  O  O347  1  0.41538636  0.90914326  0.95850962  1
  O  O348  1  0.90748166  0.41388546  0.30411847  1
  O  O349  1  0.92202555  0.41585096  0.63156593  1
  O  O350  1  0.90776747  0.40100032  0.95561738  1
  O  O351  1  0.91627968  0.91325427  0.29541884  1
  O  O352  1  0.91672601  0.91135715  0.62603895  1
  O  O353  1  0.91717843  0.91562838  0.95880527  1
  O  O354  1  0.08226850  0.07644131  0.20423712  1
  O  O355  1  0.08578015  0.07781915  0.53616524  1
  O  O356  1  0.08195121  0.07788931  0.86794782  1
  O  O357  1  0.08394035  0.59474611  0.19929609  1
  O  O358  1  0.08474606  0.58037782  0.53549957  1
  O  O359  1  0.08898301  0.59036555  0.87001484  1
  O  O360  1  0.59838438  0.09192986  0.21367605  1
  O  O361  1  0.59117167  0.08625822  0.52502516  1
  O  O362  1  0.57920702  0.05777819  0.87871111  1
  O  O363  1  0.58750815  0.58595357  0.20473787  1
  O  O364  1  0.58381215  0.57810902  0.54186829  1
  O  O365  1  0.59966583  0.59490802  0.87568959  1
  O  O366  1  0.13838942  0.22284313  0.05902649  1
  O  O367  1  0.13568584  0.21728809  0.39201210  1
  O  O368  1  0.14462927  0.21676674  0.72428303  1
  O  O369  1  0.14359831  0.72309691  0.05556880  1
  O  O370  1  0.14116111  0.71793595  0.39180992  1
  O  O371  1  0.13893541  0.71862979  0.72401593  1
  O  O372  1  0.62748284  0.21790284  0.05599943  1
  O  O373  1  0.63838399  0.22729310  0.39349540  1
  O  O374  1  0.63573896  0.23162563  0.72417889  1
  O  O375  1  0.64243927  0.72823847  0.06412226  1
  O  O376  1  0.63155690  0.71017156  0.38836798  1
  O  O377  1  0.64012399  0.72387536  0.72794594  1
  O  O378  1  0.28114297  0.36918972  0.11041087  1
  O  O379  1  0.27809048  0.36599020  0.44693136  1
  O  O380  1  0.26965933  0.36616264  0.76800645  1
  O  O381  1  0.27118070  0.86307807  0.10933461  1
  O  O382  1  0.27458318  0.86753068  0.44983593  1
  O  O383  1  0.27521423  0.85687612  0.77884338  1
  O  O384  1  0.77024206  0.35531511  0.10650868  1
  O  O385  1  0.78484789  0.35727994  0.44687016  1
  O  O386  1  0.78928335  0.36014466  0.77451723  1
  O  O387  1  0.79322419  0.86703865  0.11046627  1
  O  O388  1  0.78430414  0.85932057  0.43836531  1
  O  O389  1  0.78786496  0.85607561  0.77271083  1
  O  O390  1  0.36343216  0.28581364  0.27330581  1
  O  O391  1  0.36293263  0.27781280  0.59948391  1
  O  O392  1  0.34590235  0.28716985  0.95774487  1
  O  O393  1  0.37011196  0.77416174  0.27303876  1
  O  O394  1  0.36142227  0.77351274  0.60691671  1
  O  O395  1  0.36432581  0.77620252  0.94084898  1
  O  O396  1  0.85499939  0.27908199  0.27981768  1
  O  O397  1  0.86448351  0.28251155  0.60721009  1
  O  O398  1  0.85537741  0.26708213  0.93315457  1
  O  O399  1  0.85972835  0.78425804  0.28666076  1
  O  O400  1  0.86400621  0.77766152  0.60854993  1
  O  O401  1  0.86670859  0.78307595  0.94374946  1
  O  O402  1  0.21355649  0.13711927  0.22364487  1
  O  O403  1  0.21835468  0.13980015  0.56293075  1
  O  O404  1  0.21447443  0.13739922  0.89371831  1
  O  O405  1  0.21591631  0.64839916  0.21427881  1
  O  O406  1  0.21694717  0.64071774  0.55950431  1
  O  O407  1  0.22298810  0.64064598  0.88897878  1
  O  O408  1  0.73182265  0.13754129  0.22748295  1
  O  O409  1  0.72617720  0.14074080  0.55460177  1
  O  O410  1  0.70335242  0.12885915  0.89490254  1
  O  O411  1  0.72238071  0.63729312  0.22512690  1
  O  O412  1  0.71554735  0.63418068  0.56127293  1
  O  O413  1  0.73379489  0.64290130  0.89328988  1
  O  O414  1  0.48418711  0.32959650  0.02897181  1
  O  O415  1  0.49340966  0.33099838  0.36346327  1
  O  O416  1  0.49314971  0.33313775  0.68987289  1
  O  O417  1  0.49353054  0.83300496  0.03108928  1
  O  O418  1  0.49702222  0.83290197  0.36439237  1
  O  O419  1  0.48968430  0.82972332  0.70001398  1
  O  O420  1  0.98452269  0.32335350  0.02558422  1
  O  O421  1  0.98947478  0.32976326  0.36052661  1
  O  O422  1  0.99504939  0.33308470  0.69716702  1
  O  O423  1  1.00020952  0.83869823  0.02635270  1
  O  O424  1  0.99434355  0.83722578  0.36488353  1
  O  O425  1  0.99434214  0.83409298  0.69555973  1
  O  O426  1  0.16630190  0.00492224  0.13955487  1
  O  O427  1  0.17180908  0.00931966  0.47101801  1
  O  O428  1  0.16689552  0.00448116  0.80598774  1
  O  O429  1  0.16619442  0.51347737  0.13925912  1
  O  O430  1  0.16784816  0.50995191  0.46835829  1
  O  O431  1  0.16448977  0.50998073  0.80143185  1
  O  O432  1  0.67008025  0.00937551  0.13910783  1
  O  O433  1  0.67516219  0.00976513  0.46348492  1
  O  O434  1  0.66267160  -0.00275618  0.80679182  1
  O  O435  1  0.66275322  0.50792257  0.13464958  1
  O  O436  1  0.66669871  0.50082435  0.47736293  1
  O  O437  1  0.67529813  0.51298997  0.80642993  1
  O  O438  1  0.00313409  0.15744494  0.31049373  1
  O  O439  1  0.01209890  0.16654750  0.63896061  1
  O  O440  1  0.01059231  0.16245651  0.96587923  1
  O  O441  1  0.00822771  0.66965098  0.30482539  1
  O  O442  1  0.00747140  0.66648238  0.63612363  1
  O  O443  1  0.01159164  0.66833246  0.97020334  1
  O  O444  1  0.50890875  0.16921690  0.30381007  1
  O  O445  1  0.51271018  0.16728837  0.62893585  1
  O  O446  1  0.49560931  0.15442419  0.97327888  1
  O  O447  1  0.50082729  0.66357179  0.30083983  1
  O  O448  1  0.51032867  0.66873946  0.63828525  1
  O  O449  1  0.51353846  0.67143025  0.97309994  1
  O  O450  1  0.33703676  0.50241917  0.19445459  1
  O  O451  1  0.33528244  0.49547819  0.53473260  1
  O  O452  1  0.32843115  0.49211773  0.86074778  1
  O  O453  1  0.33596437  0.99312961  0.19378263  1
  O  O454  1  0.33878328  0.99455051  0.53659444  1
  O  O455  1  0.33014972  0.98859919  0.86632985  1
  O  O456  1  0.82632852  0.48531645  0.19716237  1
  O  O457  1  0.83837477  0.48965073  0.53159815  1
  O  O458  1  0.83787902  0.49123532  0.86527679  1
  O  O459  1  0.83382133  0.99857861  0.19822190  1
  O  O460  1  0.83575892  0.99000645  0.52799875  1
  O  O461  1  0.83256966  0.98914076  0.85908809  1
