# generated using pymatgen
data_Na31Fe20(SO4)36
_symmetry_space_group_name_H-M   'P 1'
_cell_length_a   18.08320365
_cell_length_b   18.08395074
_cell_length_c   19.71637966
_cell_angle_alpha   107.60777329
_cell_angle_beta   107.58466560
_cell_angle_gamma   90.72568386
_symmetry_Int_Tables_number   1
_chemical_formula_structural   Na31Fe20(SO4)36
_chemical_formula_sum   'Na62 Fe40 S72 O288'
_cell_volume   5819.78390515
_cell_formula_units_Z   2
loop_
 _symmetry_equiv_pos_site_id
 _symmetry_equiv_pos_as_xyz
  1  'x, y, z'
loop_
 _atom_site_type_symbol
 _atom_site_label
 _atom_site_symmetry_multiplicity
 _atom_site_fract_x
 _atom_site_fract_y
 _atom_site_fract_z
 _atom_site_occupancy
  Na  Na0  1  0.14232577  0.35360582  0.08618121  1
  Na  Na1  1  0.14130373  0.37049355  0.42518709  1
  Na  Na2  1  0.12252023  0.33368284  0.72258824  1
  Na  Na3  1  0.13841451  0.87004759  0.08291295  1
  Na  Na4  1  0.13010350  0.87754420  0.42109281  1
  Na  Na5  1  0.13274291  0.86190622  0.74246430  1
  Na  Na6  1  0.63878221  0.36214445  0.08945493  1
  Na  Na7  1  0.63792919  0.37118134  0.41847171  1
  Na  Na8  1  0.62752290  0.35673994  0.74218610  1
  Na  Na9  1  0.63437515  0.86879116  0.08677833  1
  Na  Na10  1  0.63136186  0.87245949  0.42199341  1
  Na  Na11  1  0.62611917  0.86373051  0.74223097  1
  Na  Na12  1  0.34122781  0.13615628  0.22545848  1
  Na  Na13  1  0.37693653  0.13226132  0.58701373  1
  Na  Na14  1  0.35992774  0.13977929  0.91561295  1
  Na  Na15  1  0.37094164  0.63020778  0.25023815  1
  Na  Na16  1  0.35993233  0.64132078  0.58458416  1
  Na  Na17  1  0.36289801  0.61079469  0.90669094  1
  Na  Na18  1  0.86532055  0.14197196  0.25181314  1
  Na  Na19  1  0.87160080  0.17046207  0.61705156  1
  Na  Na20  1  0.86280519  0.13165980  0.91521395  1
  Na  Na21  1  0.86528529  0.63455860  0.25244118  1
  Na  Na22  1  0.85734719  0.62749650  0.57484991  1
  Na  Na23  1  0.87150987  0.63068383  0.91776554  1
  Na  Na24  1  0.99602576  0.00954060  0.08362354  1
  Na  Na25  1  1.02690857  0.48577235  0.04422033  1
  Na  Na26  1  0.46198052  0.50700200  0.07809790  1
  Na  Na27  1  0.50417526  0.53831721  0.43166154  1
  Na  Na28  1  0.99558347  0.01638881  0.73821223  1
  Na  Na29  1  0.48410411  0.01334491  0.08831783  1
  Na  Na30  1  1.02242273  0.44818660  0.81072129  1
  Na  Na31  1  0.49222482  0.02636722  0.73175410  1
  Na  Na32  1  0.97656145  0.50213663  0.42212540  1
  Na  Na33  1  0.49759769  1.00180900  0.90973301  1
  Na  Na34  1  0.48380769  1.00679971  0.27884347  1
  Na  Na35  1  0.47965703  0.40979164  0.85962149  1
  Na  Na36  1  0.46727769  0.51543419  0.62058063  1
  Na  Na37  1  0.04314398  0.99401903  0.92561177  1
  Na  Na38  1  0.00802614  0.47911440  0.59950616  1
  Na  Na39  1  0.01131751  0.48950691  0.24767807  1
  Na  Na40  1  -0.01548141  1.05440655  0.53956250  1
  Na  Na41  1  0.00469119  0.99758722  0.26440158  1
  Na  Na42  1  0.24675222  0.74592459  0.33605184  1
  Na  Na43  1  0.73155464  0.73605625  0.67035802  1
  Na  Na44  1  0.27867473  0.27219892  0.66337632  1
  Na  Na45  1  0.74803025  0.24669243  0.00423181  1
  Na  Na46  1  0.24748249  0.24590813  0.00866110  1
  Na  Na47  1  0.73602163  0.73411477  0.34451005  1
  Na  Na48  1  0.74236026  0.74432187  0.00641523  1
  Na  Na49  1  0.75802715  0.25892293  0.32443871  1
  Na  Na50  1  0.25747843  0.25842560  0.32175168  1
  Na  Na51  1  0.25702240  0.75602403  -0.00538963  1
  Na  Na52  1  0.72027745  0.72064904  0.50257086  1
  Na  Na53  1  0.74254437  0.74479811  0.83750139  1
  Na  Na54  1  0.76955868  0.26071373  0.81434099  1
  Na  Na55  1  0.75018628  0.24853993  0.50731313  1
  Na  Na56  1  0.74293152  0.74186082  0.17435398  1
  Na  Na57  1  0.26229086  0.27095242  0.83176620  1
  Na  Na58  1  0.25760912  0.75599706  0.82147608  1
  Na  Na59  1  0.24267798  0.74596617  0.50897079  1
  Na  Na60  1  0.26282886  0.26637655  0.49811572  1
  Na  Na61  1  0.25322695  0.75033050  0.16505767  1
  Fe  Fe62  1  0.46712050  0.31294324  0.12532925  1
  Fe  Fe63  1  0.96995451  0.30177602  0.45796021  1
  Fe  Fe64  1  0.46726511  0.81037424  0.12391711  1
  Fe  Fe65  1  0.46601393  0.80782004  0.45990330  1
  Fe  Fe66  1  0.96584629  0.80427108  0.78346895  1
  Fe  Fe67  1  0.46722257  0.31267799  0.45614689  1
  Fe  Fe68  1  0.96218264  0.30773555  0.12013316  1
  Fe  Fe69  1  0.96621036  0.80533829  0.11669281  1
  Fe  Fe70  1  0.46104064  0.80734719  0.78499937  1
  Fe  Fe71  1  0.96292757  0.81023128  0.45082804  1
  Fe  Fe72  1  0.68963035  0.53152237  0.04195280  1
  Fe  Fe73  1  0.20293175  0.52681352  0.03582217  1
  Fe  Fe74  1  0.69090972  0.03586002  0.04840394  1
  Fe  Fe75  1  0.19497138  0.04094182  0.38543872  1
  Fe  Fe76  1  0.19669836  0.53526111  0.38370977  1
  Fe  Fe77  1  0.68698142  0.53320469  0.71243748  1
  Fe  Fe78  1  0.69356846  0.03054203  0.71059762  1
  Fe  Fe79  1  0.19933582  0.53040494  0.70622436  1
  Fe  Fe80  1  0.18750305  0.03710714  0.70958119  1
  Fe  Fe81  1  0.69487663  0.03692764  0.38302704  1
  Fe  Fe82  1  0.53801627  0.19545486  0.21635966  1
  Fe  Fe83  1  0.03501874  0.68992469  0.20988140  1
  Fe  Fe84  1  0.03613864  0.68469750  0.87358627  1
  Fe  Fe85  1  0.03081108  0.19662994  0.88271485  1
  Fe  Fe86  1  0.53083724  0.68926128  0.87810601  1
  Fe  Fe87  1  0.53827282  0.19056538  0.54736747  1
  Fe  Fe88  1  0.53344606  0.19469032  0.87813915  1
  Fe  Fe89  1  0.53566842  0.69340046  0.21551647  1
  Fe  Fe90  1  0.03698197  0.19350230  0.21517149  1
  Fe  Fe91  1  0.03432536  0.69381711  0.54658918  1
  Fe  Fe92  1  0.31196869  0.46456088  0.28743394  1
  Fe  Fe93  1  0.80505507  0.96351560  0.95026433  1
  Fe  Fe94  1  0.80834326  0.46373251  0.95185308  1
  Fe  Fe95  1  0.81064457  0.96740403  0.28860307  1
  Fe  Fe96  1  0.80874131  0.46616038  0.62435188  1
  Fe  Fe97  1  0.29901486  0.97185012  0.95476346  1
  Fe  Fe98  1  0.79759339  0.46793094  0.28704567  1
  Fe  Fe99  1  0.80579470  0.96398947  0.61517057  1
  Fe  Fe100  1  0.30362822  0.96553392  0.61870887  1
  Fe  Fe101  1  0.30370358  0.96845035  0.28823822  1
  S  S102  1  0.36448437  0.14190716  0.08303738  1
  S  S103  1  0.36211088  0.14153911  0.41385358  1
  S  S104  1  0.35836897  0.13724301  0.75352408  1
  S  S105  1  0.36109097  0.64531066  0.08210043  1
  S  S106  1  0.35746803  0.64325946  0.41862514  1
  S  S107  1  0.35957876  0.64341702  0.75061430  1
  S  S108  1  0.85969674  0.13677668  0.08414772  1
  S  S109  1  0.85684464  0.14136581  0.41540100  1
  S  S110  1  0.86178080  0.13193271  0.75451247  1
  S  S111  1  0.85992388  0.64078617  0.08179500  1
  S  S112  1  0.86021826  0.64242735  0.41505367  1
  S  S113  1  0.85793669  0.64420230  0.75030045  1
  S  S114  1  0.13960794  0.36348451  0.25099856  1
  S  S115  1  0.14279115  0.36303507  0.58076917  1
  S  S116  1  0.14313800  0.35348470  0.92293064  1
  S  S117  1  0.13872297  0.85956161  0.24956779  1
  S  S118  1  0.13557979  0.86106740  0.58085489  1
  S  S119  1  0.13857735  0.85494476  0.91425396  1
  S  S120  1  0.64135102  0.35916114  0.25222142  1
  S  S121  1  0.64233178  0.35769148  0.58298608  1
  S  S122  1  0.64915115  0.35415085  0.91750682  1
  S  S123  1  0.64308469  0.86055724  0.25229905  1
  S  S124  1  0.64196314  0.85939382  0.57979793  1
  S  S125  1  0.63810256  0.86002681  0.91774184  1
  S  S126  1  0.06149958  0.16903978  0.04529938  1
  S  S127  1  0.06928718  0.17425136  0.37636831  1
  S  S128  1  0.06550218  0.16023643  0.71056444  1
  S  S129  1  0.07343928  0.67175728  0.04184580  1
  S  S130  1  0.06825923  0.66925043  0.37307747  1
  S  S131  1  0.06870968  0.66802627  0.70612321  1
  S  S132  1  0.56841509  0.16413847  0.03924819  1
  S  S133  1  0.56922398  0.17178906  0.37574225  1
  S  S134  1  0.57195028  0.16319150  0.70964665  1
  S  S135  1  0.56881428  0.67520476  0.04493595  1
  S  S136  1  0.56215977  0.67532371  0.37706059  1
  S  S137  1  0.56260720  0.67328460  0.71252282  1
  S  S138  1  0.33199029  0.43564594  0.12640265  1
  S  S139  1  0.33435103  0.43856797  0.45580271  1
  S  S140  1  0.31857500  0.42568575  0.77877728  1
  S  S141  1  0.33553746  0.93432585  0.12749445  1
  S  S142  1  0.32458985  0.92850401  0.45449769  1
  S  S143  1  0.32385685  0.93183772  0.79221481  1
  S  S144  1  0.83016917  0.43535659  0.12529392  1
  S  S145  1  0.83667142  0.43168649  0.45928469  1
  S  S146  1  0.82269645  0.43594750  0.79248024  1
  S  S147  1  0.83363187  0.93244750  0.12471602  1
  S  S148  1  0.83055946  0.93268133  0.45410297  1
  S  S149  1  0.83034169  0.92631583  0.79094131  1
  S  S150  1  0.43298780  0.32886299  0.29246367  1
  S  S151  1  0.43827602  0.32470417  0.61629410  1
  S  S152  1  0.44189436  0.32725964  0.96139366  1
  S  S153  1  0.43043999  0.82918290  0.29266007  1
  S  S154  1  0.42967175  0.83566286  0.62638917  1
  S  S155  1  0.43263915  0.83764018  0.96063980  1
  S  S156  1  0.93296041  0.33249049  0.29197675  1
  S  S157  1  0.93452784  0.34329649  0.63020888  1
  S  S158  1  0.93057359  0.32570339  0.96013891  1
  S  S159  1  0.93327723  0.82899585  0.28639093  1
  S  S160  1  0.92711520  0.82559387  0.61999569  1
  S  S161  1  0.93285313  0.83079968  0.95649707  1
  S  S162  1  0.16293411  0.06234641  0.21010615  1
  S  S163  1  0.17853785  0.07498715  0.54690794  1
  S  S164  1  0.16612589  0.06777160  0.87569282  1
  S  S165  1  0.16789533  0.56585923  0.20447716  1
  S  S166  1  0.16544440  0.57220032  0.53957143  1
  S  S167  1  0.17365650  0.56925043  0.87169380  1
  S  S168  1  0.67084286  0.06546714  0.21042385  1
  S  S169  1  0.67923057  0.07286178  0.54345402  1
  S  S170  1  0.66751395  0.06227419  0.87484140  1
  S  S171  1  0.66952624  0.56798614  0.20443232  1
  S  S172  1  0.66782211  0.56018826  0.54907683  1
  S  S173  1  0.67245898  0.56983063  0.87952311  1
  O  O174  1  0.37786741  0.22003804  0.07386513  1
  O  O175  1  0.37108588  0.22072158  0.40605110  1
  O  O176  1  0.36329188  0.21513473  0.74741471  1
  O  O177  1  0.37006286  0.72776707  0.08002207  1
  O  O178  1  0.36599719  0.72465872  0.41432358  1
  O  O179  1  0.36443466  0.72684141  0.75192902  1
  O  O180  1  0.86696135  0.21579181  0.07670582  1
  O  O181  1  0.87071620  0.21930165  0.40581650  1
  O  O182  1  0.86556892  0.20799041  0.74428467  1
  O  O183  1  0.87068973  0.71889256  0.07122349  1
  O  O184  1  0.87462997  0.71873580  0.40184539  1
  O  O185  1  0.86801396  0.72304391  0.74134137  1
  O  O186  1  0.28978801  0.13388770  0.09444973  1
  O  O187  1  0.28315798  0.13431075  0.42289031  1
  O  O188  1  0.28217546  0.12188372  0.76563607  1
  O  O189  1  0.27989232  0.63423495  0.08502442  1
  O  O190  1  0.27500846  0.63452829  0.42155193  1
  O  O191  1  0.27857825  0.62862074  0.75549020  1
  O  O192  1  0.78241927  0.12440887  0.09328448  1
  O  O193  1  0.77278716  0.13545380  0.41269517  1
  O  O194  1  0.78562075  0.11730330  0.76724297  1
  O  O195  1  0.77882891  0.63374717  0.08558076  1
  O  O196  1  0.78361521  0.63951210  0.42489116  1
  O  O197  1  0.77857952  0.63740475  0.75812446  1
  O  O198  1  0.12967449  0.28495014  0.25921018  1
  O  O199  1  0.13668510  0.29197073  0.60035593  1
  O  O200  1  0.12209527  0.27962724  0.93956929  1
  O  O201  1  0.13011711  0.77993037  0.25677678  1
  O  O202  1  0.12587114  0.78215151  0.58793513  1
  O  O203  1  0.12925564  0.77353244  0.91747410  1
  O  O204  1  0.63307143  0.27598622  0.25432925  1
  O  O205  1  0.63559449  0.27846126  0.58990098  1
  O  O206  1  0.63669360  0.27424792  0.92283466  1
  O  O207  1  0.63506208  0.78055597  0.25852221  1
  O  O208  1  0.63898656  0.78106948  0.58628708  1
  O  O209  1  0.62972901  0.78077279  0.92513073  1
  O  O210  1  0.21734881  0.37242532  0.24216350  1
  O  O211  1  0.21674447  0.37504452  0.56761972  1
  O  O212  1  0.22544375  0.35440148  0.92865250  1
  O  O213  1  0.21825303  0.86892965  0.24255813  1
  O  O214  1  0.21322311  0.86992015  0.57026393  1
  O  O215  1  0.21965807  0.86637089  0.91141334  1
  O  O216  1  0.71993119  0.36843590  0.24238255  1
  O  O217  1  0.72105264  0.36978221  0.57528077  1
  O  O218  1  0.73172285  0.36245404  0.91677418  1
  O  O219  1  0.72170101  0.87056035  0.24341425  1
  O  O220  1  0.71701910  0.87460361  0.56488327  1
  O  O221  1  0.71673809  0.86803161  0.90798658  1
  O  O222  1  0.42850646  0.13119293  0.14852446  1
  O  O223  1  0.42094482  0.13049815  0.47966893  1
  O  O224  1  0.42076992  0.12678025  0.81949036  1
  O  O225  1  0.41710343  0.63819407  0.15277827  1
  O  O226  1  0.41356661  0.63157106  0.48394097  1
  O  O227  1  0.41573525  0.63650495  0.82131416  1
  O  O228  1  0.92132965  0.12797481  0.15051839  1
  O  O229  1  0.90720462  0.13455422  0.48571246  1
  O  O230  1  0.92372056  0.12506274  0.82260053  1
  O  O231  1  0.91579476  0.63721851  0.15324348  1
  O  O232  1  0.92134369  0.63369044  0.48232093  1
  O  O233  1  0.91616976  0.63941190  0.82042571  1
  O  O234  1  0.37109941  0.08154779  0.01357931  1
  O  O235  1  0.36648793  0.08252846  0.34341611  1
  O  O236  1  0.36716752  0.07773842  0.68477414  1
  O  O237  1  0.37477717  0.58965830  0.01749639  1
  O  O238  1  0.36377632  0.58718295  0.34781319  1
  O  O239  1  0.37166906  0.59106598  0.68384405  1
  O  O240  1  0.86743807  0.07809794  0.01494329  1
  O  O241  1  0.86760737  0.08130418  0.34810126  1
  O  O242  1  0.87183581  0.07029090  0.68793475  1
  O  O243  1  0.87186554  0.58028953  0.01730092  1
  O  O244  1  0.86685954  0.57986266  0.34775982  1
  O  O245  1  0.86682886  0.58518646  0.68372908  1
  O  O246  1  0.07876958  0.37321587  0.18437233  1
  O  O247  1  0.07841798  0.36627393  0.51237575  1
  O  O248  1  0.09213752  0.35522301  0.85027816  1
  O  O249  1  0.08048819  0.86626845  0.18026607  1
  O  O250  1  0.07547865  0.86940783  0.51321123  1
  O  O251  1  0.08227742  0.86272253  0.84344635  1
  O  O252  1  0.58233253  0.36564547  0.18299948  1
  O  O253  1  0.58417223  0.36508556  0.51402086  1
  O  O254  1  0.59523551  0.36488595  0.85019432  1
  O  O255  1  0.58345270  0.86761902  0.18407707  1
  O  O256  1  0.57815309  0.86885630  0.51545290  1
  O  O257  1  0.57798141  0.87101281  0.85203187  1
  O  O258  1  0.13118883  0.42308182  0.31938661  1
  O  O259  1  0.13014842  0.43073328  0.64454461  1
  O  O260  1  0.13005259  0.41973468  0.98598762  1
  O  O261  1  0.12832961  0.91846901  0.31621316  1
  O  O262  1  0.12962361  0.91973987  0.64952713  1
  O  O263  1  0.12545572  0.91111723  0.97940086  1
  O  O264  1  0.63477207  0.41357474  0.32021208  1
  O  O265  1  0.63213785  0.41578473  0.65045381  1
  O  O266  1  0.64052888  0.41191639  0.98667888  1
  O  O267  1  0.63443581  0.91847047  0.32023566  1
  O  O268  1  0.63826856  0.91745716  0.65077094  1
  O  O269  1  0.63351739  0.91837579  0.98779651  1
  O  O270  1  0.02734556  0.20784302  0.10799519  1
  O  O271  1  0.03301573  0.20185375  0.43530066  1
  O  O272  1  0.03884189  0.17708264  0.77769000  1
  O  O273  1  0.03288489  0.69781591  0.10079681  1
  O  O274  1  0.03264354  0.69980759  0.43392626  1
  O  O275  1  0.02880007  0.69356949  0.76527106  1
  O  O276  1  0.53719809  0.19674933  0.10253833  1
  O  O277  1  0.53259864  0.20039222  0.43580398  1
  O  O278  1  0.53217157  0.17986609  0.76738782  1
  O  O279  1  0.53256809  0.70438748  0.10658896  1
  O  O280  1  0.52017972  0.71052681  0.43187180  1
  O  O281  1  0.53120073  0.70727971  0.77831331  1
  O  O282  1  0.30727734  0.47816139  0.07116817  1
  O  O283  1  0.29979210  0.47135711  0.39067282  1
  O  O284  1  0.28670771  0.47049246  0.72382984  1
  O  O285  1  0.31553316  0.96632706  0.06495216  1
  O  O286  1  0.29802874  0.96997694  0.39649484  1
  O  O287  1  0.29381404  0.96346939  0.72838307  1
  O  O288  1  0.80405966  0.47488487  0.06627155  1
  O  O289  1  0.81633713  0.46723485  0.39864693  1
  O  O290  1  0.79196278  0.47574044  0.73323541  1
  O  O291  1  0.80219245  0.96509002  0.06159869  1
  O  O292  1  0.79898575  0.97215563  0.39513236  1
  O  O293  1  0.79964682  0.95727625  0.72678729  1
  O  O294  1  0.46938295  0.29859763  0.23090101  1
  O  O295  1  0.47571655  0.28770242  0.55367657  1
  O  O296  1  0.47933478  0.29564587  0.90179771  1
  O  O297  1  0.47124456  0.80209656  0.23433967  1
  O  O298  1  0.46782598  0.81700623  0.56792353  1
  O  O299  1  0.47011781  0.80594691  0.90125622  1
  O  O300  1  0.96831725  0.30036645  0.22975570  1
  O  O301  1  0.96672073  0.32008424  0.56703380  1
  O  O302  1  0.96417938  0.29307827  0.89939590  1
  O  O303  1  0.97072920  0.79810421  0.22583256  1
  O  O304  1  0.96427409  0.79811163  0.55914096  1
  O  O305  1  0.96886937  0.80281304  0.89570826  1
  O  O306  1  0.19696965  0.03029061  0.27520801  1
  O  O307  1  0.20649215  0.03190919  0.60462360  1
  O  O308  1  0.19427274  0.02695415  0.93207256  1
  O  O309  1  0.19648054  0.53226007  0.26710713  1
  O  O310  1  0.19174874  0.54498182  0.60548561  1
  O  O311  1  0.19614191  0.52813317  0.92760195  1
  O  O312  1  0.69873039  0.02610011  0.26928468  1
  O  O313  1  0.70939888  0.03743030  0.60557362  1
  O  O314  1  0.69739764  0.02588426  0.93657937  1
  O  O315  1  0.69767938  0.53300233  0.26442372  1
  O  O316  1  0.70824600  0.52801068  0.61373348  1
  O  O317  1  0.70292868  0.52930751  0.93802669  1
  O  O318  1  0.06419529  0.08637741  0.04081151  1
  O  O319  1  0.08905734  0.09242517  0.36977517  1
  O  O320  1  0.07763431  0.07368811  0.68835102  1
  O  O321  1  0.09826917  0.59341721  0.03955249  1
  O  O322  1  0.08593164  0.58722352  0.36771206  1
  O  O323  1  0.09402785  0.58877155  0.70211385  1
  O  O324  1  0.58124610  0.07963654  0.03439114  1
  O  O325  1  0.59032747  0.09091598  0.37208864  1
  O  O326  1  0.59091360  0.07995961  0.69717879  1
  O  O327  1  0.58928716  0.59536738  0.03999717  1
  O  O328  1  0.58246513  0.59965099  0.38307211  1
  O  O329  1  0.58777252  0.59535321  0.71532600  1
  O  O330  1  0.41326949  0.41700589  0.13047070  1
  O  O331  1  0.41431308  0.41862977  0.45525044  1
  O  O332  1  0.37878155  0.38218358  0.75387793  1
  O  O333  1  0.42071889  0.92005527  0.14551985  1
  O  O334  1  0.40057941  0.90044126  0.45294245  1
  O  O335  1  0.40639552  0.91407742  0.79916776  1
  O  O336  1  0.91273676  0.41745503  0.13280534  1
  O  O337  1  0.92080086  0.41468558  0.47208342  1
  O  O338  1  0.89892560  0.41230387  0.79299377  1
  O  O339  1  0.91660012  0.91671994  0.13066835  1
  O  O340  1  0.91155867  0.91585304  0.45532534  1
  O  O341  1  0.91350075  0.91152047  0.79917711  1
  O  O342  1  0.41687308  0.41075439  0.29932814  1
  O  O343  1  0.41285466  0.39765828  0.60533249  1
  O  O344  1  0.43152279  0.40898514  0.96673613  1
  O  O345  1  0.40765378  0.90860114  0.29387485  1
  O  O346  1  0.40884421  0.91805493  0.64042729  1
  O  O347  1  0.41652688  0.91987563  0.96396072  1
  O  O348  1  0.91626341  0.41450325  0.29473979  1
  O  O349  1  0.91647773  0.42773991  0.64161590  1
  O  O350  1  0.91076149  0.40632499  0.96155161  1
  O  O351  1  0.91552744  0.91001488  0.28867640  1
  O  O352  1  0.91026017  0.90772851  0.62807519  1
  O  O353  1  0.91501783  0.91329338  0.96443682  1
  O  O354  1  0.08072373  0.07997970  0.20858991  1
  O  O355  1  0.10244029  0.09865449  0.54606068  1
  O  O356  1  0.08433165  0.08640886  0.87463407  1
  O  O357  1  0.08394450  0.58096767  0.19646984  1
  O  O358  1  0.08062932  0.58603964  0.52565861  1
  O  O359  1  0.08934678  0.58377228  0.85959419  1
  O  O360  1  0.58903385  0.08361479  0.20425083  1
  O  O361  1  0.60075637  0.09526967  0.54154707  1
  O  O362  1  0.58481115  0.07777049  0.86863584  1
  O  O363  1  0.58789981  0.58783454  0.19552617  1
  O  O364  1  0.59092141  0.57871792  0.55529323  1
  O  O365  1  0.59550185  0.59387356  0.88267862  1
  O  O366  1  0.13690541  0.21214304  0.06086995  1
  O  O367  1  0.14008934  0.22592552  0.38934631  1
  O  O368  1  0.13990635  0.20773705  0.72869289  1
  O  O369  1  0.14089742  0.72968116  0.06001775  1
  O  O370  1  0.13883716  0.72149574  0.38804160  1
  O  O371  1  0.13529884  0.72539998  0.72326074  1
  O  O372  1  0.64081818  0.20972067  0.04938152  1
  O  O373  1  0.63835133  0.22543095  0.38976350  1
  O  O374  1  0.64250662  0.21739239  0.73165837  1
  O  O375  1  0.63965313  0.72990672  0.06274769  1
  O  O376  1  0.63249569  0.73019075  0.39241837  1
  O  O377  1  0.63189808  0.72778118  0.72601422  1
  O  O378  1  0.27909521  0.36478363  0.10785407  1
  O  O379  1  0.28207706  0.36683656  0.43913007  1
  O  O380  1  0.25444859  0.36853403  0.77255566  1
  O  O381  1  0.28392721  0.86206788  0.10987104  1
  O  O382  1  0.26505164  0.86244668  0.43706750  1
  O  O383  1  0.27243093  0.86283108  0.78092955  1
  O  O384  1  0.77815704  0.36385385  0.10570292  1
  O  O385  1  0.78448456  0.35970438  0.44042977  1
  O  O386  1  0.76520013  0.37030773  0.77904858  1
  O  O387  1  0.78381867  0.86070359  0.11152507  1
  O  O388  1  0.77881335  0.86140271  0.43645715  1
  O  O389  1  0.77992254  0.85533744  0.77897496  1
  O  O390  1  0.36154220  0.27740057  0.27547561  1
  O  O391  1  0.36996700  0.26712860  0.59967707  1
  O  O392  1  0.36794943  0.27765847  0.94273631  1
  O  O393  1  0.36042166  0.77383030  0.27356927  1
  O  O394  1  0.36015834  0.78057007  0.60659368  1
  O  O395  1  0.36076660  0.78719448  0.94494856  1
  O  O396  1  0.86237042  0.28144939  0.27735947  1
  O  O397  1  0.86183943  0.29318672  0.61245658  1
  O  O398  1  0.86126905  0.27414136  0.95029379  1
  O  O399  1  0.86191188  0.77741320  0.27000860  1
  O  O400  1  0.85645820  0.77301118  0.60316463  1
  O  O401  1  0.86169173  0.77902405  0.94119554  1
  O  O402  1  0.21145103  0.13491389  0.22471915  1
  O  O403  1  0.23799761  0.14038529  0.56365055  1
  O  O404  1  0.21785199  0.13944265  0.89355498  1
  O  O405  1  0.21741881  0.63898582  0.22042977  1
  O  O406  1  0.21432265  0.64298395  0.55051178  1
  O  O407  1  0.22524856  0.64269133  0.89436614  1
  O  O408  1  0.72402934  0.13523921  0.22758236  1
  O  O409  1  0.73453571  0.13884111  0.55409782  1
  O  O410  1  0.71888864  0.13386707  0.89292318  1
  O  O411  1  0.72270121  0.64007323  0.22111937  1
  O  O412  1  0.72051229  0.63200062  0.56386230  1
  O  O413  1  0.72887555  0.63924019  0.89737928  1
  O  O414  1  0.49757237  0.32485086  0.03494473  1
  O  O415  1  0.49314484  0.32820476  0.36344582  1
  O  O416  1  0.49721999  0.33353774  0.68810164  1
  O  O417  1  0.49067136  0.84225861  0.03522369  1
  O  O418  1  0.48760167  0.83336408  0.36622874  1
  O  O419  1  0.48883929  0.83453563  0.69855374  1
  O  O420  1  0.99207847  0.33664883  0.03522159  1
  O  O421  1  0.99305089  0.33690714  0.36463089  1
  O  O422  1  0.99431169  0.34314974  0.69960006  1
  O  O423  1  0.99261928  0.83255840  0.02904760  1
  O  O424  1  0.99163127  0.83116194  0.35896935  1
  O  O425  1  0.98770405  0.82657484  0.69186979  1
  O  O426  1  0.15801927  0.00152959  0.14018389  1
  O  O427  1  0.17381160  0.01452609  0.47253337  1
  O  O428  1  0.15864811  0.01184525  0.79945886  1
  O  O429  1  0.16730654  0.50672494  0.13265538  1
  O  O430  1  0.16797348  0.50840812  0.47104838  1
  O  O431  1  0.17732240  0.51591847  0.79827027  1
  O  O432  1  0.66837303  0.00623410  0.13710229  1
  O  O433  1  0.67210337  0.00930595  0.47115995  1
  O  O434  1  0.66671799  0.00337806  0.80281102  1
  O  O435  1  0.66857815  0.50937080  0.13116569  1
  O  O436  1  0.66302848  0.50165280  0.47797613  1
  O  O437  1  0.66550784  0.51242973  0.80561991  1
  O  O438  1  0.00914370  0.16941697  0.30189060  1
  O  O439  1  0.00342107  0.16955562  0.64692873  1
  O  O440  1  0.00442014  0.17265807  0.97280154  1
  O  O441  1  0.00864300  0.66509558  0.29965437  1
  O  O442  1  0.00783820  0.66140520  0.63295324  1
  O  O443  1  0.01415196  0.66700899  0.96857460  1
  O  O444  1  0.50866532  0.16346159  0.30161459  1
  O  O445  1  0.51455048  0.16541670  0.63784987  1
  O  O446  1  0.50727630  0.15899131  0.96647318  1
  O  O447  1  0.50767749  0.66751587  0.29942307  1
  O  O448  1  0.49961486  0.66416876  0.64327787  1
  O  O449  1  0.50934328  0.67552410  0.97394312  1
  O  O450  1  0.33462082  0.49166285  0.20167868  1
  O  O451  1  0.33909523  0.50012134  0.52513932  1
  O  O452  1  0.35131577  0.48145686  0.85482882  1
  O  O453  1  0.32984196  0.99424428  0.19710599  1
  O  O454  1  0.33349821  0.98700999  0.52894116  1
  O  O455  1  0.32758359  0.99475371  0.86384604  1
  O  O456  1  0.83119289  0.49295129  0.19836041  1
  O  O457  1  0.83381722  0.49028567  0.53022992  1
  O  O458  1  0.82891740  0.49722537  0.86675459  1
  O  O459  1  0.83586963  0.99313959  0.19650124  1
  O  O460  1  0.83661802  0.99085491  0.52813457  1
  O  O461  1  0.83022629  0.98829812  0.86166790  1
