# generated using pymatgen
data_Na31Fe20(SO4)36
_symmetry_space_group_name_H-M   'P 1'
_cell_length_a   18.07322093
_cell_length_b   18.07139948
_cell_length_c   19.71022361
_cell_angle_alpha   107.59446321
_cell_angle_beta   107.56911532
_cell_angle_gamma   90.73944438
_symmetry_Int_Tables_number   1
_chemical_formula_structural   Na31Fe20(SO4)36
_chemical_formula_sum   'Na62 Fe40 S72 O288'
_cell_volume   5811.58890901
_cell_formula_units_Z   2
loop_
 _symmetry_equiv_pos_site_id
 _symmetry_equiv_pos_as_xyz
  1  'x, y, z'
loop_
 _atom_site_type_symbol
 _atom_site_label
 _atom_site_symmetry_multiplicity
 _atom_site_fract_x
 _atom_site_fract_y
 _atom_site_fract_z
 _atom_site_occupancy
  Na  Na0  1  0.13211336  0.38021475  0.08404846  1
  Na  Na1  1  0.16509445  0.35690890  0.42310505  1
  Na  Na2  1  0.14163490  0.37321246  0.76347821  1
  Na  Na3  1  0.15399171  0.86729530  0.09619103  1
  Na  Na4  1  0.13434118  0.86298795  0.41120565  1
  Na  Na5  1  0.13652077  0.86544545  0.75076836  1
  Na  Na6  1  0.62602652  0.36317152  0.07566703  1
  Na  Na7  1  0.62826362  0.36780700  0.41603769  1
  Na  Na8  1  0.63678646  0.36559317  0.75334484  1
  Na  Na9  1  0.62297211  0.86868534  0.08449022  1
  Na  Na10  1  0.63133945  0.86289196  0.41876190  1
  Na  Na11  1  0.63085085  0.86087905  0.74203783  1
  Na  Na12  1  0.36447468  0.14305842  0.25956505  1
  Na  Na13  1  0.35851717  0.14009897  0.57344777  1
  Na  Na14  1  0.36812049  0.14256000  0.91854819  1
  Na  Na15  1  0.35165760  0.62814923  0.23202262  1
  Na  Na16  1  0.37018071  0.64711372  0.58087441  1
  Na  Na17  1  0.34372546  0.65518398  0.93874374  1
  Na  Na18  1  0.87347597  0.12767174  0.25316583  1
  Na  Na19  1  0.86550924  0.13028968  0.58004803  1
  Na  Na20  1  0.86456225  0.13311314  0.91861509  1
  Na  Na21  1  0.86548197  0.62857906  0.25140193  1
  Na  Na22  1  0.86170601  0.62398702  0.57536979  1
  Na  Na23  1  0.87974492  0.62852457  0.92330822  1
  Na  Na24  1  0.43038233  0.00358075  0.38581858  1
  Na  Na25  1  0.49462239  0.55365370  0.43942212  1
  Na  Na26  1  0.44104346  0.49425209  0.08010455  1
  Na  Na27  1  0.49148781  0.04735304  0.76074334  1
  Na  Na28  1  1.01068306  -0.02034740  0.11576230  1
  Na  Na29  1  1.00231292  0.50478725  0.74068791  1
  Na  Na30  1  0.48641788  0.51066602  0.75325653  1
  Na  Na31  1  0.99506142  0.00871441  0.74400886  1
  Na  Na32  1  0.99090221  0.49393409  0.43473153  1
  Na  Na33  1  0.50107657  1.00131907  0.92681850  1
  Na  Na34  1  0.45635145  0.51989973  0.93629066  1
  Na  Na35  1  0.50727302  0.98615363  0.57607497  1
  Na  Na36  1  0.52521296  0.47688669  0.26984794  1
  Na  Na37  1  0.01325903  0.99273555  0.92327644  1
  Na  Na38  1  0.51390681  0.45638239  0.56810518  1
  Na  Na39  1  0.01864691  0.99595971  0.56174768  1
  Na  Na40  1  0.01652318  0.49627364  0.23782804  1
  Na  Na41  1  0.50208907  0.96579720  0.22423798  1
  Na  Na42  1  0.25874772  0.76019851  0.65422840  1
  Na  Na43  1  0.74217145  0.73545521  0.34269958  1
  Na  Na44  1  0.73586430  0.23846137  0.00443454  1
  Na  Na45  1  0.75017645  0.24684426  0.33603702  1
  Na  Na46  1  0.74914076  0.24884601  0.66867563  1
  Na  Na47  1  0.26217421  0.26695163  0.65333247  1
  Na  Na48  1  0.74293995  0.74388602  0.00621808  1
  Na  Na49  1  0.73261417  0.73475417  0.67117832  1
  Na  Na50  1  0.25451408  0.76148727  0.32334789  1
  Na  Na51  1  0.26208130  0.27760810  -0.00521816  1
  Na  Na52  1  0.24940416  0.25255534  0.17709496  1
  Na  Na53  1  0.73684994  0.24111578  0.84087353  1
  Na  Na54  1  0.24346313  0.74765779  0.83802608  1
  Na  Na55  1  0.74276120  0.73939345  0.17279644  1
  Na  Na56  1  0.74609655  0.74130690  0.84047498  1
  Na  Na57  1  0.25964988  0.26604319  0.82423641  1
  Na  Na58  1  0.74783363  0.24635136  0.49927169  1
  Na  Na59  1  0.72638027  0.72456810  0.50655428  1
  Na  Na60  1  0.27395041  0.75895131  0.14044380  1
  Na  Na61  1  0.74110924  0.24083377  0.16925662  1
  Fe  Fe62  1  0.96504232  0.30621182  0.12087486  1
  Fe  Fe63  1  0.96364215  0.31029745  0.79101693  1
  Fe  Fe64  1  0.46630692  0.80796233  0.78174475  1
  Fe  Fe65  1  0.97006287  0.30194828  0.45359522  1
  Fe  Fe66  1  0.96514212  0.80512138  0.78328909  1
  Fe  Fe67  1  0.96641031  0.80539311  0.12183684  1
  Fe  Fe68  1  0.46430033  0.80353049  0.45185257  1
  Fe  Fe69  1  0.46799870  0.30413457  0.12074015  1
  Fe  Fe70  1  0.96581339  0.80399011  0.44957083  1
  Fe  Fe71  1  0.46925643  0.30713681  0.79247109  1
  Fe  Fe72  1  0.19585855  0.03790112  0.05366273  1
  Fe  Fe73  1  0.69136136  0.53182493  0.04476852  1
  Fe  Fe74  1  0.19867448  0.03798737  0.37548602  1
  Fe  Fe75  1  0.19329464  0.03713471  0.71550073  1
  Fe  Fe76  1  0.19151033  0.53426717  0.71248639  1
  Fe  Fe77  1  0.69404813  0.03015435  0.37943784  1
  Fe  Fe78  1  0.69109683  0.03609658  0.71390056  1
  Fe  Fe79  1  0.19247968  0.54198192  0.38457817  1
  Fe  Fe80  1  0.68994662  0.53407585  0.71255244  1
  Fe  Fe81  1  0.69362710  0.03288858  0.04744860  1
  Fe  Fe82  1  0.53227574  0.19014455  0.21289314  1
  Fe  Fe83  1  0.03561854  0.19533970  0.21948574  1
  Fe  Fe84  1  0.03504534  0.19270281  0.88327044  1
  Fe  Fe85  1  0.52964776  0.69718619  0.88262784  1
  Fe  Fe86  1  0.03707991  0.69347734  0.54816973  1
  Fe  Fe87  1  0.03899777  0.69418779  0.88726971  1
  Fe  Fe88  1  0.03992925  0.19017268  0.54501716  1
  Fe  Fe89  1  0.53187030  0.69326029  0.20706934  1
  Fe  Fe90  1  0.03768896  0.69006962  0.21316513  1
  Fe  Fe91  1  0.52432337  0.19710707  0.53669065  1
  Fe  Fe92  1  0.80457021  0.96448912  0.61623841  1
  Fe  Fe93  1  0.80943261  0.46096985  0.62077709  1
  Fe  Fe94  1  0.31411229  0.96351319  0.95787881  1
  Fe  Fe95  1  0.81052678  0.96295292  0.95320649  1
  Fe  Fe96  1  0.31016363  0.46847712  0.29137420  1
  Fe  Fe97  1  0.81120140  0.96092942  0.28670030  1
  Fe  Fe98  1  0.81307698  0.46442512  0.95601660  1
  Fe  Fe99  1  0.30886745  0.46524796  0.61229036  1
  Fe  Fe100  1  0.30705574  0.96885792  0.61968634  1
  Fe  Fe101  1  0.79772284  0.46750310  0.29104395  1
  S  S102  1  0.35767619  0.14343890  0.07977129  1
  S  S103  1  0.35307701  0.14878829  0.41735496  1
  S  S104  1  0.35400333  0.14444537  0.74843367  1
  S  S105  1  0.36477246  0.63577696  0.08248311  1
  S  S106  1  0.35396627  0.64868591  0.41565911  1
  S  S107  1  0.35866100  0.64144331  0.74767855  1
  S  S108  1  0.86055481  0.13914821  0.08354307  1
  S  S109  1  0.86272697  0.13575758  0.41719136  1
  S  S110  1  0.86048471  0.13855655  0.75162346  1
  S  S111  1  0.85890697  0.63844357  0.08450318  1
  S  S112  1  0.86157217  0.63845037  0.41971712  1
  S  S113  1  0.86144098  0.64106131  0.75093305  1
  S  S114  1  0.13736523  0.36443621  0.25298503  1
  S  S115  1  0.14087292  0.35986138  0.58038859  1
  S  S116  1  0.13733096  0.35485601  0.91414610  1
  S  S117  1  0.13855405  0.86453707  0.25040440  1
  S  S118  1  0.13885587  0.86375469  0.58478778  1
  S  S119  1  0.13692902  0.86454118  0.91503109  1
  S  S120  1  0.64255017  0.35279780  0.24884120  1
  S  S121  1  0.64592163  0.35396169  0.58707848  1
  S  S122  1  0.64580089  0.35967361  0.91456301  1
  S  S123  1  0.64636271  0.85621513  0.25212914  1
  S  S124  1  0.64040027  0.86121963  0.58240914  1
  S  S125  1  0.64214986  0.85868375  0.91599981  1
  S  S126  1  0.06631805  0.17122200  0.04496715  1
  S  S127  1  0.07258359  0.16986224  0.37593619  1
  S  S128  1  0.06429232  0.16524634  0.70590117  1
  S  S129  1  0.07006919  0.67536813  0.05010834  1
  S  S130  1  0.06510323  0.66941312  0.37454848  1
  S  S131  1  0.06550867  0.67274848  0.70803517  1
  S  S132  1  0.56517572  0.16508875  0.04135005  1
  S  S133  1  0.57065309  0.15937536  0.37046433  1
  S  S134  1  0.56485561  0.17027919  0.70425171  1
  S  S135  1  0.57048165  0.66763305  0.04128658  1
  S  S136  1  0.56419810  0.67030190  0.37231319  1
  S  S137  1  0.56367508  0.66834513  0.71052052  1
  S  S138  1  0.33578141  0.42271736  0.13362015  1
  S  S139  1  0.33840670  0.45053866  0.46086917  1
  S  S140  1  0.32908440  0.43952205  0.78688946  1
  S  S141  1  0.33441584  0.94399312  0.12128971  1
  S  S142  1  0.32801242  0.93552202  0.45736506  1
  S  S143  1  0.32963082  0.93594938  0.79070294  1
  S  S144  1  0.82637937  0.42845863  0.12608442  1
  S  S145  1  0.83453395  0.42578089  0.46042699  1
  S  S146  1  0.83131552  0.43376153  0.79042103  1
  S  S147  1  0.82618982  0.92922590  0.12170305  1
  S  S148  1  0.83134457  0.93010745  0.45722512  1
  S  S149  1  0.83236220  0.93202029  0.79001101  1
  S  S150  1  0.43824196  0.33123100  0.29389418  1
  S  S151  1  0.43746368  0.33386291  0.62920592  1
  S  S152  1  0.43592221  0.33018803  0.95449651  1
  S  S153  1  0.43973213  0.82759550  0.28723642  1
  S  S154  1  0.43322414  0.84543028  0.62961570  1
  S  S155  1  0.43547154  0.83285747  0.95097161  1
  S  S156  1  0.92804699  0.32800040  0.29108543  1
  S  S157  1  0.93352778  0.32292916  0.62400671  1
  S  S158  1  0.92739974  0.32355524  0.95634785  1
  S  S159  1  0.92941581  0.82273792  0.28835658  1
  S  S160  1  0.92980660  0.83004339  0.62193226  1
  S  S161  1  0.93611460  0.83347362  0.95937767  1
  S  S162  1  0.16861808  0.07305820  0.20986859  1
  S  S163  1  0.17418076  0.06936338  0.54162758  1
  S  S164  1  0.16748880  0.06792134  0.87569556  1
  S  S165  1  0.16949145  0.56839343  0.21398410  1
  S  S166  1  0.17067197  0.56912024  0.54494643  1
  S  S167  1  0.16373279  0.57233274  0.86804333  1
  S  S168  1  0.67463260  0.06505577  0.21090304  1
  S  S169  1  0.66965200  0.06818145  0.54271221  1
  S  S170  1  0.66955009  0.05857513  0.87610927  1
  S  S171  1  0.66923898  0.56635228  0.20667178  1
  S  S172  1  0.66950103  0.55500166  0.54667823  1
  S  S173  1  0.67030127  0.57078576  0.87649642  1
  O  O174  1  0.36945402  0.21983885  0.06677270  1
  O  O175  1  0.36191305  0.22862312  0.41998170  1
  O  O176  1  0.36477549  0.22611205  0.74642981  1
  O  O177  1  0.37282670  0.71386384  0.07567195  1
  O  O178  1  0.36266555  0.72662812  0.40412069  1
  O  O179  1  0.36847475  0.71937226  0.73702248  1
  O  O180  1  0.86798719  0.21726653  0.07315405  1
  O  O181  1  0.87104764  0.21497078  0.40886753  1
  O  O182  1  0.86913672  0.21763244  0.74410428  1
  O  O183  1  0.86605144  0.71722345  0.07521543  1
  O  O184  1  0.87340066  0.71600533  0.40835134  1
  O  O185  1  0.86916385  0.71890987  0.73906082  1
  O  O186  1  0.27772495  0.13816589  0.08670336  1
  O  O187  1  0.27577239  0.13015658  0.43035783  1
  O  O188  1  0.27212122  0.13505275  0.75179558  1
  O  O189  1  0.29532462  0.62245615  0.10241927  1
  O  O190  1  0.27496238  0.63971409  0.42280220  1
  O  O191  1  0.27819118  0.63281209  0.75182634  1
  O  O192  1  0.78020574  0.13029850  0.08959546  1
  O  O193  1  0.78437052  0.12740407  0.42765768  1
  O  O194  1  0.78186604  0.12965756  0.76109285  1
  O  O195  1  0.77936915  0.62877967  0.09221283  1
  O  O196  1  0.78800935  0.63382874  0.43524845  1
  O  O197  1  0.78043794  0.63245798  0.75507979  1
  O  O198  1  0.12579991  0.28432539  0.25659507  1
  O  O199  1  0.13167251  0.28053066  0.58871029  1
  O  O200  1  0.12677655  0.27248924  0.91998241  1
  O  O201  1  0.12219211  0.79051739  0.26589223  1
  O  O202  1  0.12762921  0.78589417  0.59461973  1
  O  O203  1  0.12899262  0.78574159  0.92155430  1
  O  O204  1  0.63578686  0.27035160  0.25105342  1
  O  O205  1  0.63122013  0.27463457  0.59274687  1
  O  O206  1  0.64430327  0.28073983  0.91970991  1
  O  O207  1  0.63560487  0.77353316  0.25421925  1
  O  O208  1  0.63454660  0.78434264  0.59158137  1
  O  O209  1  0.63230799  0.77981142  0.92413673  1
  O  O210  1  0.21587302  0.37418666  0.24538252  1
  O  O211  1  0.22007351  0.36955815  0.57329263  1
  O  O212  1  0.21177493  0.35983919  0.89916729  1
  O  O213  1  0.21162512  0.86340475  0.23339673  1
  O  O214  1  0.21864027  0.87243659  0.58061954  1
  O  O215  1  0.21341211  0.87526007  0.90280845  1
  O  O216  1  0.72329133  0.36424048  0.24409876  1
  O  O217  1  0.72971168  0.35941202  0.58859172  1
  O  O218  1  0.72246662  0.37737912  0.90290695  1
  O  O219  1  0.72710075  0.86351178  0.24632742  1
  O  O220  1  0.71748242  0.87277565  0.56976759  1
  O  O221  1  0.72315586  0.86642460  0.91122187  1
  O  O222  1  0.41482284  0.13951561  0.15008957  1
  O  O223  1  0.41494596  0.13135023  0.48196584  1
  O  O224  1  0.40955788  0.13002246  0.81307837  1
  O  O225  1  0.43365598  0.62627104  0.14987181  1
  O  O226  1  0.41396000  0.64442729  0.48324070  1
  O  O227  1  0.41559700  0.63548476  0.81810961  1
  O  O228  1  0.91809919  0.13342322  0.15299958  1
  O  O229  1  0.92290170  0.12833670  0.48440200  1
  O  O230  1  0.92008590  0.12837011  0.81827694  1
  O  O231  1  0.91759320  0.63044630  0.15185915  1
  O  O232  1  0.92677988  0.62763098  0.48325191  1
  O  O233  1  0.91771100  0.63876198  0.82245403  1
  O  O234  1  0.36556966  0.08184686  0.01328731  1
  O  O235  1  0.35679451  0.09144890  0.34770708  1
  O  O236  1  0.36100288  0.08921232  0.67733929  1
  O  O237  1  0.37379915  0.57567634  0.01599534  1
  O  O238  1  0.36345207  0.58807168  0.34790678  1
  O  O239  1  0.37104626  0.58074500  0.68289359  1
  O  O240  1  0.86989030  0.07915745  0.01680393  1
  O  O241  1  0.86741263  0.07705380  0.34797872  1
  O  O242  1  0.86759403  0.07952294  0.68283681  1
  O  O243  1  0.86468608  0.57941542  0.01546514  1
  O  O244  1  0.86335085  0.57773974  0.34919826  1
  O  O245  1  0.87444183  0.57977307  0.68685141  1
  O  O246  1  0.07693613  0.37482400  0.18545177  1
  O  O247  1  0.08258548  0.36571463  0.51085850  1
  O  O248  1  0.07418997  0.36002807  0.84526684  1
  O  O249  1  0.07365825  0.87704502  0.18761613  1
  O  O250  1  0.08038911  0.87105212  0.51552363  1
  O  O251  1  0.07482866  0.87387418  0.84778863  1
  O  O252  1  0.58637121  0.36080454  0.17886983  1
  O  O253  1  0.59403841  0.36480351  0.51902501  1
  O  O254  1  0.58395435  0.36783113  0.84837232  1
  O  O255  1  0.58931058  0.87053794  0.18866806  1
  O  O256  1  0.57862798  0.87162285  0.51689713  1
  O  O257  1  0.58632259  0.86663916  0.84665175  1
  O  O258  1  0.12838935  0.42203151  0.32152115  1
  O  O259  1  0.13107075  0.41784369  0.64785361  1
  O  O260  1  0.13206806  0.41097390  0.98174577  1
  O  O261  1  0.14158602  0.92862482  0.32186273  1
  O  O262  1  0.12749929  0.92427314  0.65113837  1
  O  O263  1  0.12767255  0.92353398  0.98287475  1
  O  O264  1  0.63128641  0.40803120  0.31504176  1
  O  O265  1  0.63564185  0.41347976  0.65485326  1
  O  O266  1  0.63870523  0.41668459  0.98430389  1
  O  O267  1  0.64246243  0.91063309  0.32451888  1
  O  O268  1  0.63488850  0.92256897  0.65139420  1
  O  O269  1  0.63198406  0.91823175  0.98269866  1
  O  O270  1  0.02812782  0.20001678  0.10483987  1
  O  O271  1  0.03354247  0.19617030  0.43638780  1
  O  O272  1  0.02498324  0.19073119  0.76437684  1
  O  O273  1  0.02825188  0.70967083  0.10944341  1
  O  O274  1  0.03321302  0.70296498  0.43913528  1
  O  O275  1  0.02966583  0.70295571  0.76989675  1
  O  O276  1  0.53320127  0.19663669  0.10587807  1
  O  O277  1  0.53886798  0.18210935  0.43310770  1
  O  O278  1  0.52725367  0.19769313  0.76275234  1
  O  O279  1  0.54305325  0.69516162  0.10698427  1
  O  O280  1  0.52653999  0.70568995  0.42991369  1
  O  O281  1  0.53170655  0.70171174  0.77569650  1
  O  O282  1  0.31218244  0.44316758  0.06514834  1
  O  O283  1  0.29373048  0.47989725  0.39657934  1
  O  O284  1  0.29842905  0.46872153  0.71971503  1
  O  O285  1  0.28892776  0.97337279  0.05415962  1
  O  O286  1  0.30005036  0.97606250  0.40005728  1
  O  O287  1  0.29974167  0.97476481  0.73101858  1
  O  O288  1  0.80032678  0.46593133  0.06542633  1
  O  O289  1  0.80984312  0.46081999  0.40003152  1
  O  O290  1  0.79939534  0.47294887  0.73180314  1
  O  O291  1  0.79769007  0.96820112  0.06205965  1
  O  O292  1  0.80292410  0.96747997  0.39697606  1
  O  O293  1  0.80138468  0.96755280  0.72875975  1
  O  O294  1  0.47414487  0.30034105  0.22968387  1
  O  O295  1  0.47637691  0.30654349  0.57163638  1
  O  O296  1  0.47487911  0.29940278  0.89710729  1
  O  O297  1  0.48101360  0.78972156  0.23186156  1
  O  O298  1  0.46435449  0.82597112  0.56646601  1
  O  O299  1  0.46894081  0.80034406  0.88555474  1
  O  O300  1  0.96335050  0.29927756  0.22874275  1
  O  O301  1  0.97040783  0.29521601  0.56322830  1
  O  O302  1  0.96421545  0.29210223  0.89558779  1
  O  O303  1  0.96426931  0.79047340  0.22676458  1
  O  O304  1  0.96576022  0.80075860  0.56069024  1
  O  O305  1  0.97007731  0.80135054  0.89723369  1
  O  O306  1  0.19427778  0.04162154  0.27354257  1
  O  O307  1  0.19847146  0.02668376  0.59866196  1
  O  O308  1  0.19627457  0.03422508  0.93759815  1
  O  O309  1  0.19947275  0.53382540  0.27792915  1
  O  O310  1  0.20057277  0.53060675  0.60433610  1
  O  O311  1  0.19452587  0.54441867  0.93021263  1
  O  O312  1  0.70456011  0.02644596  0.27085301  1
  O  O313  1  0.70263264  0.03431364  0.60610490  1
  O  O314  1  0.70851869  0.02447679  0.93786995  1
  O  O315  1  0.69334794  0.52795780  0.26485439  1
  O  O316  1  0.71024690  0.52211747  0.61119322  1
  O  O317  1  0.69936429  0.53627896  0.93825049  1
  O  O318  1  0.08774083  0.09052157  0.04168330  1
  O  O319  1  0.09886239  0.09167215  0.37472275  1
  O  O320  1  0.08150906  0.08175830  0.69918623  1
  O  O321  1  0.08473573  0.59757352  0.04954073  1
  O  O322  1  0.08125695  0.58744774  0.37228951  1
  O  O323  1  0.08319221  0.59162678  0.70202197  1
  O  O324  1  0.59261574  0.08696990  0.04297974  1
  O  O325  1  0.58794412  0.07553998  0.35584167  1
  O  O326  1  0.58115199  0.08613427  0.69822532  1
  O  O327  1  0.58594974  0.58401703  0.02808041  1
  O  O328  1  0.57381362  0.58886189  0.36969619  1
  O  O329  1  0.58215554  0.58656787  0.70914545  1
  O  O330  1  0.42259839  0.41046329  0.15064073  1
  O  O331  1  0.42004865  0.45150164  0.46197762  1
  O  O332  1  0.41123849  0.41981341  0.79319569  1
  O  O333  1  0.40928988  0.92584669  0.10998119  1
  O  O334  1  0.40863688  0.91524403  0.45740270  1
  O  O335  1  0.41191625  0.91996750  0.79672263  1
  O  O336  1  0.90859770  0.41047355  0.13454138  1
  O  O337  1  0.91656488  0.40559194  0.46840570  1
  O  O338  1  0.91112462  0.41499532  0.78968987  1
  O  O339  1  0.90472083  0.90561511  0.12079679  1
  O  O340  1  0.91287012  0.91131549  0.46333047  1
  O  O341  1  0.91526319  0.91654674  0.79525002  1
  O  O342  1  0.41998474  0.41363583  0.29807950  1
  O  O343  1  0.41983092  0.41677795  0.63273372  1
  O  O344  1  0.42246367  0.41186559  0.96152631  1
  O  O345  1  0.43070172  0.90727458  0.28370602  1
  O  O346  1  0.41942813  0.93106007  0.64791855  1
  O  O347  1  0.41760092  0.91410040  0.95092688  1
  O  O348  1  0.90904326  0.40942511  0.29832492  1
  O  O349  1  0.91350428  0.40417365  0.63069039  1
  O  O350  1  0.90835941  0.40290258  0.95837069  1
  O  O351  1  0.90819330  0.90144590  0.28871669  1
  O  O352  1  0.91263966  0.91267390  0.62811870  1
  O  O353  1  0.91936136  0.91580907  0.96200470  1
  O  O354  1  0.08606073  0.09241715  0.20054105  1
  O  O355  1  0.09094724  0.08349389  0.53353697  1
  O  O356  1  0.08325180  0.08263592  0.86836079  1
  O  O357  1  0.08804382  0.58882775  0.21412192  1
  O  O358  1  0.08906277  0.58732200  0.54080780  1
  O  O359  1  0.07918908  0.58972378  0.85712816  1
  O  O360  1  0.59536768  0.08613050  0.20806238  1
  O  O361  1  0.58854891  0.08381632  0.53840622  1
  O  O362  1  0.58836636  0.06638058  0.87399417  1
  O  O363  1  0.58953206  0.59206276  0.20194781  1
  O  O364  1  0.59069990  0.56712157  0.55188740  1
  O  O365  1  0.58901272  0.59060398  0.86990798  1
  O  O366  1  0.13438956  0.22605283  0.06001968  1
  O  O367  1  0.13664245  0.22670803  0.38824899  1
  O  O368  1  0.13498095  0.21748364  0.72304761  1
  O  O369  1  0.13882253  0.73127938  0.06779623  1
  O  O370  1  0.13381320  0.71960775  0.38406239  1
  O  O371  1  0.13657781  0.72547348  0.72405718  1
  O  O372  1  0.63365138  0.22035142  0.05400340  1
  O  O373  1  0.64250902  0.21171516  0.38684997  1
  O  O374  1  0.63988477  0.21895225  0.72340534  1
  O  O375  1  0.64169114  0.71877505  0.05412252  1
  O  O376  1  0.64012866  0.71801340  0.39088463  1
  O  O377  1  0.63802006  0.71862797  0.72843383  1
  O  O378  1  0.28810103  0.35141638  0.12621029  1
  O  O379  1  0.29972783  0.37543621  0.45176127  1
  O  O380  1  0.27739506  0.36750871  0.77147022  1
  O  O381  1  0.28451279  0.87479928  0.11338364  1
  O  O382  1  0.27425326  0.86654126  0.44150162  1
  O  O383  1  0.27789818  0.86321477  0.77068467  1
  O  O384  1  0.77331116  0.35696024  0.10722350  1
  O  O385  1  0.78120609  0.35523821  0.44564859  1
  O  O386  1  0.77944771  0.36192045  0.77370431  1
  O  O387  1  0.77081621  0.86084545  0.10618796  1
  O  O388  1  0.77875849  0.86003693  0.44191072  1
  O  O389  1  0.78236494  0.86001939  0.77549075  1
  O  O390  1  0.36558988  0.28017611  0.27381758  1
  O  O391  1  0.36622662  0.28304563  0.61357629  1
  O  O392  1  0.36186054  0.27934556  0.93491618  1
  O  O393  1  0.36451178  0.78032294  0.26851381  1
  O  O394  1  0.36184552  0.79505373  0.61469489  1
  O  O395  1  0.36238798  0.78346246  0.93344019  1
  O  O396  1  0.85840726  0.27333444  0.27493317  1
  O  O397  1  0.86298844  0.26872382  0.60634546  1
  O  O398  1  0.85671887  0.27001531  0.94032907  1
  O  O399  1  0.86070636  0.76902907  0.27658662  1
  O  O400  1  0.85904954  0.77864859  0.60742188  1
  O  O401  1  0.86468749  0.78341321  0.94630651  1
  O  O402  1  0.22058263  0.14039669  0.21877887  1
  O  O403  1  0.22487733  0.14242209  0.56577420  1
  O  O404  1  0.21713319  0.13909423  0.88830560  1
  O  O405  1  0.21974530  0.64101003  0.23117642  1
  O  O406  1  0.22250262  0.63997167  0.56146881  1
  O  O407  1  0.21010885  0.64238658  0.87094586  1
  O  O408  1  0.73036274  0.13458178  0.22805234  1
  O  O409  1  0.72181335  0.13954724  0.55795248  1
  O  O410  1  0.71638647  0.13351795  0.89174551  1
  O  O411  1  0.72591255  0.63541684  0.22410218  1
  O  O412  1  0.71783267  0.63042719  0.56435845  1
  O  O413  1  0.72433221  0.64097982  0.89190418  1
  O  O414  1  0.48946911  0.32798570  0.02932121  1
  O  O415  1  0.49718063  0.33163664  0.36297726  1
  O  O416  1  0.49446119  0.33917065  0.70482535  1
  O  O417  1  0.49553758  0.83389701  0.01914939  1
  O  O418  1  0.49162705  0.83255110  0.36456332  1
  O  O419  1  0.49489277  0.83884941  0.69833644  1
  O  O420  1  0.98642359  0.32641027  0.02912712  1
  O  O421  1  0.98939050  0.32936631  0.36204751  1
  O  O422  1  0.99237513  0.32509965  0.69633067  1
  O  O423  1  0.99579654  0.84016948  0.03297383  1
  O  O424  1  0.99081658  0.82927650  0.36138305  1
  O  O425  1  0.99065084  0.83431310  0.69465015  1
  O  O426  1  0.16300747  0.00745676  0.13887692  1
  O  O427  1  0.17792440  0.01499000  0.46875321  1
  O  O428  1  0.16379590  0.00733156  0.80256692  1
  O  O429  1  0.16551982  0.50894728  0.14461005  1
  O  O430  1  0.16598902  0.51012301  0.47135023  1
  O  O431  1  0.15657717  0.50817393  0.79332298  1
  O  O432  1  0.67219234  0.00606730  0.13819084  1
  O  O433  1  0.67068701  0.00785946  0.47197717  1
  O  O434  1  0.67115348  0.00298183  0.80258106  1
  O  O435  1  0.66348713  0.50826783  0.13201934  1
  O  O436  1  0.66843943  0.49913727  0.47565385  1
  O  O437  1  0.66857183  0.51028522  0.80459053  1
  O  O438  1  0.00859760  0.16118339  0.30359464  1
  O  O439  1  0.00708110  0.16066198  0.63112494  1
  O  O440  1  0.00591062  0.16271817  0.97064956  1
  O  O441  1  0.00151686  0.66307081  0.30306574  1
  O  O442  1  0.00557155  0.67268736  0.63652929  1
  O  O443  1  0.01129361  0.67689075  0.97680308  1
  O  O444  1  0.50993063  0.16293250  0.30076326  1
  O  O445  1  0.50960938  0.16890915  0.63032026  1
  O  O446  1  0.50309015  0.15299491  0.97043993  1
  O  O447  1  0.51192120  0.67109527  0.29655797  1
  O  O448  1  0.50519967  0.66795894  0.64156059  1
  O  O449  1  0.50718749  0.66869832  0.97179148  1
  O  O450  1  0.33225295  0.48845734  0.20073910  1
  O  O451  1  0.33506142  0.50899469  0.53325161  1
  O  O452  1  0.33010732  0.50251502  0.85424394  1
  O  O453  1  0.34283586  1.00833710  0.19040960  1
  O  O454  1  0.33820887  0.99320882  0.53379842  1
  O  O455  1  0.32929501  0.99302525  0.86325420  1
  O  O456  1  0.82610453  0.48701397  0.19799113  1
  O  O457  1  0.83650071  0.48559727  0.53304941  1
  O  O458  1  0.83555308  0.49099758  0.86428393  1
  O  O459  1  0.83384388  0.98837368  0.19538095  1
  O  O460  1  0.83443252  0.99111088  0.52971138  1
  O  O461  1  0.83537878  0.99149399  0.86288319  1
