# generated using pymatgen
data_Na31Fe20(SO4)36
_symmetry_space_group_name_H-M   'P 1'
_cell_length_a   18.06492671
_cell_length_b   18.06699604
_cell_length_c   19.69024221
_cell_angle_alpha   107.57427967
_cell_angle_beta   107.56923705
_cell_angle_gamma   90.71781089
_symmetry_Int_Tables_number   1
_chemical_formula_structural   Na31Fe20(SO4)36
_chemical_formula_sum   'Na62 Fe40 S72 O288'
_cell_volume   5802.62512026
_cell_formula_units_Z   2
loop_
 _symmetry_equiv_pos_site_id
 _symmetry_equiv_pos_as_xyz
  1  'x, y, z'
loop_
 _atom_site_type_symbol
 _atom_site_label
 _atom_site_symmetry_multiplicity
 _atom_site_fract_x
 _atom_site_fract_y
 _atom_site_fract_z
 _atom_site_occupancy
  Na  Na0  1  0.13508034  0.36168596  0.08703528  1
  Na  Na1  1  0.12273189  0.34907791  0.39576317  1
  Na  Na2  1  0.11763415  0.38676414  0.75201273  1
  Na  Na3  1  0.13548750  0.87299068  0.08726284  1
  Na  Na4  1  0.13251592  0.86321847  0.41264661  1
  Na  Na5  1  0.14078321  0.87685964  0.76641561  1
  Na  Na6  1  0.64212062  0.36341406  0.08761079  1
  Na  Na7  1  0.63864442  0.36107570  0.41127976  1
  Na  Na8  1  0.63559205  0.36161195  0.74814209  1
  Na  Na9  1  0.62990344  0.86902508  0.08402659  1
  Na  Na10  1  0.63590027  0.85377433  0.41280479  1
  Na  Na11  1  0.63740925  0.85580439  0.74255889  1
  Na  Na12  1  0.37585841  0.12623188  0.25000710  1
  Na  Na13  1  0.36520437  0.13517000  0.58438747  1
  Na  Na14  1  0.36992225  0.12260047  0.91729480  1
  Na  Na15  1  0.35720387  0.63521739  0.24435269  1
  Na  Na16  1  0.36338947  0.63631354  0.58566316  1
  Na  Na17  1  0.36182119  0.63511416  0.91488587  1
  Na  Na18  1  0.86104217  0.14194995  0.24966706  1
  Na  Na19  1  0.86965425  0.13641133  0.59206141  1
  Na  Na20  1  0.88524599  0.14531160  0.93841205  1
  Na  Na21  1  0.86597771  0.63373608  0.25195246  1
  Na  Na22  1  0.84733921  0.65037341  0.58503169  1
  Na  Na23  1  0.86756357  0.62702123  0.91224335  1
  Na  Na24  1  0.99137538  0.51094141  0.41935200  1
  Na  Na25  1  0.48734716  0.53825373  0.09512326  1
  Na  Na26  1  0.98722445  0.01086949  0.40547498  1
  Na  Na27  1  0.45691178  0.50755434  0.40810725  1
  Na  Na28  1  0.50826940  0.00070630  0.39696838  1
  Na  Na29  1  1.00790984  0.49083416  0.06701980  1
  Na  Na30  1  0.48319695  0.01025903  0.06653876  1
  Na  Na31  1  0.47770493  0.51494468  0.75155005  1
  Na  Na32  1  0.49997951  -0.00388553  0.77306094  1
  Na  Na33  1  0.51298504  0.48503560  0.58371084  1
  Na  Na34  1  0.51351296  0.98482220  0.58341454  1
  Na  Na35  1  0.02025798  0.48656208  0.61685474  1
  Na  Na36  1  0.48696481  0.50955321  0.25122149  1
  Na  Na37  1  0.51225541  0.48816967  0.92298818  1
  Na  Na38  1  0.02164105  1.00483743  0.89623726  1
  Na  Na39  1  0.00756140  0.43200519  0.22484443  1
  Na  Na40  1  -0.01356895  1.04772337  0.17279819  1
  Na  Na41  1  0.00695973  0.99015457  0.59499088  1
  Na  Na42  1  0.76160804  0.24418569  0.00844427  1
  Na  Na43  1  0.23833750  0.73911320  0.67707247  1
  Na  Na44  1  0.73365797  0.73541271  0.34591744  1
  Na  Na45  1  0.23837401  0.74371730  0.01739673  1
  Na  Na46  1  0.25555659  0.75635102  0.32055525  1
  Na  Na47  1  0.25683883  0.25842166  0.32543005  1
  Na  Na48  1  0.75115971  0.75221655  -0.00213169  1
  Na  Na49  1  0.24589466  0.25113900  0.66935686  1
  Na  Na50  1  0.25064266  0.25356231  0.00110368  1
  Na  Na51  1  0.76846746  0.26201074  0.66102543  1
  Na  Na52  1  0.76399336  0.25995120  0.48488613  1
  Na  Na53  1  0.25705943  0.25885255  0.16722883  1
  Na  Na54  1  0.73907364  0.23202111  0.17238358  1
  Na  Na55  1  0.75438037  0.75666821  0.82494184  1
  Na  Na56  1  0.24939292  0.74734495  0.49890847  1
  Na  Na57  1  0.73599591  0.74563665  0.17420602  1
  Na  Na58  1  0.24093122  0.74144049  0.84387036  1
  Na  Na59  1  0.24904309  0.24939900  0.83599858  1
  Na  Na60  1  0.24629229  0.25146642  0.49515547  1
  Na  Na61  1  0.76943640  0.25615834  0.83009413  1
  Fe  Fe62  1  0.46506561  0.31318420  0.12176617  1
  Fe  Fe63  1  0.96385420  0.81155843  0.12144537  1
  Fe  Fe64  1  0.95934823  0.80916832  0.78482524  1
  Fe  Fe65  1  0.46984753  0.30526723  0.78772112  1
  Fe  Fe66  1  0.46573735  0.80296346  0.12280996  1
  Fe  Fe67  1  0.46664524  0.81128356  0.79215743  1
  Fe  Fe68  1  0.46464428  0.30601560  0.44993255  1
  Fe  Fe69  1  0.46739915  0.80152030  0.44933389  1
  Fe  Fe70  1  0.96200741  0.30608987  0.44899375  1
  Fe  Fe71  1  0.96206762  0.80765067  0.45219007  1
  Fe  Fe72  1  0.69550084  0.03228372  0.71792873  1
  Fe  Fe73  1  0.19701074  0.52728582  0.37255079  1
  Fe  Fe74  1  0.69255254  0.53469775  0.71610256  1
  Fe  Fe75  1  0.69257685  0.53560095  0.05070268  1
  Fe  Fe76  1  0.19895700  0.03410342  0.71325458  1
  Fe  Fe77  1  0.69025334  0.03527813  0.37918467  1
  Fe  Fe78  1  0.18781814  0.03631943  0.37302009  1
  Fe  Fe79  1  0.20417730  0.03238226  0.04272682  1
  Fe  Fe80  1  0.69149772  0.53564141  0.38507095  1
  Fe  Fe81  1  0.18851048  0.53528195  0.04411084  1
  Fe  Fe82  1  0.03281382  0.68787565  0.87729814  1
  Fe  Fe83  1  0.03318762  0.69589070  0.54977991  1
  Fe  Fe84  1  0.53851000  0.68748971  0.54803212  1
  Fe  Fe85  1  0.53959082  0.19278701  0.88840031  1
  Fe  Fe86  1  0.54021270  0.19370820  0.21543539  1
  Fe  Fe87  1  0.03402282  0.19340037  0.54670398  1
  Fe  Fe88  1  0.03249124  0.69125853  0.21181112  1
  Fe  Fe89  1  0.03181242  0.20157798  0.87359969  1
  Fe  Fe90  1  0.53725159  0.69313266  0.88348669  1
  Fe  Fe91  1  0.53585360  0.19253676  0.55007983  1
  Fe  Fe92  1  0.31063691  0.96245540  0.61832952  1
  Fe  Fe93  1  0.79946532  0.96885144  0.28197645  1
  Fe  Fe94  1  0.81320717  0.46337059  0.95268444  1
  Fe  Fe95  1  0.81059392  0.95805620  0.62249361  1
  Fe  Fe96  1  0.29522944  0.47223510  0.62330001  1
  Fe  Fe97  1  0.80611703  0.46641119  0.28429661  1
  Fe  Fe98  1  0.30852024  0.95921791  0.28192001  1
  Fe  Fe99  1  0.30451092  0.46663009  0.95100962  1
  Fe  Fe100  1  0.80087604  0.97182079  0.96124852  1
  Fe  Fe101  1  0.81149351  0.46575697  0.62361045  1
  S  S102  1  0.36426477  0.14584781  0.08779436  1
  S  S103  1  0.36186691  0.13915276  0.41833766  1
  S  S104  1  0.36557563  0.13901210  0.74895133  1
  S  S105  1  0.35584481  0.63968103  0.08120541  1
  S  S106  1  0.35796789  0.64224342  0.41791067  1
  S  S107  1  0.36058321  0.64383236  0.75144697  1
  S  S108  1  0.85793904  0.14324889  0.08066775  1
  S  S109  1  0.85926815  0.13765071  0.41910100  1
  S  S110  1  0.86047323  0.13469704  0.74866285  1
  S  S111  1  0.85645326  0.64349638  0.08373782  1
  S  S112  1  0.85863739  0.64102062  0.41884109  1
  S  S113  1  0.85677614  0.64203260  0.74905587  1
  S  S114  1  0.14742428  0.35360441  0.25432549  1
  S  S115  1  0.13842474  0.35630483  0.57892967  1
  S  S116  1  0.14163595  0.36093362  0.91585663  1
  S  S117  1  0.13874740  0.85904365  0.25098185  1
  S  S118  1  0.13973986  0.85985282  0.58083461  1
  S  S119  1  0.13428580  0.86067138  0.91647914  1
  S  S120  1  0.64249921  0.36156384  0.24834004  1
  S  S121  1  0.64010486  0.35836156  0.58425569  1
  S  S122  1  0.64384977  0.35802588  0.91863597  1
  S  S123  1  0.63950722  0.85992537  0.25376548  1
  S  S124  1  0.63982730  0.85904539  0.58360549  1
  S  S125  1  0.64068565  0.85637230  0.91427920  1
  S  S126  1  0.08164643  0.16781793  0.03602577  1
  S  S127  1  0.06069241  0.16277743  0.37452206  1
  S  S128  1  0.07290742  0.17029243  0.70821132  1
  S  S129  1  0.06357907  0.67346408  0.04295998  1
  S  S130  1  0.06456715  0.66992986  0.37632524  1
  S  S131  1  0.06407233  0.67640633  0.71188637  1
  S  S132  1  0.56233321  0.17286530  0.04623765  1
  S  S133  1  0.56881617  0.17322359  0.38138195  1
  S  S134  1  0.57060994  0.16830794  0.71191949  1
  S  S135  1  0.56464675  0.66589491  0.04083778  1
  S  S136  1  0.56044744  0.66222929  0.37570343  1
  S  S137  1  0.56510050  0.66429715  0.70825297  1
  S  S138  1  0.33238278  0.43891259  0.12435300  1
  S  S139  1  0.33093468  0.43341204  0.46319232  1
  S  S140  1  0.33955946  0.43094337  0.79318422  1
  S  S141  1  0.33282089  0.93192060  0.12403304  1
  S  S142  1  0.33148299  0.93111923  0.45706265  1
  S  S143  1  0.32988128  0.93207502  0.78662492  1
  S  S144  1  0.83295061  0.44072288  0.12043009  1
  S  S145  1  0.83257758  0.43789752  0.46237459  1
  S  S146  1  0.82642900  0.43212492  0.78654420  1
  S  S147  1  0.82769157  0.93115662  0.12436897  1
  S  S148  1  0.82993059  0.93339610  0.45819136  1
  S  S149  1  0.82572780  0.92972101  0.79542615  1
  S  S150  1  0.44142255  0.33354364  0.29213889  1
  S  S151  1  0.43399191  0.33124649  0.62491603  1
  S  S152  1  0.43684634  0.33372297  0.95958525  1
  S  S153  1  0.43130273  0.82713249  0.29302452  1
  S  S154  1  0.43619415  0.83123447  0.62444494  1
  S  S155  1  0.43597821  0.82575851  0.95677695  1
  S  S156  1  0.92464558  0.33422767  0.29124050  1
  S  S157  1  0.93380369  0.32794676  0.62025539  1
  S  S158  1  0.93801168  0.32993552  0.95614205  1
  S  S159  1  0.92709192  0.83023762  0.28984934  1
  S  S160  1  0.93649740  0.83460736  0.62663290  1
  S  S161  1  0.92044592  0.82680920  0.95591483  1
  S  S162  1  0.18445653  0.07127480  0.21438924  1
  S  S163  1  0.17219295  0.06613722  0.54097678  1
  S  S164  1  0.17422901  0.07623452  0.87310333  1
  S  S165  1  0.16342753  0.56894798  0.20596477  1
  S  S166  1  0.16982192  0.57022981  0.53937840  1
  S  S167  1  0.17178939  0.56973121  0.87801609  1
  S  S168  1  0.66585682  0.06496137  0.20770974  1
  S  S169  1  0.66727527  0.06650131  0.54368788  1
  S  S170  1  0.67186120  0.06564930  0.87699003  1
  S  S171  1  0.66660563  0.56274661  0.21147697  1
  S  S172  1  0.66218798  0.55992735  0.54038211  1
  S  S173  1  0.66622338  0.56227341  0.87478054  1
  O  O174  1  0.36865962  0.22834463  0.08414338  1
  O  O175  1  0.36902767  0.21793972  0.40851669  1
  O  O176  1  0.37573559  0.21749197  0.73926600  1
  O  O177  1  0.36811106  0.71802446  0.07235992  1
  O  O178  1  0.36527243  0.72500679  0.41683680  1
  O  O179  1  0.37552676  0.72045890  0.73964436  1
  O  O180  1  0.88326903  0.20996605  0.06230295  1
  O  O181  1  0.86662916  0.21718883  0.41334683  1
  O  O182  1  0.86392912  0.20852487  0.73307614  1
  O  O183  1  0.86655533  0.72269109  0.07695755  1
  O  O184  1  0.86748072  0.71999612  0.41016226  1
  O  O185  1  0.86449743  0.72087406  0.74126561  1
  O  O186  1  0.28527950  0.13361857  0.09512735  1
  O  O187  1  0.28186945  0.12835652  0.42390433  1
  O  O188  1  0.28591215  0.13270581  0.75599976  1
  O  O189  1  0.27372043  0.63210454  0.08199080  1
  O  O190  1  0.27824466  0.62993405  0.42398077  1
  O  O191  1  0.28379441  0.64001563  0.76078780  1
  O  O192  1  0.77567279  0.14450449  0.07847357  1
  O  O193  1  0.78146464  0.12703279  0.42925156  1
  O  O194  1  0.78435463  0.12352320  0.76278669  1
  O  O195  1  0.77692460  0.63547075  0.09180065  1
  O  O196  1  0.77884421  0.63104689  0.42400055  1
  O  O197  1  0.77880491  0.63163891  0.75964191  1
  O  O198  1  0.13140684  0.28341973  0.27309918  1
  O  O199  1  0.13303043  0.27451955  0.58328005  1
  O  O200  1  0.13020038  0.27824247  0.91999070  1
  O  O201  1  0.12463969  0.78211359  0.26222866  1
  O  O202  1  0.13254285  0.78077908  0.58890725  1
  O  O203  1  0.12017365  0.78224088  0.92536766  1
  O  O204  1  0.63576441  0.28223916  0.25509178  1
  O  O205  1  0.63092091  0.28064792  0.59540229  1
  O  O206  1  0.63531732  0.28028601  0.92903717  1
  O  O207  1  0.63745697  0.78521855  0.26790141  1
  O  O208  1  0.62919149  0.78229066  0.59388198  1
  O  O209  1  0.63678367  0.77203682  0.91289685  1
  O  O210  1  0.22961984  0.36180898  0.25635250  1
  O  O211  1  0.21993129  0.36888719  0.57634850  1
  O  O212  1  0.22504248  0.36636786  0.91432776  1
  O  O213  1  0.21887332  0.86376651  0.24613051  1
  O  O214  1  0.21733887  0.86938637  0.57001730  1
  O  O215  1  0.20590315  0.86367051  0.89714971  1
  O  O216  1  0.71800047  0.37093059  0.23334059  1
  O  O217  1  0.72002297  0.36683271  0.57851249  1
  O  O218  1  0.72262144  0.36765603  0.91122028  1
  O  O219  1  0.71752229  0.87401370  0.24303043  1
  O  O220  1  0.71841465  0.87090134  0.57719012  1
  O  O221  1  0.72168771  0.87110186  0.90893242  1
  O  O222  1  0.42300027  0.13916822  0.15723384  1
  O  O223  1  0.41897693  0.13666882  0.49034273  1
  O  O224  1  0.42389514  0.13082294  0.81720074  1
  O  O225  1  0.41093052  0.62962396  0.14857833  1
  O  O226  1  0.41639875  0.63381084  0.48749695  1
  O  O227  1  0.42165535  0.63217796  0.81742607  1
  O  O228  1  0.90705384  0.13468005  0.15169974  1
  O  O229  1  0.91966265  0.12677721  0.48568295  1
  O  O230  1  0.92402697  0.13331041  0.81824611  1
  O  O231  1  0.91477061  0.63459764  0.15164028  1
  O  O232  1  0.91690517  0.63403576  0.48788219  1
  O  O233  1  0.91694410  0.63364328  0.81619567  1
  O  O234  1  0.37598678  0.09065338  0.02174158  1
  O  O235  1  0.37632252  0.07915827  0.35485499  1
  O  O236  1  0.37327652  0.07917921  0.68119559  1
  O  O237  1  0.36746486  0.58010106  0.01319415  1
  O  O238  1  0.36921434  0.58744883  0.35122368  1
  O  O239  1  0.36678670  0.58156912  0.68310285  1
  O  O240  1  0.86548010  0.07068164  0.01609365  1
  O  O241  1  0.86746387  0.07935130  0.35025926  1
  O  O242  1  0.86768951  0.07008210  0.68326353  1
  O  O243  1  0.86338872  0.58480050  0.01489524  1
  O  O244  1  0.87031281  0.58220677  0.35210015  1
  O  O245  1  0.86220590  0.58370199  0.67962804  1
  O  O246  1  0.09407694  0.35770761  0.18273260  1
  O  O247  1  0.08271581  0.36182961  0.50780337  1
  O  O248  1  0.08741869  0.37065688  0.84960377  1
  O  O249  1  0.08178309  0.86624582  0.18160514  1
  O  O250  1  0.07880810  0.86789644  0.51329401  1
  O  O251  1  0.06807457  0.87547237  0.85533924  1
  O  O252  1  0.57988564  0.37368053  0.18447163  1
  O  O253  1  0.58211497  0.36441785  0.51468733  1
  O  O254  1  0.58504031  0.36382417  0.84872520  1
  O  O255  1  0.57961572  0.86131816  0.18354431  1
  O  O256  1  0.58076258  0.86710775  0.51444851  1
  O  O257  1  0.58423667  0.86293415  0.84321162  1
  O  O258  1  0.13209582  0.42200350  0.31676683  1
  O  O259  1  0.12518357  0.41193052  0.64422810  1
  O  O260  1  0.13614906  0.41583364  0.98741547  1
  O  O261  1  0.13087460  0.92055335  0.31814608  1
  O  O262  1  0.13186775  0.91930948  0.64868850  1
  O  O263  1  0.13658327  0.92051481  0.98851030  1
  O  O264  1  0.63982403  0.41906413  0.31968292  1
  O  O265  1  0.62779524  0.41882435  0.64961618  1
  O  O266  1  0.63152117  0.41836006  0.98401862  1
  O  O267  1  0.63000965  0.92299637  0.31977397  1
  O  O268  1  0.62806229  0.92072050  0.64962797  1
  O  O269  1  0.62899306  0.90745664  0.98119750  1
  O  O270  1  0.04656760  0.18432287  0.09428507  1
  O  O271  1  0.02570282  0.19636228  0.43765699  1
  O  O272  1  0.03735568  0.19250528  0.76893077  1
  O  O273  1  0.02541608  0.70394091  0.10356529  1
  O  O274  1  0.02664704  0.70123925  0.43695809  1
  O  O275  1  0.02604189  0.70999216  0.77221715  1
  O  O276  1  0.52639140  0.21224883  0.10716615  1
  O  O277  1  0.52990182  0.20196683  0.44162366  1
  O  O278  1  0.53667947  0.19858722  0.77474207  1
  O  O279  1  0.52956838  0.69505378  0.10056004  1
  O  O280  1  0.53082883  0.69741023  0.44279060  1
  O  O281  1  0.52947651  0.69351656  0.76902849  1
  O  O282  1  0.29907810  0.47071083  0.05977783  1
  O  O283  1  0.30580589  0.47206022  0.40547984  1
  O  O284  1  0.31448972  0.46356026  0.73107153  1
  O  O285  1  0.30496991  0.97336774  0.06824216  1
  O  O286  1  0.30228704  0.96783217  0.39708985  1
  O  O287  1  0.29907645  0.96593461  0.72113771  1
  O  O288  1  0.79288452  0.47622255  0.05898391  1
  O  O289  1  0.80077121  0.47244769  0.40013805  1
  O  O290  1  0.78984873  0.47094849  0.72593429  1
  O  O291  1  0.79973338  0.96141507  0.05999748  1
  O  O292  1  0.80028704  0.96938525  0.39711169  1
  O  O293  1  0.79649457  0.96441411  0.73278172  1
  O  O294  1  0.47959271  0.29796926  0.23317059  1
  O  O295  1  0.46989914  0.30081673  0.56336043  1
  O  O296  1  0.47214883  0.30059575  0.89741572  1
  O  O297  1  0.46163393  0.80340649  0.22985743  1
  O  O298  1  0.47160388  0.80110400  0.56322316  1
  O  O299  1  0.47604727  0.79314196  0.89633353  1
  O  O300  1  0.95629794  0.31640556  0.22987202  1
  O  O301  1  0.96877982  0.29795310  0.55614166  1
  O  O302  1  0.96998692  0.29407630  0.89245466  1
  O  O303  1  0.96458458  0.80209611  0.22963002  1
  O  O304  1  0.97330778  0.80223667  0.56501892  1
  O  O305  1  0.95677399  0.80002536  0.89520729  1
  O  O306  1  0.21392560  0.02648882  0.27155620  1
  O  O307  1  0.20391634  0.03066134  0.60262249  1
  O  O308  1  0.19734207  0.03935571  0.93190148  1
  O  O309  1  0.18749157  0.53440362  0.26656912  1
  O  O310  1  0.19587826  0.53424460  0.59950816  1
  O  O311  1  0.20042294  0.52982819  0.93865135  1
  O  O312  1  0.70062485  0.03706224  0.27617270  1
  O  O313  1  0.69702495  0.03101751  0.60486575  1
  O  O314  1  0.70180569  0.02636859  0.93438068  1
  O  O315  1  0.70647562  0.53070117  0.27471128  1
  O  O316  1  0.69514722  0.52701475  0.60377267  1
  O  O317  1  0.69637485  0.52721210  0.93640360  1
  O  O318  1  0.10075854  0.08445357  0.01552365  1
  O  O319  1  0.08250595  0.08288149  0.37790173  1
  O  O320  1  0.09537944  0.08898589  0.69634947  1
  O  O321  1  0.08354847  0.59334659  0.04172120  1
  O  O322  1  0.08081261  0.58879776  0.37197831  1
  O  O323  1  0.08075872  0.59752071  0.70952574  1
  O  O324  1  0.57359422  0.09387793  0.04705231  1
  O  O325  1  0.58626947  0.09199605  0.37825963  1
  O  O326  1  0.58522246  0.08521315  0.70362191  1
  O  O327  1  0.58408150  0.58327217  0.03827694  1
  O  O328  1  0.58192125  0.58173868  0.37708933  1
  O  O329  1  0.58016957  0.58070917  0.70247171  1
  O  O330  1  0.41419342  0.41932632  0.12431951  1
  O  O331  1  0.41467836  0.41580519  0.46969345  1
  O  O332  1  0.42482557  0.41649954  0.80442227  1
  O  O333  1  0.41069511  0.90720721  0.12216897  1
  O  O334  1  0.41320515  0.91173548  0.46318921  1
  O  O335  1  0.40989226  0.91028711  0.78543861  1
  O  O336  1  0.91367792  0.43540334  0.12022541  1
  O  O337  1  0.91569799  0.42283217  0.46888543  1
  O  O338  1  0.90284503  0.41439502  0.78428709  1
  O  O339  1  0.91159431  0.91661190  0.13595452  1
  O  O340  1  0.91389549  0.91888408  0.46504344  1
  O  O341  1  0.90887574  0.91584008  0.80338345  1
  O  O342  1  0.42891720  0.41378556  0.29261406  1
  O  O343  1  0.41957456  0.41388168  0.63212770  1
  O  O344  1  0.42091556  0.41579991  0.96268508  1
  O  O345  1  0.41105171  0.91007240  0.30621512  1
  O  O346  1  0.42335850  0.91552942  0.63202050  1
  O  O347  1  0.42368425  0.90594866  0.96117636  1
  O  O348  1  0.90853377  0.42032384  0.30962950  1
  O  O349  1  0.91188917  0.40812282  0.61995146  1
  O  O350  1  0.91209556  0.40810700  0.95086155  1
  O  O351  1  0.90539559  0.91054308  0.29499497  1
  O  O352  1  0.92037361  0.91592314  0.62649803  1
  O  O353  1  0.89285960  0.90465852  0.95759704  1
  O  O354  1  0.10992707  0.09527044  0.22008537  1
  O  O355  1  0.08956350  0.08122084  0.53543431  1
  O  O356  1  0.09330480  0.10062031  0.86355993  1
  O  O357  1  0.07912984  0.58545453  0.19300988  1
  O  O358  1  0.08739762  0.58996830  0.53269127  1
  O  O359  1  0.09281786  0.59215151  0.87810891  1
  O  O360  1  0.58804891  0.09177064  0.21101006  1
  O  O361  1  0.58353844  0.08181849  0.53754508  1
  O  O362  1  0.59187300  0.08768294  0.87686535  1
  O  O363  1  0.58554604  0.57097128  0.20971758  1
  O  O364  1  0.57751572  0.57112060  0.53443024  1
  O  O365  1  0.58352214  0.57915494  0.86993534  1
  O  O366  1  0.15249605  0.22241136  0.05282936  1
  O  O367  1  0.13275251  0.21384082  0.39071667  1
  O  O368  1  0.14159074  0.22621931  0.72445638  1
  O  O369  1  0.13252918  0.72743621  0.05881002  1
  O  O370  1  0.13633754  0.72234868  0.39400515  1
  O  O371  1  0.13535610  0.73019493  0.72919172  1
  O  O372  1  0.63455902  0.22314931  0.06029107  1
  O  O373  1  0.64023829  0.22517716  0.40005504  1
  O  O374  1  0.64254580  0.21831717  0.72660107  1
  O  O375  1  0.63610195  0.71590345  0.05256854  1
  O  O376  1  0.62916709  0.71322788  0.38566163  1
  O  O377  1  0.63681487  0.71348901  0.72265661  1
  O  O378  1  0.28238968  0.36718395  0.11124477  1
  O  O379  1  0.28089242  0.36021895  0.44570757  1
  O  O380  1  0.29121083  0.35796636  0.77876605  1
  O  O381  1  0.27606609  0.86488876  0.11009470  1
  O  O382  1  0.27811540  0.86091801  0.44182207  1
  O  O383  1  0.27695117  0.86139153  0.76999098  1
  O  O384  1  0.78715678  0.36571088  0.10430432  1
  O  O385  1  0.78299283  0.36594124  0.44771215  1
  O  O386  1  0.77084487  0.36171041  0.76998705  1
  O  O387  1  0.77786751  0.85902375  0.11072261  1
  O  O388  1  0.78065172  0.86078161  0.44163750  1
  O  O389  1  0.77571182  0.85780536  0.77867824  1
  O  O390  1  0.36982685  0.28268724  0.27716249  1
  O  O391  1  0.36151236  0.28041350  0.60817604  1
  O  O392  1  0.36499040  0.28341456  0.94447628  1
  O  O393  1  0.36334327  0.77467432  0.28329223  1
  O  O394  1  0.36209176  0.78347229  0.60767479  1
  O  O395  1  0.36343327  0.77341055  0.93572000  1
  O  O396  1  0.85382977  0.28353215  0.27802826  1
  O  O397  1  0.86145492  0.27450349  0.60051354  1
  O  O398  1  0.86805451  0.27787526  0.94500706  1
  O  O399  1  0.85857290  0.77495039  0.27477812  1
  O  O400  1  0.86524047  0.78579910  0.61245896  1
  O  O401  1  0.85371656  0.76887598  0.94165987  1
  O  O402  1  0.24384127  0.13828736  0.23436249  1
  O  O403  1  0.22279778  0.13911476  0.55816856  1
  O  O404  1  0.23062621  0.14484017  0.88880111  1
  O  O405  1  0.21481685  0.64022001  0.22199421  1
  O  O406  1  0.22236383  0.64278447  0.55762905  1
  O  O407  1  0.22662567  0.64219414  0.90120570  1
  O  O408  1  0.72014244  0.13061476  0.21587565  1
  O  O409  1  0.71698635  0.13863449  0.55882585  1
  O  O410  1  0.72454047  0.13484359  0.88938838  1
  O  O411  1  0.71315103  0.63714083  0.22490282  1
  O  O412  1  0.70675006  0.63313515  0.55250541  1
  O  O413  1  0.71702494  0.63329646  0.88890973  1
  O  O414  1  0.49653153  0.33651748  0.03159664  1
  O  O415  1  0.49784412  0.33671230  0.36763028  1
  O  O416  1  0.49327406  0.33010783  0.69667079  1
  O  O417  1  0.49241907  0.82042926  0.02848773  1
  O  O418  1  0.49591783  0.83016217  0.36426152  1
  O  O419  1  0.49409053  0.83040794  0.69650446  1
  O  O420  1  0.99957324  0.34502118  0.02828825  1
  O  O421  1  0.98565230  0.33214143  0.36319854  1
  O  O422  1  0.99194225  0.33078379  0.68993925  1
  O  O423  1  0.98183265  0.83480314  0.02909646  1
  O  O424  1  0.98781883  0.83529511  0.36323051  1
  O  O425  1  0.99583297  0.84036879  0.70015806  1
  O  O426  1  0.17808119  0.01504440  0.13911240  1
  O  O427  1  0.17273578  0.00776977  0.46925427  1
  O  O428  1  0.17100713  0.01531585  0.80026292  1
  O  O429  1  0.16383458  0.50893068  0.13368375  1
  O  O430  1  0.16816315  0.51250565  0.46634792  1
  O  O431  1  0.17096980  0.51417461  0.80709725  1
  O  O432  1  0.65286042  -0.00124703  0.13985195  1
  O  O433  1  0.66369695  0.00731886  0.47025311  1
  O  O434  1  0.65982558  0.00597227  0.80059394  1
  O  O435  1  0.66775026  0.50489890  0.13873029  1
  O  O436  1  0.66260699  0.49902467  0.46947000  1
  O  O437  1  0.66189986  0.50267991  0.80165891  1
  O  O438  1  0.00090636  0.15433786  0.30314576  1
  O  O439  1  0.01129699  0.16806040  0.63619120  1
  O  O440  1  0.02220600  0.17309756  0.96234970  1
  O  O441  1  0.00646716  0.67053182  0.30391388  1
  O  O442  1  0.00593866  0.67611930  0.63858353  1
  O  O443  1  0.00381281  0.66869797  0.96981789  1
  O  O444  1  0.51124776  0.17273713  0.30939615  1
  O  O445  1  0.50978768  0.16854552  0.64061248  1
  O  O446  1  0.50452015  0.17262438  0.97230735  1
  O  O447  1  0.49543068  0.65222210  0.30700818  1
  O  O448  1  0.50598538  0.66183132  0.63506106  1
  O  O449  1  0.50627925  0.65669395  0.96515649  1
  O  O450  1  0.34052247  0.49996589  0.19514288  1
  O  O451  1  0.33374007  0.49014743  0.53773120  1
  O  O452  1  0.33828368  0.49098510  0.86422215  1
  O  O453  1  0.34352641  0.98891614  0.20144184  1
  O  O454  1  0.33598531  0.99071468  0.53106634  1
  O  O455  1  0.33475977  0.99271904  0.85563283  1
  O  O456  1  0.83180195  0.49603032  0.19429129  1
  O  O457  1  0.83269199  0.49795601  0.53411259  1
  O  O458  1  0.82524844  0.49053863  0.85936354  1
  O  O459  1  0.82536620  0.99328282  0.19362740  1
  O  O460  1  0.83089441  0.99172418  0.53092850  1
  O  O461  1  0.82459941  0.98978055  0.86685171  1
