# generated using pymatgen
data_Na31Fe20(SO4)36
_symmetry_space_group_name_H-M   'P 1'
_cell_length_a   18.07424912
_cell_length_b   18.08481194
_cell_length_c   19.70689212
_cell_angle_alpha   107.60560964
_cell_angle_beta   107.58740549
_cell_angle_gamma   90.68410241
_symmetry_Int_Tables_number   1
_chemical_formula_structural   Na31Fe20(SO4)36
_chemical_formula_sum   'Na62 Fe40 S72 O288'
_cell_volume   5814.89594679
_cell_formula_units_Z   2
loop_
 _symmetry_equiv_pos_site_id
 _symmetry_equiv_pos_as_xyz
  1  'x, y, z'
loop_
 _atom_site_type_symbol
 _atom_site_label
 _atom_site_symmetry_multiplicity
 _atom_site_fract_x
 _atom_site_fract_y
 _atom_site_fract_z
 _atom_site_occupancy
  Na  Na0  1  0.11843810  0.37032476  0.08603079  1
  Na  Na1  1  0.12294898  0.35841589  0.41150577  1
  Na  Na2  1  0.13632318  0.36195932  0.74880409  1
  Na  Na3  1  0.14410354  0.87677719  0.09514593  1
  Na  Na4  1  0.12537196  0.84227815  0.38752053  1
  Na  Na5  1  0.12892606  0.86633643  0.74514229  1
  Na  Na6  1  0.72280709  0.39529544  0.15977988  1
  Na  Na7  1  0.63401922  0.36381965  0.41298604  1
  Na  Na8  1  0.63796863  0.36346818  0.75306163  1
  Na  Na9  1  0.64211859  0.86917638  0.09134475  1
  Na  Na10  1  0.63503671  0.86533293  0.41933331  1
  Na  Na11  1  0.63346220  0.87385803  0.75004798  1
  Na  Na12  1  0.36696888  0.13344790  0.24705016  1
  Na  Na13  1  0.36354092  0.13401391  0.57877838  1
  Na  Na14  1  0.36659790  0.13620430  0.91697255  1
  Na  Na15  1  0.36737145  0.63547582  0.25612502  1
  Na  Na16  1  0.36320037  0.64041647  0.58021453  1
  Na  Na17  1  0.36677947  0.63637084  0.92045361  1
  Na  Na18  1  0.85566451  0.13360004  0.23868191  1
  Na  Na19  1  0.86232682  0.13369997  0.57769782  1
  Na  Na20  1  0.87497447  0.13763277  0.92975163  1
  Na  Na21  1  0.87515110  0.62204717  0.24495750  1
  Na  Na22  1  0.86117536  0.63342957  0.58083234  1
  Na  Na23  1  0.86473946  0.63521930  0.91570900  1
  Na  Na24  1  0.48677219  0.00115173  0.42438558  1
  Na  Na25  1  0.95502789  0.01677418  0.30821820  1
  Na  Na26  1  0.98707487  0.50678916  0.75850663  1
  Na  Na27  1  0.49162375  0.50708507  0.74532817  1
  Na  Na28  1  0.51624764  0.47365651  0.10044470  1
  Na  Na29  1  0.48324427  0.01354412  0.07468205  1
  Na  Na30  1  0.49601227  0.53357694  0.40940818  1
  Na  Na31  1  0.94532003  0.48799406  0.36647046  1
  Na  Na32  1  0.97310364  0.00791922  0.76361365  1
  Na  Na33  1  0.51437766  0.48813577  0.92123335  1
  Na  Na34  1  0.01136063  0.99949789  0.56430691  1
  Na  Na35  1  0.03478535  0.98896736  1.00948517  1
  Na  Na36  1  0.00603438  0.45155394  0.55901895  1
  Na  Na37  1  0.52347067  0.98892900  0.25247417  1
  Na  Na38  1  0.52508993  0.97809113  0.61622273  1
  Na  Na39  1  -0.00204402  0.54105945  1.10236945  1
  Na  Na40  1  0.51747359  0.99715745  0.89967803  1
  Na  Na41  1  0.49386562  0.52168284  0.57308117  1
  Na  Na42  1  0.75965925  0.75884832  0.32382685  1
  Na  Na43  1  0.25423540  0.75793367  0.65948663  1
  Na  Na44  1  0.24183699  0.74657064  0.00937766  1
  Na  Na45  1  0.23966143  0.23952744  0.00835229  1
  Na  Na46  1  0.74443930  0.23702696  0.67191780  1
  Na  Na47  1  0.75262515  0.24363610  0.01524797  1
  Na  Na48  1  0.24313864  0.24292615  0.34569731  1
  Na  Na49  1  0.77708611  0.27469774  0.32249764  1
  Na  Na50  1  0.73690393  0.74398421  0.66955581  1
  Na  Na51  1  0.25867509  0.25800014  0.65523346  1
  Na  Na52  1  0.23992527  0.23836792  0.17135711  1
  Na  Na53  1  0.76174652  0.76115309  0.15790282  1
  Na  Na54  1  0.76339642  0.25773982  0.48890862  1
  Na  Na55  1  0.24514324  0.74813700  0.83523754  1
  Na  Na56  1  0.22793505  0.73807261  0.19100721  1
  Na  Na57  1  0.74133280  0.23366956  0.84182406  1
  Na  Na58  1  0.74375807  0.75078161  0.50159356  1
  Na  Na59  1  0.25816077  0.75600252  0.48038694  1
  Na  Na60  1  0.73845139  0.74348605  0.84324619  1
  Na  Na61  1  0.24311694  0.24295846  0.83623605  1
  Fe  Fe62  1  0.96683080  0.80250018  0.12604607  1
  Fe  Fe63  1  0.46314408  0.80593990  0.78523552  1
  Fe  Fe64  1  0.46600558  0.30555698  0.45141902  1
  Fe  Fe65  1  0.96554355  0.80692005  0.78888771  1
  Fe  Fe66  1  0.46425137  0.30694183  0.78317412  1
  Fe  Fe67  1  0.96470868  0.80373057  0.44826537  1
  Fe  Fe68  1  0.46727766  0.79996108  0.45570977  1
  Fe  Fe69  1  0.96447834  0.31332397  0.78889303  1
  Fe  Fe70  1  0.47174130  0.30804985  0.12080993  1
  Fe  Fe71  1  0.46306377  0.80626427  0.11897129  1
  Fe  Fe72  1  0.19065842  0.53352400  0.05032125  1
  Fe  Fe73  1  0.19012382  0.03661999  0.70931328  1
  Fe  Fe74  1  0.18702759  0.04020640  0.37721293  1
  Fe  Fe75  1  0.69820378  0.03352772  0.05238124  1
  Fe  Fe76  1  0.70193884  0.02769516  0.37966231  1
  Fe  Fe77  1  0.69136171  0.53472252  0.37499120  1
  Fe  Fe78  1  0.18404029  0.53476049  0.37615842  1
  Fe  Fe79  1  0.69639391  0.53739692  0.05098782  1
  Fe  Fe80  1  0.68922635  0.53414315  0.71134475  1
  Fe  Fe81  1  0.19192416  0.53324870  0.71231285  1
  Fe  Fe82  1  0.03648132  0.69163556  0.88099303  1
  Fe  Fe83  1  0.03234064  0.20061767  0.20791156  1
  Fe  Fe84  1  0.03261024  0.68733362  0.54449321  1
  Fe  Fe85  1  0.53821813  0.18980691  0.87935788  1
  Fe  Fe86  1  0.53534872  0.19313343  0.21536813  1
  Fe  Fe87  1  0.52975213  0.69154619  0.21279503  1
  Fe  Fe88  1  0.02953534  0.19922253  0.53708683  1
  Fe  Fe89  1  0.53473627  0.69360095  0.88337480  1
  Fe  Fe90  1  0.03394606  0.19706957  0.88281866  1
  Fe  Fe91  1  0.53719599  0.19146039  0.54898727  1
  Fe  Fe92  1  0.30537096  0.96640255  0.61728674  1
  Fe  Fe93  1  0.79904669  0.96967128  0.62368405  1
  Fe  Fe94  1  0.80901024  0.95968289  0.95482434  1
  Fe  Fe95  1  0.80628770  0.46338685  0.61504526  1
  Fe  Fe96  1  0.30400315  0.96858169  0.28330434  1
  Fe  Fe97  1  0.31003549  0.46431394  0.95551695  1
  Fe  Fe98  1  0.29794679  0.97230326  0.95477089  1
  Fe  Fe99  1  0.80822189  0.46604403  0.94760183  1
  Fe  Fe100  1  0.30709129  0.46259555  0.28458456  1
  Fe  Fe101  1  0.30619537  0.46255775  0.61327419  1
  S  S102  1  0.36373536  0.14483943  0.07988905  1
  S  S103  1  0.36250769  0.13775386  0.41831892  1
  S  S104  1  0.35883555  0.14103580  0.74970122  1
  S  S105  1  0.35586856  0.64046068  0.08258766  1
  S  S106  1  0.35867968  0.63433240  0.41862102  1
  S  S107  1  0.35864343  0.63878156  0.74876109  1
  S  S108  1  0.86725928  0.12977044  0.08238145  1
  S  S109  1  0.85658969  0.14466179  0.41671510  1
  S  S110  1  0.86167343  0.14313756  0.74884241  1
  S  S111  1  0.85664847  0.64237483  0.07722084  1
  S  S112  1  0.85603225  0.64458752  0.41718195  1
  S  S113  1  0.85932812  0.63936148  0.75052595  1
  S  S114  1  0.14656884  0.35974742  0.25398579  1
  S  S115  1  0.14643738  0.35891638  0.58645451  1
  S  S116  1  0.14281654  0.36059473  0.91569332  1
  S  S117  1  0.13905488  0.86476114  0.24729627  1
  S  S118  1  0.13784282  0.85924093  0.58086734  1
  S  S119  1  0.14112588  0.85446504  0.91564110  1
  S  S120  1  0.63613807  0.35983281  0.25617417  1
  S  S121  1  0.64132249  0.35658450  0.58290264  1
  S  S122  1  0.63823873  0.36207118  0.91569472  1
  S  S123  1  0.63703742  0.85559147  0.25072988  1
  S  S124  1  0.64028085  0.85671877  0.58236440  1
  S  S125  1  0.63630613  0.86181121  0.91677439  1
  S  S126  1  0.07543378  0.17717922  0.04559664  1
  S  S127  1  0.07170018  0.17449203  0.37446804  1
  S  S128  1  0.06745686  0.17203063  0.70460668  1
  S  S129  1  0.06946848  0.67499261  0.04469443  1
  S  S130  1  0.06307559  0.66491149  0.37909763  1
  S  S131  1  0.06488329  0.66527458  0.70783503  1
  S  S132  1  0.57139157  0.16662919  0.04074509  1
  S  S133  1  0.56760201  0.16651922  0.37750681  1
  S  S134  1  0.56465242  0.17178006  0.71155333  1
  S  S135  1  0.56543614  0.67051569  0.04304214  1
  S  S136  1  0.56585787  0.67159412  0.37484132  1
  S  S137  1  0.56182165  0.66870066  0.70985775  1
  S  S138  1  0.33239206  0.43064599  0.12271274  1
  S  S139  1  0.33568040  0.43256745  0.45900103  1
  S  S140  1  0.33415010  0.43635866  0.79299501  1
  S  S141  1  0.33846822  0.93631372  0.12511087  1
  S  S142  1  0.33044248  0.93097102  0.45685670  1
  S  S143  1  0.32527408  0.93202322  0.79073248  1
  S  S144  1  0.84039319  0.44513627  0.11196011  1
  S  S145  1  0.82642573  0.43972680  0.45556673  1
  S  S146  1  0.82599808  0.43327181  0.78423689  1
  S  S147  1  0.83240579  0.92807438  0.12535222  1
  S  S148  1  0.82856830  0.92896569  0.46108834  1
  S  S149  1  0.83381913  0.92962675  0.79371210  1
  S  S150  1  0.43148327  0.32922551  0.29200453  1
  S  S151  1  0.43612878  0.33194045  0.62540423  1
  S  S152  1  0.43414559  0.32980797  0.95533111  1
  S  S153  1  0.42845339  0.83090052  0.29125657  1
  S  S154  1  0.42915650  0.83406593  0.62553064  1
  S  S155  1  0.42936468  0.83054718  0.95622028  1
  S  S156  1  0.93288083  0.32665015  0.27923283  1
  S  S157  1  0.93658091  0.33431262  0.62718713  1
  S  S158  1  0.93022283  0.32997294  0.95082046  1
  S  S159  1  0.92744173  0.82356207  0.28580178  1
  S  S160  1  0.93063134  0.83060243  0.62542703  1
  S  S161  1  0.93234664  0.82226081  0.95637298  1
  S  S162  1  0.17324257  0.07527299  0.21028198  1
  S  S163  1  0.17063303  0.07006582  0.54190622  1
  S  S164  1  0.16759934  0.06772117  0.87030503  1
  S  S165  1  0.17412400  0.56421552  0.21213038  1
  S  S166  1  0.17204481  0.56667937  0.54552699  1
  S  S167  1  0.17294544  0.56619279  0.87639167  1
  S  S168  1  0.66212433  0.06804572  0.20983556  1
  S  S169  1  0.66892653  0.06640307  0.54059326  1
  S  S170  1  0.67354500  0.06604436  0.87985508  1
  S  S171  1  0.66509133  0.57123979  0.20655669  1
  S  S172  1  0.66792001  0.56232725  0.54205759  1
  S  S173  1  0.66287686  0.56505489  0.87073822  1
  O  O174  1  0.38029612  0.22065119  0.06736332  1
  O  O175  1  0.37151180  0.21684581  0.41070703  1
  O  O176  1  0.36640557  0.22094129  0.74257554  1
  O  O177  1  0.36725930  0.71813834  0.07180031  1
  O  O178  1  0.36856525  0.71593371  0.41705328  1
  O  O179  1  0.36695202  0.71702725  0.73885357  1
  O  O180  1  0.86909768  0.20120462  0.06338389  1
  O  O181  1  0.85571489  0.22622436  0.41847313  1
  O  O182  1  0.87688504  0.21927778  0.73615775  1
  O  O183  1  0.87116147  0.72348022  0.07336224  1
  O  O184  1  0.86516139  0.72586403  0.41302958  1
  O  O185  1  0.86871408  0.71876750  0.74412025  1
  O  O186  1  0.28597973  0.14202353  0.08668753  1
  O  O187  1  0.28526405  0.12723299  0.42735979  1
  O  O188  1  0.28005857  0.13084260  0.75847544  1
  O  O189  1  0.27524352  0.63327902  0.08699853  1
  O  O190  1  0.27787424  0.62410320  0.42374242  1
  O  O191  1  0.27952207  0.63042321  0.75667618  1
  O  O192  1  0.79254983  0.11692726  0.09815392  1
  O  O193  1  0.78152700  0.12353802  0.43020712  1
  O  O194  1  0.78436435  0.13991093  0.75695434  1
  O  O195  1  0.77470751  0.63734765  0.08011475  1
  O  O196  1  0.77655936  0.63618291  0.42497631  1
  O  O197  1  0.78006673  0.63037435  0.75855771  1
  O  O198  1  0.13453712  0.27838890  0.25995185  1
  O  O199  1  0.13175566  0.28024106  0.59289656  1
  O  O200  1  0.13539743  0.27960636  0.91973427  1
  O  O201  1  0.13953535  0.78908567  0.25903658  1
  O  O202  1  0.12761778  0.78253409  0.59321518  1
  O  O203  1  0.13657077  0.77067260  0.91512092  1
  O  O204  1  0.61941496  0.28386789  0.26868083  1
  O  O205  1  0.63196290  0.27899941  0.59410894  1
  O  O206  1  0.63087392  0.28240176  0.92239050  1
  O  O207  1  0.62163892  0.77870813  0.26124309  1
  O  O208  1  0.63670383  0.77682341  0.58484050  1
  O  O209  1  0.62665182  0.78233559  0.92228129  1
  O  O210  1  0.22796446  0.36320863  0.24786159  1
  O  O211  1  0.23023980  0.36618970  0.58977490  1
  O  O212  1  0.22152440  0.37079214  0.90586917  1
  O  O213  1  0.21312371  0.88085076  0.23051180  1
  O  O214  1  0.21869787  0.86700705  0.57647101  1
  O  O215  1  0.22166348  0.86946683  0.91243576  1
  O  O216  1  0.71719396  0.36387264  0.25727081  1
  O  O217  1  0.72017254  0.36409596  0.57455017  1
  O  O218  1  0.71343454  0.37032415  0.90040739  1
  O  O219  1  0.71395022  0.85971347  0.24236389  1
  O  O220  1  0.71786774  0.87337902  0.57161496  1
  O  O221  1  0.71272454  0.86981564  0.90372267  1
  O  O222  1  0.42286083  0.13584737  0.14842723  1
  O  O223  1  0.42337154  0.12893012  0.48550163  1
  O  O224  1  0.41837927  0.13369849  0.81758793  1
  O  O225  1  0.41217006  0.63462241  0.15244151  1
  O  O226  1  0.41617086  0.61978744  0.48264472  1
  O  O227  1  0.41751835  0.63236211  0.81779333  1
  O  O228  1  0.93103219  0.12944972  0.15203463  1
  O  O229  1  0.92029261  0.13560369  0.48340275  1
  O  O230  1  0.92205355  0.13331296  0.81633454  1
  O  O231  1  0.91192326  0.62962500  0.14248546  1
  O  O232  1  0.91384480  0.63759909  0.48728815  1
  O  O233  1  0.91888872  0.62912705  0.81765685  1
  O  O234  1  0.37189200  0.08170265  0.01329443  1
  O  O235  1  0.37213220  0.07904989  0.35021356  1
  O  O236  1  0.36465446  0.08314964  0.68049418  1
  O  O237  1  0.36601788  0.58012908  0.01609606  1
  O  O238  1  0.36673829  0.57926985  0.34749085  1
  O  O239  1  0.36851796  0.57844932  0.68223540  1
  O  O240  1  0.87709842  0.06401235  0.01871799  1
  O  O241  1  0.86337433  0.09215677  0.34653846  1
  O  O242  1  0.86874664  0.08036953  0.68155382  1
  O  O243  1  0.86333306  0.58605751  0.00649567  1
  O  O244  1  0.86564890  0.58792950  0.35073893  1
  O  O245  1  0.86771541  0.58106120  0.68250010  1
  O  O246  1  0.09004642  0.37230751  0.19049315  1
  O  O247  1  0.09444040  0.37100976  0.51906489  1
  O  O248  1  0.08341144  0.37010143  0.84897092  1
  O  O249  1  0.07425730  0.86705471  0.17861579  1
  O  O250  1  0.08096167  0.86565960  0.51112557  1
  O  O251  1  0.08439688  0.86148317  0.84569842  1
  O  O252  1  0.58358668  0.36402708  0.18224047  1
  O  O253  1  0.58254105  0.36205184  0.51364235  1
  O  O254  1  0.57483882  0.37202446  0.84992042  1
  O  O255  1  0.57639074  0.86506704  0.18277442  1
  O  O256  1  0.57869313  0.86603191  0.51431884  1
  O  O257  1  0.57446699  0.87348650  0.85121006  1
  O  O258  1  0.14635463  0.41551743  0.32737372  1
  O  O259  1  0.13511636  0.41799254  0.65468106  1
  O  O260  1  0.13753625  0.41659244  0.98590650  1
  O  O261  1  0.13197325  0.92609111  0.31434817  1
  O  O262  1  0.12774706  0.92135563  0.64648912  1
  O  O263  1  0.12817963  0.90572394  0.98301609  1
  O  O264  1  0.62165361  0.42308282  0.31781764  1
  O  O265  1  0.63253315  0.41707349  0.64968278  1
  O  O266  1  0.63176639  0.42148397  0.98395524  1
  O  O267  1  0.62873563  0.91754830  0.31791988  1
  O  O268  1  0.63217812  0.91367000  0.65011429  1
  O  O269  1  0.63082956  0.92013656  0.98636994  1
  O  O270  1  0.04011970  0.20002257  0.10724731  1
  O  O271  1  0.03361910  0.19989832  0.43288004  1
  O  O272  1  0.03522076  0.19999811  0.76827887  1
  O  O273  1  0.02878467  0.70584895  0.10106424  1
  O  O274  1  0.02910723  0.70056300  0.44383684  1
  O  O275  1  0.02758946  0.69574685  0.76814772  1
  O  O276  1  0.53939126  0.20011276  0.10440377  1
  O  O277  1  0.52999549  0.19827207  0.43795009  1
  O  O278  1  0.52744090  0.20735733  0.77251825  1
  O  O279  1  0.52557935  0.69756102  0.10177846  1
  O  O280  1  0.52594441  0.69722022  0.43189914  1
  O  O281  1  0.53070232  0.70109017  0.77547820  1
  O  O282  1  0.30007259  0.46969816  0.06317247  1
  O  O283  1  0.30730561  0.46709056  0.39776647  1
  O  O284  1  0.30429964  0.47389618  0.73351747  1
  O  O285  1  0.31858453  0.97290321  0.06557426  1
  O  O286  1  0.30310881  0.96611352  0.39485087  1
  O  O287  1  0.29758244  0.96766191  0.72903284  1
  O  O288  1  0.79272655  0.47674956  0.04750101  1
  O  O289  1  0.79121076  0.47913933  0.39971533  1
  O  O290  1  0.79489722  0.46910026  0.72248238  1
  O  O291  1  0.79670309  0.95342460  0.05665672  1
  O  O292  1  0.80059043  0.96351842  0.40055291  1
  O  O293  1  0.81434868  0.96697546  0.73456634  1
  O  O294  1  0.46287667  0.30004927  0.22753447  1
  O  O295  1  0.47072501  0.29980976  0.56357085  1
  O  O296  1  0.46915658  0.29786774  0.89389067  1
  O  O297  1  0.46315824  0.80019689  0.22881961  1
  O  O298  1  0.46620843  0.81177380  0.56659793  1
  O  O299  1  0.46529660  0.79912862  0.89474889  1
  O  O300  1  0.97326013  0.28917011  0.22147666  1
  O  O301  1  0.97523913  0.30901936  0.56940113  1
  O  O302  1  0.96837315  0.29701878  0.88849239  1
  O  O303  1  0.96758109  0.80080764  0.22655139  1
  O  O304  1  0.96823029  0.80397476  0.56538821  1
  O  O305  1  0.97518577  0.79577014  0.89898586  1
  O  O306  1  0.20412445  0.04270836  0.27555416  1
  O  O307  1  0.19878814  0.02834680  0.60057003  1
  O  O308  1  0.19500668  0.02935232  0.92798364  1
  O  O309  1  0.20560191  0.52405288  0.27134252  1
  O  O310  1  0.20397280  0.52827891  0.60606945  1
  O  O311  1  0.19989703  0.53062293  0.93791549  1
  O  O312  1  0.67988508  0.03095611  0.26904486  1
  O  O313  1  0.69774690  0.03298861  0.60177634  1
  O  O314  1  0.70327826  0.03353538  0.94497176  1
  O  O315  1  0.69119755  0.53737803  0.26758468  1
  O  O316  1  0.70233809  0.52540879  0.60354133  1
  O  O317  1  0.69445874  0.53124096  0.93235045  1
  O  O318  1  0.10342488  0.10098426  0.03736240  1
  O  O319  1  0.08292630  0.08931519  0.36173323  1
  O  O320  1  0.08186475  0.08793573  0.69336788  1
  O  O321  1  0.09206727  0.59693565  0.04876256  1
  O  O322  1  0.08214166  0.58521684  0.38263711  1
  O  O323  1  0.08172938  0.58339561  0.70412909  1
  O  O324  1  0.58189215  0.08200717  0.03390266  1
  O  O325  1  0.58332095  0.08472828  0.37358583  1
  O  O326  1  0.57819082  0.09247770  0.70921524  1
  O  O327  1  0.58527055  0.58915995  0.03704128  1
  O  O328  1  0.58878377  0.59178704  0.37288804  1
  O  O329  1  0.58156958  0.58671154  0.70760557  1
  O  O330  1  0.41283292  0.41257810  0.12261115  1
  O  O331  1  0.41856558  0.41444546  0.46587450  1
  O  O332  1  0.41714696  0.42043243  0.79768426  1
  O  O333  1  0.42267330  0.91844884  0.13841383  1
  O  O334  1  0.41278590  0.91238602  0.46424695  1
  O  O335  1  0.40678818  0.91239107  0.79868937  1
  O  O336  1  0.92165327  0.45130955  0.11567014  1
  O  O337  1  0.90530400  0.42424009  0.45324971  1
  O  O338  1  0.90816562  0.41893254  0.78954550  1
  O  O339  1  0.90608970  0.89254530  0.11846555  1
  O  O340  1  0.91068341  0.90935407  0.46861962  1
  O  O341  1  0.91719376  0.91044554  0.80538644  1
  O  O342  1  0.41429222  0.41141979  0.30103440  1
  O  O343  1  0.41652801  0.41308123  0.62739548  1
  O  O344  1  0.41937165  0.41306798  0.96007770  1
  O  O345  1  0.41431733  0.91438552  0.29761843  1
  O  O346  1  0.41087679  0.91698691  0.63710928  1
  O  O347  1  0.41044377  0.91129541  0.95955593  1
  O  O348  1  0.88980571  0.38816105  0.25648805  1
  O  O349  1  0.91813809  0.41734414  0.63359348  1
  O  O350  1  0.90368121  0.40539433  0.94217959  1
  O  O351  1  0.90044704  0.89974451  0.29205462  1
  O  O352  1  0.91237307  0.91260617  0.63490850  1
  O  O353  1  0.91627856  0.90399382  0.96241529  1
  O  O354  1  0.09871805  0.10801900  0.21387160  1
  O  O355  1  0.09106549  0.09118283  0.54090870  1
  O  O356  1  0.08672139  0.08928400  0.86395759  1
  O  O357  1  0.09774084  0.58654922  0.21277859  1
  O  O358  1  0.09104038  0.58262102  0.54360090  1
  O  O359  1  0.09109571  0.58498274  0.86718445  1
  O  O360  1  0.57606857  0.08126292  0.19245398  1
  O  O361  1  0.58557770  0.08363668  0.53393627  1
  O  O362  1  0.59298572  0.08929817  0.87904808  1
  O  O363  1  0.58186896  0.58888501  0.19537189  1
  O  O364  1  0.58667715  0.57392646  0.53829002  1
  O  O365  1  0.57956887  0.58061959  0.86699748  1
  O  O366  1  0.14064004  0.23829667  0.06203332  1
  O  O367  1  0.14656368  0.22221241  0.39540700  1
  O  O368  1  0.14137212  0.22136332  0.72195617  1
  O  O369  1  0.13963962  0.72932196  0.06078651  1
  O  O370  1  0.13515199  0.71562039  0.39551637  1
  O  O371  1  0.13694214  0.71646731  0.72437361  1
  O  O372  1  0.64406187  0.21160690  0.05202729  1
  O  O373  1  0.63858501  0.21803679  0.39400404  1
  O  O374  1  0.63706267  0.22369864  0.72886179  1
  O  O375  1  0.63360107  0.72519741  0.05957678  1
  O  O376  1  0.63518540  0.72589437  0.39042068  1
  O  O377  1  0.63344642  0.71950794  0.72423839  1
  O  O378  1  0.28122823  0.35942901  0.10673408  1
  O  O379  1  0.28472675  0.36356980  0.44826845  1
  O  O380  1  0.28440764  0.36356202  0.77617009  1
  O  O381  1  0.28596114  0.86485500  0.10591393  1
  O  O382  1  0.27735129  0.86201396  0.44270787  1
  O  O383  1  0.27189834  0.86079836  0.77342619  1
  O  O384  1  0.80379117  0.36456983  0.09030220  1
  O  O385  1  0.77541466  0.36768019  0.44136713  1
  O  O386  1  0.77653744  0.36044936  0.76771251  1
  O  O387  1  0.77538551  0.86886187  0.12399576  1
  O  O388  1  0.77609943  0.85782294  0.44575842  1
  O  O389  1  0.78002430  0.85834680  0.77428931  1
  O  O390  1  0.36188969  0.27663093  0.27903980  1
  O  O391  1  0.36812251  0.27988400  0.61510041  1
  O  O392  1  0.36098581  0.28111438  0.93961112  1
  O  O393  1  0.35649280  0.78154709  0.27587938  1
  O  O394  1  0.35688820  0.78085220  0.60591546  1
  O  O395  1  0.35913648  0.77744789  0.94111781  1
  O  O396  1  0.87893254  0.26514133  0.28038819  1
  O  O397  1  0.86474117  0.28294422  0.61034973  1
  O  O398  1  0.86232213  0.27354395  0.93526641  1
  O  O399  1  0.86208974  0.76218221  0.26689202  1
  O  O400  1  0.85992903  0.77711739  0.60851551  1
  O  O401  1  0.86021594  0.76976130  0.93256403  1
  O  O402  1  0.23314994  0.13984296  0.22360223  1
  O  O403  1  0.22637512  0.13909666  0.56220895  1
  O  O404  1  0.22208954  0.13858083  0.88770901  1
  O  O405  1  0.23209212  0.62987225  0.22633004  1
  O  O406  1  0.22323575  0.63937125  0.56444122  1
  O  O407  1  0.22641665  0.63717096  0.89378092  1
  O  O408  1  0.71168498  0.14099417  0.22995924  1
  O  O409  1  0.71819532  0.13917300  0.55467729  1
  O  O410  1  0.72637448  0.13750225  0.89662350  1
  O  O411  1  0.71679001  0.64061661  0.21791474  1
  O  O412  1  0.71844450  0.63558591  0.56090265  1
  O  O413  1  0.71098027  0.63594049  0.88142000  1
  O  O414  1  0.49301281  0.33321523  0.02804050  1
  O  O415  1  0.49376893  0.32909516  0.36233311  1
  O  O416  1  0.49781501  0.34105021  0.69918303  1
  O  O417  1  0.48931091  0.83376372  0.02883218  1
  O  O418  1  0.48827807  0.83191671  0.36317809  1
  O  O419  1  0.48679586  0.83124361  0.69753766  1
  O  O420  1  0.99005223  0.34119555  0.02199089  1
  O  O421  1  0.99470986  0.36141994  0.35290679  1
  O  O422  1  0.99386182  0.33918046  0.70255172  1
  O  O423  1  0.98780209  0.82068023  0.02944647  1
  O  O424  1  0.98823190  0.82496678  0.35827696  1
  O  O425  1  0.99013169  0.83012128  0.69778783  1
  O  O426  1  0.16064158  0.01157470  0.14022717  1
  O  O427  1  0.16692077  0.01257336  0.46849703  1
  O  O428  1  0.16314925  0.01020163  0.79510578  1
  O  O429  1  0.16888373  0.50386985  0.13743174  1
  O  O430  1  0.17311080  0.50926221  0.47416383  1
  O  O431  1  0.17310620  0.50669305  0.80464872  1
  O  O432  1  0.66863678  0.00971322  0.13947511  1
  O  O433  1  0.66586147  0.00716406  0.46728058  1
  O  O434  1  0.66796476  0.00578078  0.81022535  1
  O  O435  1  0.66134201  0.50791602  0.13410901  1
  O  O436  1  0.66898162  0.50628601  0.46932483  1
  O  O437  1  0.65751992  0.50373824  0.79751219  1
  O  O438  1  0.01630709  0.17980340  0.30238285  1
  O  O439  1  0.00854750  0.17508842  0.63409217  1
  O  O440  1  0.01304429  0.17607194  0.97393687  1
  O  O441  1  0.00388721  0.66013241  0.30928239  1
  O  O442  1  0.00687181  0.66382647  0.63510728  1
  O  O443  1  0.01354565  0.66414638  0.96792185  1
  O  O444  1  0.50844888  0.16342382  0.30406370  1
  O  O445  1  0.50699331  0.17374369  0.63888713  1
  O  O446  1  0.50911189  0.16597635  0.96936015  1
  O  O447  1  0.50714280  0.66487794  0.29995253  1
  O  O448  1  0.49992653  0.66214473  0.64011105  1
  O  O449  1  0.50539251  0.66599913  0.96916595  1
  O  O450  1  0.33709126  0.48864902  0.19628121  1
  O  O451  1  0.34153871  0.49517809  0.53240014  1
  O  O452  1  0.33709970  0.49376801  0.86683419  1
  O  O453  1  0.33591971  0.99468903  0.19664656  1
  O  O454  1  0.33304077  0.99243371  0.52920958  1
  O  O455  1  0.32594676  0.99173433  0.86237778  1
  O  O456  1  0.82472970  0.49507060  0.17937156  1
  O  O457  1  0.83360932  0.49467546  0.53347960  1
  O  O458  1  0.82353567  0.49283459  0.85451687  1
  O  O459  1  0.85328739  0.99721637  0.19234091  1
  O  O460  1  0.83212059  0.98886355  0.53457106  1
  O  O461  1  0.83230945  0.98727014  0.86564995  1
