# generated using pymatgen
data_Na31Fe20(SO4)36
_symmetry_space_group_name_H-M   'P 1'
_cell_length_a   18.07564627
_cell_length_b   18.07487609
_cell_length_c   19.70382074
_cell_angle_alpha   107.59275410
_cell_angle_beta   107.58997381
_cell_angle_gamma   90.73029034
_symmetry_Int_Tables_number   1
_chemical_formula_structural   Na31Fe20(SO4)36
_chemical_formula_sum   'Na62 Fe40 S72 O288'
_cell_volume   5811.02208997
_cell_formula_units_Z   2
loop_
 _symmetry_equiv_pos_site_id
 _symmetry_equiv_pos_as_xyz
  1  'x, y, z'
loop_
 _atom_site_type_symbol
 _atom_site_label
 _atom_site_symmetry_multiplicity
 _atom_site_fract_x
 _atom_site_fract_y
 _atom_site_fract_z
 _atom_site_occupancy
  Na  Na0  1  0.14200682  0.34694665  0.07675643  1
  Na  Na1  1  0.13580556  0.36729344  0.41564902  1
  Na  Na2  1  0.13219379  0.36412527  0.75511306  1
  Na  Na3  1  0.13375833  0.86793144  0.08997360  1
  Na  Na4  1  0.16191761  0.86955969  0.44305008  1
  Na  Na5  1  0.12836034  0.85974325  0.74595313  1
  Na  Na6  1  0.63569912  0.37359041  0.08916937  1
  Na  Na7  1  0.63445182  0.36761928  0.41528421  1
  Na  Na8  1  0.64942386  0.37039031  0.76444442  1
  Na  Na9  1  0.63801026  0.87043024  0.09126438  1
  Na  Na10  1  0.62714287  0.86430378  0.41007587  1
  Na  Na11  1  0.63404128  0.86270751  0.74184698  1
  Na  Na12  1  0.36229158  0.12986669  0.24534598  1
  Na  Na13  1  0.35307925  0.12266702  0.57243297  1
  Na  Na14  1  0.36415064  0.14331500  0.92835817  1
  Na  Na15  1  0.38734588  0.62746899  0.25091744  1
  Na  Na16  1  0.36402742  0.64960460  0.58508644  1
  Na  Na17  1  0.37173055  0.63464588  0.92071839  1
  Na  Na18  1  0.86737858  0.13615663  0.25295825  1
  Na  Na19  1  0.86873754  0.13870186  0.58849261  1
  Na  Na20  1  0.86373793  0.13273275  0.91263145  1
  Na  Na21  1  0.84980831  0.62639248  0.23234036  1
  Na  Na22  1  0.87392058  0.64810977  0.59857461  1
  Na  Na23  1  0.86543847  0.62916127  0.92092685  1
  Na  Na24  1  0.44897429  0.01089097  0.74169109  1
  Na  Na25  1  0.99118470  0.00728892  0.09510908  1
  Na  Na26  1  0.49147245  -0.00563372  0.11270937  1
  Na  Na27  1  0.99125150  0.00704683  0.74894931  1
  Na  Na28  1  0.48414961  0.01663826  0.40599638  1
  Na  Na29  1  1.04495699  -0.01970490  0.36723793  1
  Na  Na30  1  0.99094826  0.50833826  0.75330369  1
  Na  Na31  1  0.49934488  0.50308249  0.73540927  1
  Na  Na32  1  0.98910907  0.51276871  0.40859343  1
  Na  Na33  1  0.50283062  0.99108413  0.58804138  1
  Na  Na34  1  0.57143988  0.49602381  0.96554427  1
  Na  Na35  1  0.00802126  0.48932494  0.58046243  1
  Na  Na36  1  -0.00471942  0.51264681  0.22265383  1
  Na  Na37  1  -0.00439593  0.46107112  0.91467296  1
  Na  Na38  1  0.00715425  0.95895579  0.90790870  1
  Na  Na39  1  0.01579364  0.99390610  0.57099476  1
  Na  Na40  1  0.50750025  0.98742278  0.92056873  1
  Na  Na41  1  0.48609845  0.54468644  0.51853906  1
  Na  Na42  1  0.25927854  0.77237132  0.64640294  1
  Na  Na43  1  0.25899644  0.25352399  0.32312170  1
  Na  Na44  1  0.72889801  0.73652631  0.33712880  1
  Na  Na45  1  0.74036448  0.72984128  0.01221362  1
  Na  Na46  1  0.24119405  0.74265500  0.00279680  1
  Na  Na47  1  0.76636286  0.26414905  0.66014350  1
  Na  Na48  1  0.24008360  0.24011281  0.67232989  1
  Na  Na49  1  0.76281129  0.26920206  -0.00428635  1
  Na  Na50  1  0.74201850  0.74232463  0.67272626  1
  Na  Na51  1  0.24775398  0.74701931  0.34355778  1
  Na  Na52  1  0.74491845  0.74028816  0.83863868  1
  Na  Na53  1  0.24578211  0.74248082  0.17285673  1
  Na  Na54  1  0.78176430  0.27281772  0.83024302  1
  Na  Na55  1  0.71763166  0.72250074  0.17080359  1
  Na  Na56  1  0.25129281  0.75201841  0.83266235  1
  Na  Na57  1  0.23814052  0.23444619  0.49922589  1
  Na  Na58  1  0.74830604  0.24821557  0.17142074  1
  Na  Na59  1  0.75990266  0.25937671  0.48622499  1
  Na  Na60  1  0.23806513  0.24219275  0.85148406  1
  Na  Na61  1  0.73878402  0.74192574  0.50946060  1
  Fe  Fe62  1  0.96394835  0.80936862  0.12259887  1
  Fe  Fe63  1  0.46690309  0.80465702  0.78043101  1
  Fe  Fe64  1  0.97145393  0.30370092  0.11960569  1
  Fe  Fe65  1  0.46179097  0.31417551  0.12442157  1
  Fe  Fe66  1  0.47037182  0.79839931  0.45815514  1
  Fe  Fe67  1  0.46514585  0.80466222  0.13004032  1
  Fe  Fe68  1  0.46447900  0.31001781  0.45266463  1
  Fe  Fe69  1  0.96024351  0.80609686  0.44986195  1
  Fe  Fe70  1  0.46501354  0.30977669  0.78958592  1
  Fe  Fe71  1  0.96084632  0.30720569  0.44773516  1
  Fe  Fe72  1  0.19071371  0.03896739  0.04974022  1
  Fe  Fe73  1  0.19337260  0.53528763  0.71455131  1
  Fe  Fe74  1  0.69451830  0.03493516  0.04985617  1
  Fe  Fe75  1  0.19737148  0.03110586  0.71256567  1
  Fe  Fe76  1  0.69290462  0.53354896  0.71192200  1
  Fe  Fe77  1  0.68331739  0.53562610  0.37459328  1
  Fe  Fe78  1  0.68959792  0.03758059  0.37901156  1
  Fe  Fe79  1  0.19078371  0.53779752  0.37777468  1
  Fe  Fe80  1  0.19263000  0.53441909  0.04569285  1
  Fe  Fe81  1  0.69259335  0.03804063  0.71739440  1
  Fe  Fe82  1  0.03153468  0.68997306  0.20999684  1
  Fe  Fe83  1  0.53379781  0.69307097  0.87878020  1
  Fe  Fe84  1  0.53418607  0.19465638  0.21718099  1
  Fe  Fe85  1  0.03070601  0.69591332  0.54796825  1
  Fe  Fe86  1  0.53271903  0.18963743  0.88181251  1
  Fe  Fe87  1  0.53416522  0.19569521  0.54936568  1
  Fe  Fe88  1  0.03964609  0.19291852  0.21639709  1
  Fe  Fe89  1  0.03557704  0.19619276  0.88089231  1
  Fe  Fe90  1  0.03204032  0.19132994  0.54368753  1
  Fe  Fe91  1  0.02918353  0.70236269  0.87794951  1
  Fe  Fe92  1  0.30829003  0.96625993  0.95793705  1
  Fe  Fe93  1  0.30018716  0.96704176  0.29324888  1
  Fe  Fe94  1  0.80681325  0.96706030  0.61653681  1
  Fe  Fe95  1  0.31478395  0.46405766  0.95756040  1
  Fe  Fe96  1  0.80578413  0.96466802  0.94945478  1
  Fe  Fe97  1  0.80901570  0.96620954  0.28515038  1
  Fe  Fe98  1  0.81143183  0.46446417  0.61785174  1
  Fe  Fe99  1  0.31054887  0.46634910  0.28395349  1
  Fe  Fe100  1  0.80458847  0.46173655  0.28083420  1
  Fe  Fe101  1  0.30433498  0.46551510  0.61760483  1
  S  S102  1  0.36215039  0.13833018  0.08611847  1
  S  S103  1  0.36019811  0.14259830  0.41789949  1
  S  S104  1  0.35737438  0.14682412  0.75446918  1
  S  S105  1  0.35431872  0.64098308  0.07981453  1
  S  S106  1  0.35437732  0.64000441  0.41396655  1
  S  S107  1  0.35737970  0.64202455  0.74669356  1
  S  S108  1  0.86098137  0.13905507  0.08319143  1
  S  S109  1  0.85736526  0.14030114  0.41609803  1
  S  S110  1  0.86000133  0.13846494  0.74998976  1
  S  S111  1  0.85969721  0.64238948  0.08349582  1
  S  S112  1  0.85891486  0.63890088  0.41545854  1
  S  S113  1  0.86002623  0.64116921  0.74948164  1
  S  S114  1  0.14511971  0.36054608  0.25231874  1
  S  S115  1  0.13912062  0.36068254  0.58253150  1
  S  S116  1  0.14269584  0.36335704  0.91658246  1
  S  S117  1  0.13802713  0.85328800  0.25283070  1
  S  S118  1  0.13431839  0.86083087  0.58444337  1
  S  S119  1  0.14411391  0.86148608  0.91769733  1
  S  S120  1  0.63960741  0.35581941  0.25249481  1
  S  S121  1  0.63988906  0.35846630  0.58323188  1
  S  S122  1  0.64200681  0.34578729  0.91096802  1
  S  S123  1  0.64092619  0.86640678  0.24923174  1
  S  S124  1  0.64187363  0.86532590  0.58258003  1
  S  S125  1  0.64061505  0.85965472  0.91579476  1
  S  S126  1  0.06368589  0.16036915  0.03787475  1
  S  S127  1  0.06595725  0.17652031  0.37776491  1
  S  S128  1  0.06806104  0.16467305  0.70850185  1
  S  S129  1  0.06784987  0.67113339  0.03900673  1
  S  S130  1  0.06299405  0.66837671  0.37290224  1
  S  S131  1  0.06799661  0.66657494  0.70899199  1
  S  S132  1  0.56741945  0.16630695  0.04337772  1
  S  S133  1  0.56669295  0.17200470  0.37911825  1
  S  S134  1  0.56561566  0.17020283  0.71006918  1
  S  S135  1  0.56636870  0.68087617  0.04486762  1
  S  S136  1  0.56926921  0.67675030  0.38152302  1
  S  S137  1  0.56356034  0.66655389  0.70545496  1
  S  S138  1  0.32815970  0.43296607  0.12261747  1
  S  S139  1  0.32824240  0.43495118  0.45659742  1
  S  S140  1  0.32701044  0.43274191  0.78789020  1
  S  S141  1  0.32516062  0.92826098  0.12623162  1
  S  S142  1  0.34343243  0.93161411  0.46276319  1
  S  S143  1  0.33004622  0.93247938  0.79384759  1
  S  S144  1  0.83384555  0.42286336  0.12688484  1
  S  S145  1  0.83488195  0.43746590  0.45953687  1
  S  S146  1  0.83428245  0.44068754  0.78745511  1
  S  S147  1  0.82957874  0.93330669  0.12163421  1
  S  S148  1  0.82884567  0.93365263  0.45490734  1
  S  S149  1  0.83017776  0.93574167  0.78842906  1
  S  S150  1  0.43052595  0.32699700  0.29126936  1
  S  S151  1  0.42875874  0.32759594  0.62323107  1
  S  S152  1  0.43458851  0.32904278  0.95856098  1
  S  S153  1  0.42622406  0.82848241  0.29424795  1
  S  S154  1  0.44121193  0.83312014  0.62494340  1
  S  S155  1  0.43543510  0.83353515  0.96002444  1
  S  S156  1  0.93618496  0.33020782  0.29032897  1
  S  S157  1  0.93866683  0.33223442  0.62236181  1
  S  S158  1  0.93871145  0.32495870  0.96015330  1
  S  S159  1  0.92709930  0.82690260  0.28836031  1
  S  S160  1  0.93211138  0.83556592  0.62269171  1
  S  S161  1  0.93424227  0.83416690  0.96082313  1
  S  S162  1  0.16990295  0.06490527  0.21030050  1
  S  S163  1  0.16289695  0.06614635  0.54142619  1
  S  S164  1  0.17066168  0.06684809  0.87611408  1
  S  S165  1  0.17199945  0.56751745  0.20903544  1
  S  S166  1  0.16707477  0.56847271  0.54172862  1
  S  S167  1  0.16707068  0.57023282  0.87366586  1
  S  S168  1  0.67170564  0.07197790  0.20909332  1
  S  S169  1  0.66961918  0.07223901  0.54282739  1
  S  S170  1  0.66602441  0.06363228  0.87621629  1
  S  S171  1  0.66896113  0.56077607  0.21393296  1
  S  S172  1  0.68209813  0.56829212  0.54601967  1
  S  S173  1  0.66077178  0.56701286  0.87096257  1
  O  O174  1  0.37477051  0.21605503  0.07881231  1
  O  O175  1  0.37116050  0.22241525  0.41046006  1
  O  O176  1  0.36616944  0.22944952  0.75411858  1
  O  O177  1  0.36372674  0.71954078  0.06959544  1
  O  O178  1  0.37168571  0.72122801  0.41136424  1
  O  O179  1  0.36663642  0.71985662  0.73596597  1
  O  O180  1  0.87067852  0.21768101  0.07591227  1
  O  O181  1  0.86442191  0.21942598  0.40869062  1
  O  O182  1  0.86544323  0.21476619  0.73972114  1
  O  O183  1  0.87542126  0.72343720  0.07697398  1
  O  O184  1  0.86713034  0.71633148  0.40398476  1
  O  O185  1  0.86721108  0.71450702  0.73432106  1
  O  O186  1  0.28466846  0.12777245  0.09513794  1
  O  O187  1  0.28520069  0.13311917  0.42905072  1
  O  O188  1  0.27857650  0.13542331  0.76251634  1
  O  O189  1  0.27127517  0.63414747  0.08255170  1
  O  O190  1  0.27058166  0.63525326  0.41144225  1
  O  O191  1  0.27724191  0.63287963  0.75214021  1
  O  O192  1  0.78256618  0.13038258  0.09267828  1
  O  O193  1  0.77840285  0.12932032  0.42427289  1
  O  O194  1  0.78328124  0.12756479  0.76370198  1
  O  O195  1  0.78573858  0.64361935  0.10044338  1
  O  O196  1  0.78015467  0.63071554  0.42295786  1
  O  O197  1  0.77907536  0.62954871  0.75451194  1
  O  O198  1  0.13364946  0.28240352  0.26204622  1
  O  O199  1  0.12959173  0.28084665  0.58840895  1
  O  O200  1  0.13509599  0.28174566  0.91877713  1
  O  O201  1  0.13072039  0.76890688  0.25024752  1
  O  O202  1  0.12110425  0.78273176  0.59534576  1
  O  O203  1  0.13347021  0.78112565  0.92265922  1
  O  O204  1  0.62967530  0.27810291  0.26248878  1
  O  O205  1  0.62983399  0.28020470  0.59336526  1
  O  O206  1  0.62970904  0.26276741  0.91127875  1
  O  O207  1  0.63731358  0.78806865  0.25564798  1
  O  O208  1  0.64292960  0.79051049  0.59642473  1
  O  O209  1  0.63227635  0.77973390  0.92102138  1
  O  O210  1  0.22620389  0.36948693  0.25098508  1
  O  O211  1  0.21748262  0.36874926  0.57257251  1
  O  O212  1  0.22279689  0.37478531  0.90925386  1
  O  O213  1  0.21640078  0.86566239  0.24406878  1
  O  O214  1  0.21102868  0.86679091  0.57601385  1
  O  O215  1  0.22625704  0.86972361  0.91475830  1
  O  O216  1  0.71909590  0.36378156  0.24530133  1
  O  O217  1  0.71932801  0.36428809  0.57487096  1
  O  O218  1  0.71611987  0.35415748  0.89702826  1
  O  O219  1  0.71608058  0.88044677  0.23394567  1
  O  O220  1  0.71669204  0.88087227  0.56790449  1
  O  O221  1  0.71860291  0.86897689  0.90548889  1
  O  O222  1  0.42311054  0.12599577  0.15208695  1
  O  O223  1  0.42403026  0.13322248  0.48371286  1
  O  O224  1  0.41635536  0.13465356  0.82198439  1
  O  O225  1  0.40976966  0.63335435  0.14641182  1
  O  O226  1  0.40440481  0.62823224  0.48233424  1
  O  O227  1  0.41413762  0.63768546  0.81721009  1
  O  O228  1  0.92121159  0.12917193  0.15002959  1
  O  O229  1  0.91558552  0.13327305  0.48504892  1
  O  O230  1  0.92198993  0.12833747  0.81542901  1
  O  O231  1  0.92255667  0.63178131  0.15036762  1
  O  O232  1  0.91805425  0.63402386  0.48591245  1
  O  O233  1  0.91592146  0.63968179  0.82256074  1
  O  O234  1  0.36861894  0.07823303  0.01678410  1
  O  O235  1  0.36775303  0.08410605  0.34851975  1
  O  O236  1  0.36599345  0.09262506  0.68614004  1
  O  O237  1  0.35896556  0.58163426  0.00933638  1
  O  O238  1  0.36450037  0.58344539  0.34563891  1
  O  O239  1  0.36792891  0.58073602  0.68111160  1
  O  O240  1  0.86685332  0.07957634  0.01416378  1
  O  O241  1  0.86639297  0.08189722  0.34825255  1
  O  O242  1  0.86613537  0.07692977  0.68110343  1
  O  O243  1  0.85966276  0.58431015  0.01455127  1
  O  O244  1  0.87182869  0.57765740  0.35113519  1
  O  O245  1  0.87589521  0.57617994  0.68853681  1
  O  O246  1  0.08922622  0.36520354  0.18145057  1
  O  O247  1  0.07914081  0.37292869  0.51715711  1
  O  O248  1  0.08356220  0.37764195  0.85383039  1
  O  O249  1  0.07836883  0.86477047  0.18617072  1
  O  O250  1  0.07303316  0.86875967  0.51662570  1
  O  O251  1  0.08862094  0.87261068  0.85122732  1
  O  O252  1  0.58141292  0.36039488  0.18240839  1
  O  O253  1  0.58168291  0.36518054  0.51423289  1
  O  O254  1  0.57849572  0.36100147  0.84742306  1
  O  O255  1  0.57658887  0.87744061  0.18588514  1
  O  O256  1  0.57808377  0.86772075  0.51374971  1
  O  O257  1  0.57995738  0.87077038  0.85004063  1
  O  O258  1  0.13231171  0.42118951  0.31776591  1
  O  O259  1  0.13357200  0.41870160  0.65240994  1
  O  O260  1  0.13770634  0.41802406  0.98905531  1
  O  O261  1  0.13128570  0.90359620  0.32341276  1
  O  O262  1  0.12576335  0.92114934  0.65225583  1
  O  O263  1  0.13580517  0.91877303  0.98721334  1
  O  O264  1  0.63166743  0.41643221  0.31931389  1
  O  O265  1  0.63192493  0.41822353  0.65038842  1
  O  O266  1  0.63845051  0.39766553  0.98268500  1
  O  O267  1  0.63792557  0.92458380  0.32089778  1
  O  O268  1  0.63023767  0.92766777  0.64749060  1
  O  O269  1  0.63412233  0.91733444  0.98553486  1
  O  O270  1  0.03117160  0.19371892  0.10224629  1
  O  O271  1  0.02551485  0.20847391  0.43692268  1
  O  O272  1  0.03442020  0.18890224  0.76966994  1
  O  O273  1  0.03263106  0.69791166  0.10068682  1
  O  O274  1  0.02830679  0.69865176  0.43523163  1
  O  O275  1  0.03307429  0.68913129  0.76932480  1
  O  O276  1  0.53329294  0.19555307  0.10525271  1
  O  O277  1  0.52957681  0.20371896  0.43954714  1
  O  O278  1  0.52412874  0.19678641  0.76716764  1
  O  O279  1  0.52490991  0.71304357  0.09950291  1
  O  O280  1  0.53139229  0.70834069  0.44206533  1
  O  O281  1  0.52974285  0.70034346  0.76965778  1
  O  O282  1  0.29916384  0.47298177  0.06321541  1
  O  O283  1  0.29978477  0.47394936  0.39766256  1
  O  O284  1  0.29759367  0.47271252  0.72842314  1
  O  O285  1  0.29904536  0.96812429  0.06724742  1
  O  O286  1  0.32481028  0.96726189  0.40172871  1
  O  O287  1  0.30234726  0.97026841  0.73522441  1
  O  O288  1  0.80766148  0.44740563  0.06192124  1
  O  O289  1  0.80184185  0.46893339  0.39653396  1
  O  O290  1  0.79337885  0.46911297  0.72075292  1
  O  O291  1  0.79907401  0.97087364  0.06073282  1
  O  O292  1  0.80051174  0.96911061  0.39314504  1
  O  O293  1  0.79074027  0.96800037  0.72555759  1
  O  O294  1  0.46779248  0.29640194  0.23018780  1
  O  O295  1  0.46675277  0.30105050  0.56299650  1
  O  O296  1  0.47393041  0.29758078  0.89956890  1
  O  O297  1  0.46316846  0.80543528  0.23523334  1
  O  O298  1  0.47225823  0.79798789  0.56161215  1
  O  O299  1  0.47126100  0.80466580  0.89810903  1
  O  O300  1  0.97484862  0.30000267  0.23113431  1
  O  O301  1  0.96803464  0.29817106  0.55583197  1
  O  O302  1  0.97441134  0.29192663  0.89975175  1
  O  O303  1  0.96667454  0.79681340  0.22983879  1
  O  O304  1  0.95974278  0.79825922  0.55535382  1
  O  O305  1  0.97246239  0.80859952  0.90237133  1
  O  O306  1  0.19652540  0.02510779  0.26687132  1
  O  O307  1  0.18732089  0.03816783  0.60735507  1
  O  O308  1  0.19828861  0.03023659  0.93771213  1
  O  O309  1  0.20112242  0.52687071  0.26717908  1
  O  O310  1  0.19628337  0.52959163  0.60120855  1
  O  O311  1  0.19443750  0.53383691  0.93395853  1
  O  O312  1  0.70294976  0.03933270  0.27218599  1
  O  O313  1  0.70096030  0.04040942  0.60656070  1
  O  O314  1  0.69678239  0.02709967  0.93765436  1
  O  O315  1  0.70923815  0.52471981  0.27764156  1
  O  O316  1  0.71232910  0.52675976  0.60431887  1
  O  O317  1  0.67685502  0.53480453  0.93193259  1
  O  O318  1  0.07454625  0.07592955  0.03199491  1
  O  O319  1  0.08757555  0.09997219  0.37844249  1
  O  O320  1  0.08531511  0.08092457  0.69733212  1
  O  O321  1  0.08612839  0.58926318  0.02895457  1
  O  O322  1  0.08004922  0.58566049  0.36887650  1
  O  O323  1  0.08437706  0.58199360  0.69545813  1
  O  O324  1  0.58527173  0.08349589  0.03661816  1
  O  O325  1  0.58350358  0.09071208  0.37729493  1
  O  O326  1  0.58436089  0.08824429  0.70564867  1
  O  O327  1  0.59352569  0.60770752  0.05265394  1
  O  O328  1  0.59589855  0.60124469  0.38996699  1
  O  O329  1  0.58665577  0.58739182  0.70669615  1
  O  O330  1  0.40753185  0.41236670  0.12369553  1
  O  O331  1  0.41017349  0.41742639  0.46254380  1
  O  O332  1  0.40726449  0.41399139  0.78950976  1
  O  O333  1  0.40559429  0.90747445  0.12922624  1
  O  O334  1  0.42452615  0.90293485  0.47037850  1
  O  O335  1  0.41268136  0.91383675  0.79798005  1
  O  O336  1  0.91733344  0.40230039  0.14061307  1
  O  O337  1  0.91679233  0.41850089  0.46017807  1
  O  O338  1  0.91492340  0.42943831  0.78642372  1
  O  O339  1  0.91137133  0.91772899  0.12614742  1
  O  O340  1  0.91064914  0.91503165  0.46158260  1
  O  O341  1  0.91214931  0.93007134  0.79191203  1
  O  O342  1  0.40824779  0.40518223  0.29162913  1
  O  O343  1  0.40750655  0.40848206  0.62808206  1
  O  O344  1  0.41816343  0.40984244  0.95987688  1
  O  O345  1  0.40740291  0.91078996  0.30508842  1
  O  O346  1  0.43554922  0.91661701  0.63515568  1
  O  O347  1  0.41910475  0.91673339  0.96634282  1
  O  O348  1  0.91656744  0.41129850  0.29507469  1
  O  O349  1  0.91995712  0.41416874  0.62312523  1
  O  O350  1  0.92040110  0.40341757  0.96204891  1
  O  O351  1  0.91247794  0.90937179  0.29280632  1
  O  O352  1  0.91569137  0.91781980  0.62317173  1
  O  O353  1  0.91608926  0.91741786  0.96659278  1
  O  O354  1  0.08871017  0.08678540  0.20545420  1
  O  O355  1  0.07957102  0.08679350  0.53093638  1
  O  O356  1  0.08846458  0.08485155  0.86913200  1
  O  O357  1  0.09199140  0.58741969  0.20892770  1
  O  O358  1  0.08369070  0.58334460  0.53549763  1
  O  O359  1  0.08678646  0.59276552  0.86799785  1
  O  O360  1  0.59047952  0.09049959  0.20507347  1
  O  O361  1  0.58656305  0.08722180  0.53635558  1
  O  O362  1  0.58309979  0.07823582  0.87104306  1
  O  O363  1  0.59346998  0.57874037  0.22050907  1
  O  O364  1  0.60679171  0.59255122  0.54885874  1
  O  O365  1  0.57675747  0.58692855  0.85227783  1
  O  O366  1  0.13684389  0.20546605  0.05095775  1
  O  O367  1  0.13466145  0.23286401  0.39467462  1
  O  O368  1  0.14003332  0.21705613  0.72531091  1
  O  O369  1  0.13907946  0.72522595  0.05753051  1
  O  O370  1  0.13248976  0.71949587  0.38566863  1
  O  O371  1  0.13974777  0.71802262  0.72612409  1
  O  O372  1  0.63823780  0.21711242  0.05652325  1
  O  O373  1  0.63787489  0.22303254  0.39489846  1
  O  O374  1  0.63670014  0.22268506  0.72811759  1
  O  O375  1  0.63405066  0.73803957  0.05806542  1
  O  O376  1  0.64007165  0.73285736  0.40014378  1
  O  O377  1  0.63419501  0.72012623  0.72122078  1
  O  O378  1  0.27446770  0.36495027  0.10783065  1
  O  O379  1  0.27633891  0.36316121  0.43871903  1
  O  O380  1  0.27266143  0.36251774  0.76897171  1
  O  O381  1  0.27078546  0.85790451  0.10725529  1
  O  O382  1  0.28637139  0.86391250  0.44413629  1
  O  O383  1  0.27859407  0.86027454  0.77692293  1
  O  O384  1  0.78290852  0.35436863  0.12271504  1
  O  O385  1  0.78557897  0.36818116  0.45169842  1
  O  O386  1  0.78784020  0.36496364  0.77206781  1
  O  O387  1  0.77842561  0.86178729  0.10416782  1
  O  O388  1  0.77666127  0.86314460  0.43977620  1
  O  O389  1  0.78519745  0.86115103  0.77602819  1
  O  O390  1  0.36410062  0.27112387  0.27851373  1
  O  O391  1  0.35922990  0.27300307  0.60651856  1
  O  O392  1  0.36264088  0.27766462  0.94043276  1
  O  O393  1  0.35588775  0.77447189  0.27683982  1
  O  O394  1  0.36689777  0.78831690  0.61238003  1
  O  O395  1  0.36303615  0.78236175  0.94194589  1
  O  O396  1  0.86681013  0.27674732  0.27450486  1
  O  O397  1  0.86570191  0.28275395  0.60796708  1
  O  O398  1  0.86754795  0.27139741  0.94555544  1
  O  O399  1  0.85481597  0.77692761  0.27142474  1
  O  O400  1  0.85922723  0.78854678  0.61154148  1
  O  O401  1  0.86259024  0.78293216  0.94434842  1
  O  O402  1  0.22338235  0.13450794  0.22565320  1
  O  O403  1  0.21524797  0.13794550  0.55679351  1
  O  O404  1  0.22373389  0.13671750  0.89304332  1
  O  O405  1  0.22557213  0.63811642  0.22734793  1
  O  O406  1  0.21765388  0.64050588  0.56001121  1
  O  O407  1  0.22250159  0.63873396  0.88760389  1
  O  O408  1  0.72350978  0.13979337  0.21825631  1
  O  O409  1  0.71942084  0.14406580  0.55582032  1
  O  O410  1  0.71750503  0.13471251  0.89304944  1
  O  O411  1  0.72339594  0.63311439  0.23272407  1
  O  O412  1  0.73938150  0.63718114  0.56442431  1
  O  O413  1  0.71474159  0.63843846  0.88814767  1
  O  O414  1  0.49147396  0.33033624  0.03182597  1
  O  O415  1  0.49243607  0.33419349  0.36444716  1
  O  O416  1  0.48878607  0.33240395  0.69617497  1
  O  O417  1  0.49293387  0.83653791  0.03300090  1
  O  O418  1  0.48549614  0.82643669  0.36676106  1
  O  O419  1  0.49994860  0.82713511  0.69620345  1
  O  O420  1  0.99810219  0.32572651  0.03348377  1
  O  O421  1  0.99548724  0.33609776  0.36449701  1
  O  O422  1  0.99987461  0.33711457  0.69135939  1
  O  O423  1  0.99228927  0.83910468  0.03554521  1
  O  O424  1  0.98602923  0.82971799  0.36162675  1
  O  O425  1  0.99465543  0.84040665  0.69133633  1
  O  O426  1  0.16253990  0.00743799  0.13383028  1
  O  O427  1  0.16187749  0.00395497  0.47334916  1
  O  O428  1  0.16887530  0.00691445  0.80364816  1
  O  O429  1  0.16662690  0.51055690  0.13499520  1
  O  O430  1  0.16542879  0.51063151  0.46842551  1
  O  O431  1  0.16213649  0.50932901  0.80032871  1
  O  O432  1  0.66524010  0.00806644  0.13683736  1
  O  O433  1  0.66817814  0.01109314  0.47164623  1
  O  O434  1  0.66445670  0.00474535  0.80372644  1
  O  O435  1  0.66906189  0.50368496  0.14341281  1
  O  O436  1  0.67821599  0.51002331  0.47223311  1
  O  O437  1  0.66382077  0.50725893  0.79934700  1
  O  O438  1  0.00739556  0.17324851  0.30381250  1
  O  O439  1  0.00907306  0.16611902  0.63652436  1
  O  O440  1  0.00332564  0.16004992  0.96668668  1
  O  O441  1  0.00150903  0.66165169  0.29977025  1
  O  O442  1  0.00884370  0.66843615  0.63739442  1
  O  O443  1  0.00870039  0.67399595  0.96833636  1
  O  O444  1  0.50786687  0.16801492  0.30595911  1
  O  O445  1  0.50776523  0.16546439  0.63560868  1
  O  O446  1  0.50621527  0.16220951  0.97089731  1
  O  O447  1  0.51411552  0.66770386  0.30848586  1
  O  O448  1  0.50227721  0.65759636  0.63453165  1
  O  O449  1  0.51009281  0.66856918  0.96639818  1
  O  O450  1  0.33392684  0.49367302  0.19594010  1
  O  O451  1  0.33008416  0.49312025  0.53002299  1
  O  O452  1  0.32962208  0.49023672  0.86103277  1
  O  O453  1  0.32768008  0.98565436  0.19939091  1
  O  O454  1  0.35136833  0.99236048  0.53394706  1
  O  O455  1  0.33565954  0.99009818  0.86856092  1
  O  O456  1  0.83957972  0.48892222  0.19902588  1
  O  O457  1  0.84523031  0.49949189  0.53329353  1
  O  O458  1  0.83409650  0.49852261  0.85720651  1
  O  O459  1  0.83036675  0.99251621  0.19373306  1
  O  O460  1  0.83115865  0.99511461  0.52647887  1
  O  O461  1  0.82812844  0.99365232  0.86126611  1
