# generated using pymatgen
data_Na31Fe20(SO4)36
_symmetry_space_group_name_H-M   'P 1'
_cell_length_a   18.07999042
_cell_length_b   18.07714383
_cell_length_c   19.71543479
_cell_angle_alpha   107.58562500
_cell_angle_beta   107.60169663
_cell_angle_gamma   90.69177345
_symmetry_Int_Tables_number   1
_chemical_formula_structural   Na31Fe20(SO4)36
_chemical_formula_sum   'Na62 Fe40 S72 O288'
_cell_volume   5816.90519356
_cell_formula_units_Z   2
loop_
 _symmetry_equiv_pos_site_id
 _symmetry_equiv_pos_as_xyz
  1  'x, y, z'
loop_
 _atom_site_type_symbol
 _atom_site_label
 _atom_site_symmetry_multiplicity
 _atom_site_fract_x
 _atom_site_fract_y
 _atom_site_fract_z
 _atom_site_occupancy
  Na  Na0  1  0.13944921  0.37066779  0.08436095  1
  Na  Na1  1  0.13738638  0.37078629  0.41733732  1
  Na  Na2  1  0.13862952  0.36139886  0.75409826  1
  Na  Na3  1  0.13117072  0.85666184  0.07415042  1
  Na  Na4  1  0.13579314  0.86418888  0.41976358  1
  Na  Na5  1  0.13815227  0.87353242  0.76313480  1
  Na  Na6  1  0.63378586  0.35730755  0.07468526  1
  Na  Na7  1  0.63574856  0.36735302  0.41754019  1
  Na  Na8  1  0.68261970  0.35546570  0.77837118  1
  Na  Na9  1  0.62082395  0.86226070  0.06763718  1
  Na  Na10  1  0.63163250  0.86736637  0.41593213  1
  Na  Na11  1  0.63145645  0.86727326  0.74876266  1
  Na  Na12  1  0.35761010  0.13621705  0.23900046  1
  Na  Na13  1  0.36905326  0.13026043  0.58225826  1
  Na  Na14  1  0.36902995  0.14116960  0.93271867  1
  Na  Na15  1  0.35447191  0.62091389  0.23103958  1
  Na  Na16  1  0.35680506  0.62889500  0.57369355  1
  Na  Na17  1  0.36840775  0.63641304  0.92355933  1
  Na  Na18  1  0.87226959  0.12895957  0.24703786  1
  Na  Na19  1  0.87295177  0.16265307  0.61458485  1
  Na  Na20  1  0.85826660  0.13633125  0.90603551  1
  Na  Na21  1  0.86896509  0.63377073  0.25056991  1
  Na  Na22  1  0.86437992  0.64355524  0.58440424  1
  Na  Na23  1  0.85835594  0.63371919  0.91519812  1
  Na  Na24  1  0.51098721  0.46212953  0.13255448  1
  Na  Na25  1  0.95307923  0.50853595  0.06026941  1
  Na  Na26  1  0.48770423  0.51478670  0.39466699  1
  Na  Na27  1  0.99939669  0.01307730  0.40294131  1
  Na  Na28  1  1.00284704  0.54650605  0.42826160  1
  Na  Na29  1  0.49311697  0.00662059  0.74891019  1
  Na  Na30  1  1.01460725  0.49048964  0.75198775  1
  Na  Na31  1  0.49046807  0.00751003  0.42183462  1
  Na  Na32  1  0.48994672  0.54570727  0.76153565  1
  Na  Na33  1  0.46348121  1.00619816  0.95990133  1
  Na  Na34  1  0.51850388  0.48974387  0.58139340  1
  Na  Na35  1  0.00183096  0.97900319  0.60021234  1
  Na  Na36  1  0.50884237  0.50178772  0.92820025  1
  Na  Na37  1  0.01455271  0.99973082  0.90873389  1
  Na  Na38  1  0.48552471  1.01789886  0.19166167  1
  Na  Na39  1  0.04993946  0.49164991  0.25780513  1
  Na  Na40  1  -0.00552276  0.51679876  0.58337568  1
  Na  Na41  1  0.01869743  0.46605262  0.91539582  1
  Na  Na42  1  0.74413889  0.74904307  0.66833477  1
  Na  Na43  1  0.73634007  0.74027558  -0.00232489  1
  Na  Na44  1  0.75095210  0.25345514  0.33126600  1
  Na  Na45  1  0.25870155  0.25829855  0.31974138  1
  Na  Na46  1  0.24893510  0.24745860  0.66804018  1
  Na  Na47  1  0.75387881  0.75434095  0.33066393  1
  Na  Na48  1  0.23308508  0.74131242  0.67703893  1
  Na  Na49  1  0.76240060  0.26967923  -0.02206944  1
  Na  Na50  1  0.25189012  0.24418255  0.01886575  1
  Na  Na51  1  0.24195305  0.73530812  0.33617028  1
  Na  Na52  1  0.25633121  0.25389543  0.49313737  1
  Na  Na53  1  0.74816567  0.75578271  0.16275223  1
  Na  Na54  1  0.24519814  0.74116467  0.15585652  1
  Na  Na55  1  0.75796687  0.25787194  0.15965332  1
  Na  Na56  1  0.22646474  0.72616951  0.50625978  1
  Na  Na57  1  0.75379601  0.75717973  0.49761608  1
  Na  Na58  1  0.24196780  0.74680913  0.85236969  1
  Na  Na59  1  0.74606014  0.24414689  0.51536979  1
  Na  Na60  1  0.24861298  0.24264409  0.84485708  1
  Na  Na61  1  0.73466029  0.74449541  0.83850381  1
  Fe  Fe62  1  0.96429540  0.81318529  0.12196902  1
  Fe  Fe63  1  0.46484575  0.31058550  0.78794055  1
  Fe  Fe64  1  0.46669809  0.80341313  0.79059510  1
  Fe  Fe65  1  0.96069889  0.80570877  0.78634501  1
  Fe  Fe66  1  0.96699070  0.30888063  0.45005508  1
  Fe  Fe67  1  0.46270473  0.80835149  0.45164359  1
  Fe  Fe68  1  0.97026574  0.30459540  0.11664159  1
  Fe  Fe69  1  0.46663191  0.30718554  0.45177819  1
  Fe  Fe70  1  0.46616770  0.80210662  0.11334257  1
  Fe  Fe71  1  0.96727139  0.80387370  0.45739371  1
  Fe  Fe72  1  0.20092132  0.02919872  0.04568622  1
  Fe  Fe73  1  0.69845844  0.53116443  0.72226234  1
  Fe  Fe74  1  0.19096795  0.53537003  0.71593175  1
  Fe  Fe75  1  0.70372101  0.53079120  0.04465890  1
  Fe  Fe76  1  0.68936413  0.04171762  0.71553759  1
  Fe  Fe77  1  0.69175495  0.53582119  0.37803589  1
  Fe  Fe78  1  0.19126146  0.03275153  0.37488740  1
  Fe  Fe79  1  0.19871033  0.03277744  0.71530253  1
  Fe  Fe80  1  0.69047256  0.03777157  0.38070897  1
  Fe  Fe81  1  0.69013677  0.03710897  0.04575221  1
  Fe  Fe82  1  0.53270494  0.19752005  0.88355565  1
  Fe  Fe83  1  0.53449879  0.69382183  0.54588815  1
  Fe  Fe84  1  0.03601315  0.68842623  0.20962275  1
  Fe  Fe85  1  0.53742775  0.68968248  0.21106850  1
  Fe  Fe86  1  0.03928090  0.18212176  0.20449782  1
  Fe  Fe87  1  0.03274841  0.19270365  0.87094585  1
  Fe  Fe88  1  0.52795971  0.20582484  0.20954002  1
  Fe  Fe89  1  0.53794287  0.19743958  0.55491151  1
  Fe  Fe90  1  0.03353600  0.19555777  0.54701092  1
  Fe  Fe91  1  0.03225801  0.69093858  0.88396729  1
  Fe  Fe92  1  0.30078345  0.46626628  0.96231917  1
  Fe  Fe93  1  0.30680505  0.46631091  0.62001585  1
  Fe  Fe94  1  0.81310547  0.46373951  0.62161139  1
  Fe  Fe95  1  0.80773925  0.96926741  0.95486735  1
  Fe  Fe96  1  0.30698194  0.96061371  0.28094221  1
  Fe  Fe97  1  0.80426563  0.96699005  0.28609343  1
  Fe  Fe98  1  0.80500873  0.96812208  0.62288701  1
  Fe  Fe99  1  0.30842813  0.96146475  0.61622754  1
  Fe  Fe100  1  0.29557552  0.46679232  0.28498185  1
  Fe  Fe101  1  0.81193165  0.46572243  0.28788597  1
  S  S102  1  0.36562050  0.12892332  0.08288031  1
  S  S103  1  0.36222273  0.13844112  0.41741965  1
  S  S104  1  0.36214415  0.13895555  0.74776068  1
  S  S105  1  0.36585067  0.63664378  0.08464620  1
  S  S106  1  0.36037781  0.64004863  0.41516371  1
  S  S107  1  0.35389534  0.64192861  0.74813701  1
  S  S108  1  0.85990481  0.14219418  0.08216970  1
  S  S109  1  0.86003059  0.14165104  0.41702908  1
  S  S110  1  0.86103779  0.13774228  0.75078417  1
  S  S111  1  0.85750234  0.64959153  0.08780929  1
  S  S112  1  0.85799213  0.64093646  0.41937508  1
  S  S113  1  0.85628510  0.64145044  0.74708776  1
  S  S114  1  0.14068062  0.35307843  0.25077339  1
  S  S115  1  0.14260187  0.35795570  0.58343697  1
  S  S116  1  0.14041613  0.35305751  0.91173767  1
  S  S117  1  0.14021513  0.85682571  0.25112151  1
  S  S118  1  0.14118060  0.86108760  0.58281553  1
  S  S119  1  0.13076466  0.86239673  0.91634799  1
  S  S120  1  0.64574194  0.36301736  0.25076667  1
  S  S121  1  0.64247164  0.36114199  0.58358405  1
  S  S122  1  0.63798402  0.36139094  0.91816598  1
  S  S123  1  0.63824833  0.86253941  0.25072761  1
  S  S124  1  0.63655002  0.86440518  0.58319498  1
  S  S125  1  0.64055160  0.86441470  0.91306604  1
  S  S126  1  0.07398074  0.16779653  0.03820031  1
  S  S127  1  0.06888747  0.17082781  0.37438427  1
  S  S128  1  0.07240904  0.16610622  0.70734501  1
  S  S129  1  0.05115905  0.66438498  0.03976340  1
  S  S130  1  0.06278700  0.67333126  0.37409653  1
  S  S131  1  0.06099590  0.67026355  0.71269366  1
  S  S132  1  0.57051163  0.17091140  0.04328300  1
  S  S133  1  0.56815628  0.17400698  0.37661598  1
  S  S134  1  0.56624775  0.17092576  0.71079363  1
  S  S135  1  0.57170750  0.66676009  0.04358003  1
  S  S136  1  0.57027250  0.67287676  0.37628510  1
  S  S137  1  0.56524734  0.66592214  0.70471800  1
  S  S138  1  0.32881617  0.42710206  0.12816973  1
  S  S139  1  0.33266942  0.43160626  0.45770393  1
  S  S140  1  0.32938035  0.43491857  0.79213742  1
  S  S141  1  0.32487210  0.92300493  0.12552639  1
  S  S142  1  0.32932942  0.93135031  0.45281994  1
  S  S143  1  0.33488858  0.93544597  0.78856741  1
  S  S144  1  0.83706158  0.43414531  0.12781858  1
  S  S145  1  0.83271797  0.43537957  0.45744176  1
  S  S146  1  0.84583816  0.44588916  0.79141401  1
  S  S147  1  0.82179186  0.93103018  0.12187135  1
  S  S148  1  0.82854664  0.93348724  0.45888856  1
  S  S149  1  0.82485243  0.93015283  0.79024547  1
  S  S150  1  0.43183238  0.33252288  0.29709651  1
  S  S151  1  0.43333246  0.33176639  0.62548721  1
  S  S152  1  0.43254112  0.33425952  0.95734957  1
  S  S153  1  0.43245613  0.82728199  0.28919940  1
  S  S154  1  0.42887171  0.82386963  0.62110270  1
  S  S155  1  0.42960763  0.82466192  0.95268043  1
  S  S156  1  0.93595848  0.33047908  0.29041464  1
  S  S157  1  0.94108786  0.33774113  0.62058798  1
  S  S158  1  0.94229362  0.32437592  0.95702205  1
  S  S159  1  0.93099520  0.83300839  0.29413914  1
  S  S160  1  0.92891000  0.83354160  0.62620658  1
  S  S161  1  0.92429246  0.82991561  0.95645017  1
  S  S162  1  0.17355817  0.06415997  0.20930416  1
  S  S163  1  0.17023529  0.06911264  0.53958833  1
  S  S164  1  0.17236702  0.07252889  0.87753131  1
  S  S165  1  0.16608220  0.56251464  0.20246255  1
  S  S166  1  0.16547723  0.55933811  0.54645136  1
  S  S167  1  0.16912306  0.56588451  0.87557315  1
  S  S168  1  0.67385038  0.07311823  0.21173884  1
  S  S169  1  0.67079152  0.07047167  0.54180622  1
  S  S170  1  0.66689518  0.07236395  0.87614155  1
  S  S171  1  0.67706014  0.56737652  0.21030027  1
  S  S172  1  0.66692084  0.56694395  0.54036762  1
  S  S173  1  0.66735990  0.56030593  0.87659298  1
  O  O174  1  0.37025525  0.20638610  0.07508029  1
  O  O175  1  0.36959972  0.21945879  0.41368709  1
  O  O176  1  0.37071189  0.21634793  0.73645981  1
  O  O177  1  0.37942040  0.71338072  0.07373057  1
  O  O178  1  0.37404147  0.71743022  0.40431458  1
  O  O179  1  0.36596855  0.72040926  0.73994110  1
  O  O180  1  0.86804482  0.22219825  0.07604999  1
  O  O181  1  0.86857066  0.21872917  0.40522357  1
  O  O182  1  0.86828987  0.21210004  0.73929649  1
  O  O183  1  0.86170229  0.73288032  0.08832290  1
  O  O184  1  0.86496831  0.72163553  0.41372102  1
  O  O185  1  0.86545335  0.72043517  0.73806769  1
  O  O186  1  0.28892778  0.11484541  0.09650012  1
  O  O187  1  0.28374248  0.12732557  0.42603592  1
  O  O188  1  0.28282093  0.13129498  0.75552822  1
  O  O189  1  0.29308005  0.63233658  0.10128004  1
  O  O190  1  0.28617388  0.63651756  0.42961243  1
  O  O191  1  0.27107284  0.63547061  0.74933834  1
  O  O192  1  0.78276312  0.13188546  0.09354981  1
  O  O193  1  0.77963587  0.13198284  0.42176276  1
  O  O194  1  0.78620909  0.12215406  0.76476016  1
  O  O195  1  0.77922413  0.63567027  0.09652899  1
  O  O196  1  0.77691955  0.63112121  0.42440000  1
  O  O197  1  0.77679078  0.63478684  0.75510857  1
  O  O198  1  0.13027493  0.27099328  0.25235559  1
  O  O199  1  0.13181028  0.27795837  0.58988365  1
  O  O200  1  0.13351067  0.26773662  0.91119099  1
  O  O201  1  0.12858529  0.77819446  0.25968128  1
  O  O202  1  0.13662952  0.78287100  0.58874822  1
  O  O203  1  0.11827695  0.78670002  0.92951090  1
  O  O204  1  0.63175393  0.28422867  0.25825024  1
  O  O205  1  0.63362174  0.27943770  0.58402780  1
  O  O206  1  0.62329094  0.28544294  0.93213573  1
  O  O207  1  0.63023300  0.78467591  0.26174576  1
  O  O208  1  0.62871696  0.78544898  0.59277108  1
  O  O209  1  0.63872255  0.78713027  0.92188768  1
  O  O210  1  0.22332564  0.36520538  0.25218719  1
  O  O211  1  0.22278134  0.36509081  0.57718664  1
  O  O212  1  0.22253338  0.36436017  0.90903962  1
  O  O213  1  0.22108120  0.86368015  0.24734040  1
  O  O214  1  0.21620780  0.87460537  0.56718505  1
  O  O215  1  0.20237486  0.86677521  0.89795686  1
  O  O216  1  0.72929070  0.36763168  0.25035871  1
  O  O217  1  0.71891999  0.37224720  0.57083050  1
  O  O218  1  0.71508372  0.36378264  0.90955657  1
  O  O219  1  0.71843126  0.87035287  0.24409081  1
  O  O220  1  0.71466424  0.87220755  0.57242239  1
  O  O221  1  0.71826041  0.88069517  0.90314100  1
  O  O222  1  0.42736960  0.12504872  0.15410294  1
  O  O223  1  0.42322469  0.12947271  0.48446291  1
  O  O224  1  0.42090708  0.13199348  0.81619366  1
  O  O225  1  0.43087086  0.62633544  0.14929403  1
  O  O226  1  0.42494817  0.62904522  0.47921372  1
  O  O227  1  0.40791614  0.63023065  0.81486062  1
  O  O228  1  0.92103908  0.13428575  0.14904993  1
  O  O229  1  0.91738635  0.13686529  0.48723429  1
  O  O230  1  0.92476273  0.13047092  0.81904967  1
  O  O231  1  0.91690387  0.63848049  0.15480719  1
  O  O232  1  0.91534195  0.63009079  0.48499898  1
  O  O233  1  0.91480355  0.63306247  0.81424212  1
  O  O234  1  0.37407318  0.06849996  0.01795241  1
  O  O235  1  0.37063734  0.08144113  0.34871846  1
  O  O236  1  0.37046497  0.07774424  0.68070923  1
  O  O237  1  0.36718455  0.57567677  0.01455268  1
  O  O238  1  0.36327494  0.57830764  0.34535136  1
  O  O239  1  0.36391097  0.58258682  0.67953960  1
  O  O240  1  0.86484250  0.08456780  0.01222620  1
  O  O241  1  0.87174443  0.07990624  0.35178299  1
  O  O242  1  0.86825861  0.07438526  0.68376334  1
  O  O243  1  0.86688866  0.59706028  0.01951240  1
  O  O244  1  0.86664262  0.58471226  0.34954109  1
  O  O245  1  0.86255426  0.58389215  0.67741611  1
  O  O246  1  0.08688404  0.36170883  0.17991139  1
  O  O247  1  0.08546174  0.36621476  0.51478972  1
  O  O248  1  0.08498395  0.36309242  0.84431068  1
  O  O249  1  0.08442443  0.86357837  0.18114454  1
  O  O250  1  0.07740377  0.87268832  0.51863423  1
  O  O251  1  0.06465501  0.87426015  0.85304585  1
  O  O252  1  0.59407337  0.37396512  0.18284535  1
  O  O253  1  0.58012130  0.37451109  0.51947290  1
  O  O254  1  0.57754091  0.36935750  0.85075267  1
  O  O255  1  0.58042479  0.86946506  0.18203616  1
  O  O256  1  0.57663486  0.87025868  0.51494641  1
  O  O257  1  0.58017609  0.86869290  0.84369532  1
  O  O258  1  0.12543214  0.40835386  0.31509991  1
  O  O259  1  0.13437150  0.41570875  0.65167637  1
  O  O260  1  0.12948298  0.40462886  0.97987195  1
  O  O261  1  0.13078796  0.91659006  0.31820767  1
  O  O262  1  0.13609497  0.92031374  0.65298542  1
  O  O263  1  0.12853444  0.92519918  0.98578171  1
  O  O264  1  0.63821453  0.42134670  0.32008796  1
  O  O265  1  0.63734566  0.41614999  0.65448021  1
  O  O266  1  0.63120210  0.42409848  0.98573292  1
  O  O267  1  0.63115612  0.92287995  0.31839851  1
  O  O268  1  0.63057778  0.92381897  0.65145782  1
  O  O269  1  0.63049612  0.92406148  0.98013595  1
  O  O270  1  0.03114638  0.19399148  0.09513748  1
  O  O271  1  0.02932484  0.19932314  0.43355670  1
  O  O272  1  0.03489966  0.18645930  0.76656358  1
  O  O273  1  0.01907384  0.70630754  0.10346522  1
  O  O274  1  0.02586975  0.70408253  0.43349476  1
  O  O275  1  0.03028300  0.70252278  0.77844167  1
  O  O276  1  0.54002635  0.19816904  0.10629562  1
  O  O277  1  0.53050145  0.20388104  0.43699284  1
  O  O278  1  0.53077118  0.20409974  0.77227981  1
  O  O279  1  0.54474206  0.70367876  0.11134853  1
  O  O280  1  0.53537591  0.70536800  0.43802051  1
  O  O281  1  0.52773722  0.69402185  0.76288825  1
  O  O282  1  0.30790619  0.46533813  0.06921087  1
  O  O283  1  0.31134888  0.46659517  0.39710529  1
  O  O284  1  0.29976041  0.47163444  0.73062597  1
  O  O285  1  0.28899916  0.95266758  0.06285162  1
  O  O286  1  0.29921132  0.97004569  0.39344967  1
  O  O287  1  0.30040190  0.96777536  0.72289537  1
  O  O288  1  0.81033182  0.47238332  0.06939103  1
  O  O289  1  0.80278101  0.47264573  0.39734186  1
  O  O290  1  0.80070988  0.47440737  0.72319093  1
  O  O291  1  0.79458202  0.97089471  0.06293161  1
  O  O292  1  0.79949841  0.97016516  0.39781895  1
  O  O293  1  0.79317330  0.96253644  0.72701670  1
  O  O294  1  0.46781986  0.30539036  0.23766461  1
  O  O295  1  0.47159081  0.30098156  0.56554465  1
  O  O296  1  0.46176234  0.29794216  0.89030744  1
  O  O297  1  0.46975025  0.79959843  0.22915565  1
  O  O298  1  0.46638761  0.79643240  0.56002745  1
  O  O299  1  0.47050591  0.80554944  0.89507506  1
  O  O300  1  0.97087641  0.30272628  0.22868504  1
  O  O301  1  0.96959222  0.30133588  0.55339608  1
  O  O302  1  0.98030919  0.28738111  0.89876081  1
  O  O303  1  0.96826202  0.80727258  0.23433961  1
  O  O304  1  0.96378101  0.81005705  0.56539275  1
  O  O305  1  0.95665394  0.79441129  0.89364538  1
  O  O306  1  0.20317256  0.02376685  0.26853702  1
  O  O307  1  0.20004466  0.03455048  0.60131136  1
  O  O308  1  0.18884876  0.03669989  0.93754362  1
  O  O309  1  0.19598739  0.52591474  0.26431249  1
  O  O310  1  0.20295246  0.52361024  0.60877734  1
  O  O311  1  0.19873449  0.52882966  0.93375068  1
  O  O312  1  0.70174298  0.03327865  0.27135842  1
  O  O313  1  0.69805875  0.03467390  0.60337670  1
  O  O314  1  0.69833215  0.03841423  0.93851439  1
  O  O315  1  0.70684115  0.53088663  0.27174825  1
  O  O316  1  0.69313388  0.53232125  0.60204778  1
  O  O317  1  0.70739818  0.53389369  0.94086630  1
  O  O318  1  0.09473119  0.08720601  0.03459861  1
  O  O319  1  0.08774283  0.08987031  0.37247448  1
  O  O320  1  0.09192710  0.08365856  0.69286106  1
  O  O321  1  0.04890395  0.58142893  0.03293751  1
  O  O322  1  0.07659294  0.59192663  0.36878799  1
  O  O323  1  0.08362289  0.58953167  0.71128545  1
  O  O324  1  0.58567676  0.08685852  0.03093426  1
  O  O325  1  0.58395010  0.09177390  0.37195318  1
  O  O326  1  0.58041933  0.08860179  0.70808844  1
  O  O327  1  0.60160484  0.59107174  0.04844892  1
  O  O328  1  0.58777306  0.59189565  0.37512022  1
  O  O329  1  0.58713706  0.58471995  0.70236522  1
  O  O330  1  0.40902784  0.40858817  0.14368544  1
  O  O331  1  0.41618584  0.41352467  0.47265141  1
  O  O332  1  0.41279740  0.42099986  0.79918405  1
  O  O333  1  0.40459348  0.90180433  0.12578109  1
  O  O334  1  0.41104191  0.91532302  0.45613068  1
  O  O335  1  0.41263850  0.91051986  0.78422186  1
  O  O336  1  0.91890534  0.41487791  0.13352469  1
  O  O337  1  0.91507540  0.41913305  0.46270055  1
  O  O338  1  0.92714912  0.44227220  0.79054745  1
  O  O339  1  0.90024558  0.90824081  0.12456809  1
  O  O340  1  0.90974652  0.91396920  0.46454207  1
  O  O341  1  0.90642670  0.91226938  0.79708576  1
  O  O342  1  0.40232333  0.41010196  0.29975153  1
  O  O343  1  0.41715800  0.41397493  0.62973676  1
  O  O344  1  0.40681766  0.41129577  0.95271276  1
  O  O345  1  0.41460091  0.90984279  0.29781402  1
  O  O346  1  0.41357886  0.90675191  0.62931612  1
  O  O347  1  0.40445588  0.90225374  0.96369894  1
  O  O348  1  0.91967413  0.41332090  0.30087325  1
  O  O349  1  0.92391647  0.42001311  0.62173551  1
  O  O350  1  0.93000349  0.40397375  0.95588927  1
  O  O351  1  0.90993496  0.91442362  0.30100188  1
  O  O352  1  0.91010819  0.91598879  0.63601273  1
  O  O353  1  0.90784891  0.91054665  0.95725285  1
  O  O354  1  0.09327901  0.08174663  0.20635652  1
  O  O355  1  0.08805568  0.08749732  0.53220193  1
  O  O356  1  0.09028130  0.09519099  0.86359068  1
  O  O357  1  0.08558948  0.58433051  0.20565864  1
  O  O358  1  0.08678365  0.57604427  0.55054933  1
  O  O359  1  0.08750210  0.58594385  0.87273740  1
  O  O360  1  0.59674785  0.09908046  0.21266898  1
  O  O361  1  0.58995238  0.09188724  0.53610098  1
  O  O362  1  0.58479586  0.08966254  0.86996885  1
  O  O363  1  0.59538448  0.58395406  0.20528033  1
  O  O364  1  0.58264295  0.58145756  0.52868638  1
  O  O365  1  0.58454028  0.56670133  0.87068503  1
  O  O366  1  0.14197482  0.22323075  0.05644705  1
  O  O367  1  0.14039657  0.22333393  0.39305240  1
  O  O368  1  0.14361077  0.22026600  0.72733324  1
  O  O369  1  0.12846255  0.70495466  0.05596584  1
  O  O370  1  0.13665825  0.72359651  0.39201284  1
  O  O371  1  0.13054381  0.72348605  0.72605506  1
  O  O372  1  0.64269290  0.22010268  0.05617920  1
  O  O373  1  0.64141409  0.22496835  0.39578531  1
  O  O374  1  0.63730424  0.21855152  0.72228379  1
  O  O375  1  0.63641077  0.72279163  0.04992415  1
  O  O376  1  0.64219658  0.72377901  0.39123868  1
  O  O377  1  0.63545694  0.71916165  0.71869062  1
  O  O378  1  0.27208312  0.35891103  0.10942847  1
  O  O379  1  0.27993134  0.35947426  0.43906624  1
  O  O380  1  0.28032829  0.36026463  0.77178553  1
  O  O381  1  0.27506027  0.85738082  0.12464265  1
  O  O382  1  0.27834694  0.85940062  0.43545224  1
  O  O383  1  0.28026057  0.86828798  0.77765166  1
  O  O384  1  0.78365863  0.36274510  0.11008687  1
  O  O385  1  0.78172422  0.36343062  0.44073482  1
  O  O386  1  0.80547597  0.37014986  0.77782634  1
  O  O387  1  0.76445916  0.86318334  0.10466730  1
  O  O388  1  0.77470385  0.86223822  0.44076162  1
  O  O389  1  0.77324787  0.85897284  0.77609660  1
  O  O390  1  0.36917320  0.27462491  0.28951089  1
  O  O391  1  0.36061413  0.28008695  0.60609710  1
  O  O392  1  0.36642275  0.27972071  0.94924403  1
  O  O393  1  0.36178652  0.77474573  0.27281292  1
  O  O394  1  0.35644213  0.77253660  0.60165537  1
  O  O395  1  0.36391879  0.76432420  0.93240589  1
  O  O396  1  0.86433775  0.27816454  0.27354105  1
  O  O397  1  0.86868686  0.29044963  0.60852365  1
  O  O398  1  0.87047801  0.27523772  0.94357802  1
  O  O399  1  0.85997726  0.77911779  0.27651980  1
  O  O400  1  0.85631569  0.78124124  0.60828128  1
  O  O401  1  0.85249050  0.78034228  0.94500014  1
  O  O402  1  0.22684319  0.13522032  0.23001977  1
  O  O403  1  0.22275476  0.13981839  0.55446732  1
  O  O404  1  0.22938462  0.14142690  0.89747296  1
  O  O405  1  0.21783482  0.63564096  0.22171381  1
  O  O406  1  0.21649004  0.63265875  0.56403486  1
  O  O407  1  0.22012797  0.63478026  0.88529780  1
  O  O408  1  0.73180381  0.14013414  0.22840806  1
  O  O409  1  0.72579722  0.13731354  0.55452219  1
  O  O410  1  0.71807756  0.14256837  0.88964615  1
  O  O411  1  0.72788286  0.64030386  0.22856851  1
  O  O412  1  0.71634751  0.64060310  0.55757861  1
  O  O413  1  0.70994280  0.63576604  0.88483490  1
  O  O414  1  0.49802314  0.34672697  0.02664356  1
  O  O415  1  0.49569788  0.34588017  0.37213633  1
  O  O416  1  0.48969902  0.33273335  0.69812665  1
  O  O417  1  0.49034987  0.82249463  0.02486325  1
  O  O418  1  0.49226075  0.83005457  0.36236993  1
  O  O419  1  0.48763501  0.82170257  0.69206364  1
  O  O420  1  0.99934959  0.32881137  0.03271772  1
  O  O421  1  0.99497083  0.32875701  0.36211912  1
  O  O422  1  1.00414102  0.34222112  0.68860970  1
  O  O423  1  0.98520277  0.83433166  0.02870057  1
  O  O424  1  0.98933341  0.83618094  0.36748531  1
  O  O425  1  0.98731445  0.83127085  0.69725318  1
  O  O426  1  0.17279877  0.00730618  0.13643161  1
  O  O427  1  0.16740429  0.00862863  0.46707735  1
  O  O428  1  0.17428986  0.01285376  0.80670593  1
  O  O429  1  0.15779532  0.50664939  0.12977608  1
  O  O430  1  0.16044739  0.50320301  0.47385724  1
  O  O431  1  0.15930587  0.50523197  0.79908957  1
  O  O432  1  0.66649014  0.01371955  0.13799907  1
  O  O433  1  0.66404479  0.00810406  0.46864345  1
  O  O434  1  0.66327378  0.01077669  0.80386093  1
  O  O435  1  0.67787226  0.50849246  0.13930717  1
  O  O436  1  0.67005850  0.50852711  0.46935229  1
  O  O437  1  0.67052372  0.50072012  0.80491775  1
  O  O438  1  0.01211770  0.16769208  0.30085017  1
  O  O439  1  0.01295071  0.17035151  0.63690982  1
  O  O440  1  0.01551934  0.16185575  0.96264099  1
  O  O441  1  0.00668046  0.67487078  0.30066830  1
  O  O442  1  -0.00208702  0.66168092  0.64305999  1
  O  O443  1  -0.00393727  0.67321967  0.96886357  1
  O  O444  1  0.51116693  0.17360812  0.30401317  1
  O  O445  1  0.50526437  0.16742730  0.63783199  1
  O  O446  1  0.50859687  0.17234528  0.97288788  1
  O  O447  1  0.51188688  0.66879418  0.30348948  1
  O  O448  1  0.50738010  0.65720123  0.62869703  1
  O  O449  1  0.50513573  0.65078449  0.97517647  1
  O  O450  1  0.32167226  0.48734208  0.19969779  1
  O  O451  1  0.32951536  0.49021272  0.52885548  1
  O  O452  1  0.32614442  0.49139396  0.86294031  1
  O  O453  1  0.33893147  0.99008149  0.19901456  1
  O  O454  1  0.33142840  0.98879292  0.52638362  1
  O  O455  1  0.34653059  0.99995939  0.85821490  1
  O  O456  1  0.84005285  0.49160266  0.20215619  1
  O  O457  1  0.83435082  0.49395208  0.53029327  1
  O  O458  1  0.84265577  0.50590454  0.85917399  1
  O  O459  1  0.82683055  0.99016372  0.19568788  1
  O  O460  1  0.83053471  0.99201464  0.53111951  1
  O  O461  1  0.82662543  0.99204247  0.86106708  1
