# generated using pymatgen
data_Na31Fe20(SO4)36
_symmetry_space_group_name_H-M   'P 1'
_cell_length_a   18.08182236
_cell_length_b   18.08398945
_cell_length_c   19.71792675
_cell_angle_alpha   107.55927290
_cell_angle_beta   107.60057321
_cell_angle_gamma   90.73640264
_symmetry_Int_Tables_number   1
_chemical_formula_structural   Na31Fe20(SO4)36
_chemical_formula_sum   'Na62 Fe40 S72 O288'
_cell_volume   5820.85414911
_cell_formula_units_Z   2
loop_
 _symmetry_equiv_pos_site_id
 _symmetry_equiv_pos_as_xyz
  1  'x, y, z'
loop_
 _atom_site_type_symbol
 _atom_site_label
 _atom_site_symmetry_multiplicity
 _atom_site_fract_x
 _atom_site_fract_y
 _atom_site_fract_z
 _atom_site_occupancy
  Na  Na0  1  0.13097159  0.36499297  0.08152658  1
  Na  Na1  1  0.13285911  0.36929653  0.41859560  1
  Na  Na2  1  0.13586493  0.36933166  0.75414388  1
  Na  Na3  1  0.13274446  0.86280502  0.08067007  1
  Na  Na4  1  0.13979947  0.86575726  0.42263675  1
  Na  Na5  1  0.13873047  0.86209095  0.74499893  1
  Na  Na6  1  0.64223750  0.37886689  0.10296050  1
  Na  Na7  1  0.63240780  0.36886397  0.41084375  1
  Na  Na8  1  0.63307801  0.36331080  0.75052434  1
  Na  Na9  1  0.64551661  0.82946353  0.10102983  1
  Na  Na10  1  0.62461301  0.85153807  0.39067410  1
  Na  Na11  1  0.63424674  0.86911865  0.74486782  1
  Na  Na12  1  0.37149117  0.12959009  0.25128777  1
  Na  Na13  1  0.36677762  0.13186118  0.58567994  1
  Na  Na14  1  0.36459106  0.12648439  0.90882451  1
  Na  Na15  1  0.37025192  0.64727667  0.25778416  1
  Na  Na16  1  0.36101012  0.63437401  0.57808452  1
  Na  Na17  1  0.37965104  0.64842015  0.93557795  1
  Na  Na18  1  0.85432915  0.14008697  0.25330046  1
  Na  Na19  1  0.86727672  0.13582602  0.58635827  1
  Na  Na20  1  0.86043072  0.12280472  0.90395025  1
  Na  Na21  1  0.84650043  0.65614887  0.25201019  1
  Na  Na22  1  0.87321126  0.63762482  0.59022180  1
  Na  Na23  1  0.86706605  0.63239060  0.91676587  1
  Na  Na24  1  0.49552565  0.55815162  0.76757511  1
  Na  Na25  1  0.95519359  0.00553451  0.41263753  1
  Na  Na26  1  0.49779503  0.00508578  0.74738504  1
  Na  Na27  1  0.52297389  -0.04280129  0.10777796  1
  Na  Na28  1  0.99272440  0.51254701  0.07230664  1
  Na  Na29  1  0.96099935  0.50952928  0.42013833  1
  Na  Na30  1  1.01711780  -0.04257567  0.80288799  1
  Na  Na31  1  0.99604458  0.52417553  0.74378515  1
  Na  Na32  1  0.99131096  0.00574448  0.07224161  1
  Na  Na33  1  -0.01817315  1.00940742  0.25314986  1
  Na  Na34  1  0.51059242  0.97746866  0.92555737  1
  Na  Na35  1  0.49782156  0.50068564  0.92587061  1
  Na  Na36  1  0.49555126  0.94069619  0.25356563  1
  Na  Na37  1  0.51749736  0.49645332  0.56593389  1
  Na  Na38  1  0.02155506  0.98408078  0.60926685  1
  Na  Na39  1  0.54703740  0.99238146  0.57934581  1
  Na  Na40  1  -0.02306735  0.51732244  0.25989016  1
  Na  Na41  1  0.48115236  0.53478998  0.20015008  1
  Na  Na42  1  0.24645454  0.74693443  0.34149219  1
  Na  Na43  1  0.24908372  0.24802317  0.33511736  1
  Na  Na44  1  0.25892803  0.75955527  0.65031198  1
  Na  Na45  1  0.76715106  0.76384961  0.65869404  1
  Na  Na46  1  0.24242393  0.23703006  0.67381091  1
  Na  Na47  1  0.24584425  0.24168519  0.00139856  1
  Na  Na48  1  0.26566286  0.76003036  -0.00365652  1
  Na  Na49  1  0.74541591  0.24103908  0.67182631  1
  Na  Na50  1  0.74395286  0.24496076  0.00835973  1
  Na  Na51  1  0.74184693  0.74444693  0.00034223  1
  Na  Na52  1  0.74674908  0.25137865  0.18105203  1
  Na  Na53  1  0.24841669  0.24942578  0.16882039  1
  Na  Na54  1  0.24012682  0.23461701  0.83673869  1
  Na  Na55  1  0.75882225  0.26000846  0.48847568  1
  Na  Na56  1  0.24564312  0.24575344  0.50534749  1
  Na  Na57  1  0.75801754  0.75948292  0.82653511  1
  Na  Na58  1  0.75642665  0.76004959  0.47814230  1
  Na  Na59  1  0.26857015  0.75954284  0.15972559  1
  Na  Na60  1  0.25965644  0.75571749  0.82959343  1
  Na  Na61  1  0.74052748  0.23408190  0.83584873  1
  Fe  Fe62  1  0.46416243  0.30810287  0.12046955  1
  Fe  Fe63  1  0.46520690  0.30800374  0.78550200  1
  Fe  Fe64  1  0.96342694  0.81190148  0.44934255  1
  Fe  Fe65  1  0.96289074  0.31501696  0.45477309  1
  Fe  Fe66  1  0.96442945  0.31100046  0.12113763  1
  Fe  Fe67  1  0.46611126  0.80432549  0.45391309  1
  Fe  Fe68  1  0.46626747  0.30422573  0.45257366  1
  Fe  Fe69  1  0.47059468  0.79851307  0.78578866  1
  Fe  Fe70  1  0.96024248  0.81149107  0.12163057  1
  Fe  Fe71  1  0.96633051  0.30765118  0.78631203  1
  Fe  Fe72  1  0.18676538  0.53539066  0.70906885  1
  Fe  Fe73  1  0.19275830  0.03388743  0.38214262  1
  Fe  Fe74  1  0.18986925  0.03494828  0.04591657  1
  Fe  Fe75  1  0.18585666  0.53495529  0.04359902  1
  Fe  Fe76  1  0.69510031  0.03184969  0.05026628  1
  Fe  Fe77  1  0.69824654  0.53210617  0.05143175  1
  Fe  Fe78  1  0.70072854  0.03376831  0.37323279  1
  Fe  Fe79  1  0.69823748  0.53413711  0.37134105  1
  Fe  Fe80  1  0.18941473  0.53705648  0.38089572  1
  Fe  Fe81  1  0.69514740  0.53183701  0.71648462  1
  Fe  Fe82  1  0.03453358  0.19363951  0.54911192  1
  Fe  Fe83  1  0.03305745  0.69670969  0.54809240  1
  Fe  Fe84  1  0.53507067  0.19314479  0.88211607  1
  Fe  Fe85  1  0.03562440  0.69571544  0.21588513  1
  Fe  Fe86  1  0.03396107  0.19517182  0.21489423  1
  Fe  Fe87  1  0.03745792  0.18720289  0.87765647  1
  Fe  Fe88  1  0.53833074  0.68526181  0.54007873  1
  Fe  Fe89  1  0.03215141  0.70239960  0.87988386  1
  Fe  Fe90  1  0.53590861  0.18713968  0.54370460  1
  Fe  Fe91  1  0.53451559  0.19237633  0.21499996  1
  Fe  Fe92  1  0.30738924  0.96733739  0.29259237  1
  Fe  Fe93  1  0.31361961  0.96474468  0.95774305  1
  Fe  Fe94  1  0.80457065  0.96564121  0.94859867  1
  Fe  Fe95  1  0.30629855  0.46443387  0.95369274  1
  Fe  Fe96  1  0.30604202  0.46522536  0.61962067  1
  Fe  Fe97  1  0.80416508  0.96851653  0.62444262  1
  Fe  Fe98  1  0.80952914  0.46003669  0.94882922  1
  Fe  Fe99  1  0.80779329  0.46407087  0.61784315  1
  Fe  Fe100  1  0.30104091  0.96675578  0.62299215  1
  Fe  Fe101  1  0.30808405  0.46728042  0.28864012  1
  S  S102  1  0.35954941  0.14182283  0.08312158  1
  S  S103  1  0.35729795  0.14268882  0.41887148  1
  S  S104  1  0.36211986  0.14044420  0.74971203  1
  S  S105  1  0.35343046  0.63401783  0.08323562  1
  S  S106  1  0.35811464  0.63814190  0.41745890  1
  S  S107  1  0.35329546  0.63980607  0.74620424  1
  S  S108  1  0.86119459  0.14107256  0.08304661  1
  S  S109  1  0.86261336  0.14586650  0.41840650  1
  S  S110  1  0.86243828  0.14207707  0.75022657  1
  S  S111  1  0.86272902  0.63714647  0.08320357  1
  S  S112  1  0.86200463  0.64412414  0.41512542  1
  S  S113  1  0.85870091  0.63836076  0.75223122  1
  S  S114  1  0.14137730  0.36031464  0.25047842  1
  S  S115  1  0.14136973  0.35805829  0.58374466  1
  S  S116  1  0.13983312  0.35963673  0.91660260  1
  S  S117  1  0.14091016  0.86084661  0.24814359  1
  S  S118  1  0.13891786  0.85951696  0.58358127  1
  S  S119  1  0.14547646  0.86096160  0.91830352  1
  S  S120  1  0.63422276  0.36223061  0.24978127  1
  S  S121  1  0.63994592  0.35884846  0.58314441  1
  S  S122  1  0.64164226  0.35772286  0.91801676  1
  S  S123  1  0.63652543  0.86974825  0.24857869  1
  S  S124  1  0.64085838  0.85460611  0.57898782  1
  S  S125  1  0.64002177  0.85974213  0.91422243  1
  S  S126  1  0.06633247  0.17013702  0.04333236  1
  S  S127  1  0.06680649  0.17049972  0.37605306  1
  S  S128  1  0.06832700  0.17225848  0.71146751  1
  S  S129  1  0.06746897  0.67402533  0.04497864  1
  S  S130  1  0.06693870  0.67203404  0.37521471  1
  S  S131  1  0.06800965  0.67052699  0.71003740  1
  S  S132  1  0.56830756  0.17133816  0.04448104  1
  S  S133  1  0.57129915  0.17344830  0.37806969  1
  S  S134  1  0.56298844  0.16794546  0.70737127  1
  S  S135  1  0.57437455  0.65646354  0.03428645  1
  S  S136  1  0.56846108  0.66412818  0.37519977  1
  S  S137  1  0.56821819  0.66513351  0.70373761  1
  S  S138  1  0.32187758  0.42735487  0.12161520  1
  S  S139  1  0.32845186  0.43050035  0.45774116  1
  S  S140  1  0.32868555  0.43150463  0.78958781  1
  S  S141  1  0.32842478  0.93874766  0.12628564  1
  S  S142  1  0.33092698  0.93350938  0.46218574  1
  S  S143  1  0.33789994  0.93007408  0.79184550  1
  S  S144  1  0.83605483  0.43657222  0.12282626  1
  S  S145  1  0.82817402  0.43676101  0.45997138  1
  S  S146  1  0.83039762  0.42804619  0.78837801  1
  S  S147  1  0.83327414  0.93944021  0.12295744  1
  S  S148  1  0.82707019  0.93772150  0.46059029  1
  S  S149  1  0.82643971  0.92853215  0.78783279  1
  S  S150  1  0.42533113  0.32483248  0.29012645  1
  S  S151  1  0.43295964  0.33228013  0.62411103  1
  S  S152  1  0.43003457  0.32735652  0.95532729  1
  S  S153  1  0.41693818  0.82950370  0.29600018  1
  S  S154  1  0.43216072  0.82707583  0.62326692  1
  S  S155  1  0.43785515  0.83304274  0.95856940  1
  S  S156  1  0.93982037  0.33462119  0.29177193  1
  S  S157  1  0.93592289  0.33297943  0.62573919  1
  S  S158  1  0.93297664  0.32489805  0.95573750  1
  S  S159  1  0.94106401  0.83654374  0.29172782  1
  S  S160  1  0.93677505  0.83469198  0.62421774  1
  S  S161  1  0.93168092  0.82944548  0.95906042  1
  S  S162  1  0.16506224  0.06718770  0.20865388  1
  S  S163  1  0.16746486  0.06671049  0.54071227  1
  S  S164  1  0.17285059  0.06276586  0.87779936  1
  S  S165  1  0.16534034  0.56578837  0.20865766  1
  S  S166  1  0.16629965  0.56620665  0.54068276  1
  S  S167  1  0.17004694  0.57186720  0.87486916  1
  S  S168  1  0.66945763  0.07494002  0.20906533  1
  S  S169  1  0.67644001  0.07120926  0.53904304  1
  S  S170  1  0.66400201  0.06518001  0.87642278  1
  S  S171  1  0.67137533  0.56843851  0.20812183  1
  S  S172  1  0.67822095  0.56681425  0.54246164  1
  S  S173  1  0.67198459  0.55618000  0.87744231  1
  O  O174  1  0.36965942  0.22117705  0.07510136  1
  O  O175  1  0.36679920  0.22296188  0.41334714  1
  O  O176  1  0.37438317  0.21780874  0.73754984  1
  O  O177  1  0.36055330  0.71015435  0.07242750  1
  O  O178  1  0.36792489  0.71801210  0.41230941  1
  O  O179  1  0.36482220  0.71740057  0.73596770  1
  O  O180  1  0.87076768  0.22089368  0.07673120  1
  O  O181  1  0.87020551  0.22776353  0.41770198  1
  O  O182  1  0.87447566  0.22013837  0.73888719  1
  O  O183  1  0.86789777  0.71556354  0.07380911  1
  O  O184  1  0.86914598  0.72623228  0.41410663  1
  O  O185  1  0.86089181  0.71381716  0.74042644  1
  O  O186  1  0.27959812  0.13551600  0.09039728  1
  O  O187  1  0.27728048  0.13387789  0.42541303  1
  O  O188  1  0.28602023  0.13560295  0.76013558  1
  O  O189  1  0.27119424  0.62330716  0.08828076  1
  O  O190  1  0.27963678  0.62754935  0.42577791  1
  O  O191  1  0.27067476  0.63071771  0.74578691  1
  O  O192  1  0.78188454  0.13260535  0.09032857  1
  O  O193  1  0.78194086  0.13275075  0.42322989  1
  O  O194  1  0.78629183  0.13657103  0.76076666  1
  O  O195  1  0.78403601  0.62278239  0.08963009  1
  O  O196  1  0.78193711  0.63060654  0.42041764  1
  O  O197  1  0.78154341  0.62331014  0.76380433  1
  O  O198  1  0.13362121  0.28059591  0.25817351  1
  O  O199  1  0.13394002  0.27795092  0.59043543  1
  O  O200  1  0.13272551  0.28010142  0.92485129  1
  O  O201  1  0.13436131  0.78090376  0.25479360  1
  O  O202  1  0.13021660  0.77847445  0.58908352  1
  O  O203  1  0.13462970  0.78172616  0.92634102  1
  O  O204  1  0.61980858  0.28620849  0.26166766  1
  O  O205  1  0.62926169  0.28084729  0.59211511  1
  O  O206  1  0.63081123  0.27822218  0.92495941  1
  O  O207  1  0.61706311  0.80099717  0.26578694  1
  O  O208  1  0.63204994  0.77491073  0.58666864  1
  O  O209  1  0.63267937  0.78322585  0.92218432  1
  O  O210  1  0.22074712  0.36952461  0.24320436  1
  O  O211  1  0.22038786  0.36790741  0.57525410  1
  O  O212  1  0.21860143  0.36869053  0.90738864  1
  O  O213  1  0.21779966  0.87265601  0.23679476  1
  O  O214  1  0.21878829  0.86858064  0.57769842  1
  O  O215  1  0.22922408  0.86869521  0.91886151  1
  O  O216  1  0.70591398  0.36541687  0.23099427  1
  O  O217  1  0.71865710  0.36679849  0.57496986  1
  O  O218  1  0.71843163  0.36231078  0.90479640  1
  O  O219  1  0.71255586  0.87725622  0.23912962  1
  O  O220  1  0.72185939  0.86409064  0.57492885  1
  O  O221  1  0.71864072  0.87277106  0.90493665  1
  O  O222  1  0.41705019  0.13377899  0.15146092  1
  O  O223  1  0.41532503  0.13428674  0.48661518  1
  O  O224  1  0.42413147  0.13226357  0.81687069  1
  O  O225  1  0.40833188  0.62553000  0.15114439  1
  O  O226  1  0.41817860  0.62737888  0.48313244  1
  O  O227  1  0.40701718  0.63284039  0.81544560  1
  O  O228  1  0.92010601  0.13172416  0.15088351  1
  O  O229  1  0.91905488  0.13605404  0.48830135  1
  O  O230  1  0.92399206  0.13523971  0.81816861  1
  O  O231  1  0.92224504  0.63173890  0.15225559  1
  O  O232  1  0.91934764  0.63497869  0.48527215  1
  O  O233  1  0.92039020  0.63353537  0.82084355  1
  O  O234  1  0.36705237  0.08380364  0.01488366  1
  O  O235  1  0.36321196  0.08585238  0.34941225  1
  O  O236  1  0.36934913  0.07897004  0.68244828  1
  O  O237  1  0.36066634  0.57290107  0.01447662  1
  O  O238  1  0.36234711  0.58150674  0.34612264  1
  O  O239  1  0.36537782  0.57927670  0.67955481  1
  O  O240  1  0.87044947  0.08308305  0.01500231  1
  O  O241  1  0.87597790  0.09074101  0.35289278  1
  O  O242  1  0.86918815  0.08203075  0.68252332  1
  O  O243  1  0.87517567  0.57780091  0.01683581  1
  O  O244  1  0.87592117  0.58947604  0.34956852  1
  O  O245  1  0.86953173  0.57606839  0.68671080  1
  O  O246  1  0.08315835  0.36702019  0.18169306  1
  O  O247  1  0.08253659  0.36517912  0.51571128  1
  O  O248  1  0.08096295  0.36740224  0.84909255  1
  O  O249  1  0.07926566  0.87040536  0.18279556  1
  O  O250  1  0.08116293  0.86679070  0.51377094  1
  O  O251  1  0.09335532  0.86862401  0.84908671  1
  O  O252  1  0.56817861  0.37342569  0.18663965  1
  O  O253  1  0.58039072  0.36804886  0.51531176  1
  O  O254  1  0.58014085  0.36912249  0.85328359  1
  O  O255  1  0.57467136  0.88354458  0.18502867  1
  O  O256  1  0.58428904  0.86020184  0.50748901  1
  O  O257  1  0.58048376  0.86796834  0.84522128  1
  O  O258  1  0.13312126  0.41846932  0.31840704  1
  O  O259  1  0.13484633  0.41530891  0.65278726  1
  O  O260  1  0.13204821  0.41767946  0.98496039  1
  O  O261  1  0.13656997  0.91786383  0.31886864  1
  O  O262  1  0.12854563  0.91644644  0.64955163  1
  O  O263  1  0.13477884  0.91900761  0.98602893  1
  O  O264  1  0.63614445  0.42420526  0.32087163  1
  O  O265  1  0.63168283  0.41911699  0.65049578  1
  O  O266  1  0.63957459  0.41590609  0.98907970  1
  O  O267  1  0.63126695  0.93927990  0.31931182  1
  O  O268  1  0.62755310  0.91357230  0.64241050  1
  O  O269  1  0.63036992  0.92260644  0.98021288  1
  O  O270  1  0.03106049  0.20310834  0.10477159  1
  O  O271  1  0.03240184  0.20012591  0.43795114  1
  O  O272  1  0.03395786  0.20767629  0.77395118  1
  O  O273  1  0.02955428  0.70447823  0.10497075  1
  O  O274  1  0.03217093  0.70340286  0.43672041  1
  O  O275  1  0.03119885  0.69176627  0.76938387  1
  O  O276  1  0.53251364  0.20148358  0.10587705  1
  O  O277  1  0.52910384  0.19574754  0.43644017  1
  O  O278  1  0.53197467  0.20685901  0.77115940  1
  O  O279  1  0.55588951  0.69065777  0.10226332  1
  O  O280  1  0.52989553  0.69314091  0.43664671  1
  O  O281  1  0.52773432  0.69134645  0.76040467  1
  O  O282  1  0.29014371  0.46129938  0.05960882  1
  O  O283  1  0.29930360  0.46600242  0.39631917  1
  O  O284  1  0.29936068  0.46817412  0.72868952  1
  O  O285  1  0.29566712  0.97824875  0.06744673  1
  O  O286  1  0.30287741  0.97441017  0.40344799  1
  O  O287  1  0.31148509  0.96656395  0.73265354  1
  O  O288  1  0.79845575  0.46511961  0.05556743  1
  O  O289  1  0.79883455  0.47438262  0.40111020  1
  O  O290  1  0.79738704  0.46290171  0.72658461  1
  O  O291  1  0.80001848  0.97105716  0.05736393  1
  O  O292  1  0.80092830  0.97805314  0.40227809  1
  O  O293  1  0.80249196  0.96547445  0.72796478  1
  O  O294  1  0.45948212  0.29365796  0.22814403  1
  O  O295  1  0.46942685  0.30196189  0.56320881  1
  O  O296  1  0.46797159  0.29641304  0.89517274  1
  O  O297  1  0.43664872  0.80717812  0.22716115  1
  O  O298  1  0.46998146  0.80056978  0.56274846  1
  O  O299  1  0.45935649  0.81099635  0.88903129  1
  O  O300  1  0.97597178  0.29883344  0.22994605  1
  O  O301  1  0.97345057  0.30435379  0.56524965  1
  O  O302  1  0.97080830  0.29721203  0.89605892  1
  O  O303  1  0.97481565  0.79725056  0.22851740  1
  O  O304  1  0.97056007  0.80399895  0.56001177  1
  O  O305  1  0.97050196  0.80190351  0.90186879  1
  O  O306  1  0.19600098  0.03388987  0.27143188  1
  O  O307  1  0.19819842  0.03189948  0.60048123  1
  O  O308  1  0.20673725  0.03227790  0.94355670  1
  O  O309  1  0.19470543  0.52834422  0.26907167  1
  O  O310  1  0.19344390  0.52482682  0.59856440  1
  O  O311  1  0.19426361  0.53083282  0.93275300  1
  O  O312  1  0.70173453  0.04967430  0.27593712  1
  O  O313  1  0.70099155  0.02895016  0.59416999  1
  O  O314  1  0.70024650  0.03631524  0.94230038  1
  O  O315  1  0.69817355  0.53109178  0.26911207  1
  O  O316  1  0.70479344  0.52762567  0.60274323  1
  O  O317  1  0.70954119  0.52206647  0.94077701  1
  O  O318  1  0.08452387  0.08968354  0.04328284  1
  O  O319  1  0.08498627  0.08863426  0.36923641  1
  O  O320  1  0.08409402  0.09326018  0.70910859  1
  O  O321  1  0.08240922  0.59177517  0.04155510  1
  O  O322  1  0.08353970  0.58962057  0.37096575  1
  O  O323  1  0.08412605  0.58649765  0.69727135  1
  O  O324  1  0.58721166  0.09007614  0.03866601  1
  O  O325  1  0.59927558  0.09602697  0.37326990  1
  O  O326  1  0.56862410  0.08558396  0.70188099  1
  O  O327  1  0.60059605  0.57233788  0.03075103  1
  O  O328  1  0.60181978  0.58988441  0.38141852  1
  O  O329  1  0.58591064  0.58213308  0.69942700  1
  O  O330  1  0.40263453  0.40907984  0.12525322  1
  O  O331  1  0.40972464  0.41111546  0.46454268  1
  O  O332  1  0.41101357  0.41421859  0.79590839  1
  O  O333  1  0.40926784  0.92652061  0.13121150  1
  O  O334  1  0.41254799  0.91536130  0.47076846  1
  O  O335  1  0.42093508  0.91280053  0.79998233  1
  O  O336  1  0.91638344  0.41643346  0.11939497  1
  O  O337  1  0.90788989  0.41489031  0.45800986  1
  O  O338  1  0.91017828  0.40950619  0.78897693  1
  O  O339  1  0.91629944  0.92261944  0.12549476  1
  O  O340  1  0.90927383  0.91897056  0.46344065  1
  O  O341  1  0.90473714  0.90539464  0.79858389  1
  O  O342  1  0.40306906  0.40331531  0.29170586  1
  O  O343  1  0.41444097  0.41342798  0.62823410  1
  O  O344  1  0.41003292  0.40688889  0.95503987  1
  O  O345  1  0.40565669  0.91549244  0.31608884  1
  O  O346  1  0.41337816  0.90900307  0.63204076  1
  O  O347  1  0.42051701  0.91849686  0.97473659  1
  O  O348  1  0.93218805  0.41666233  0.29695459  1
  O  O349  1  0.91749144  0.41453006  0.63234442  1
  O  O350  1  0.91388645  0.40638327  0.96129269  1
  O  O351  1  0.93612986  0.91853984  0.29445516  1
  O  O352  1  0.91189203  0.91331071  0.62334465  1
  O  O353  1  0.91056570  0.91028248  0.96410654  1
  O  O354  1  0.08265467  0.08460018  0.20339375  1
  O  O355  1  0.08533311  0.08514022  0.53507154  1
  O  O356  1  0.09356121  0.08635415  0.87959043  1
  O  O357  1  0.08320232  0.58386265  0.20380509  1
  O  O358  1  0.08565484  0.58660154  0.53439915  1
  O  O359  1  0.09072738  0.59594864  0.86977793  1
  O  O360  1  0.58556829  0.08857171  0.19946277  1
  O  O361  1  0.59400523  0.08873808  0.53492893  1
  O  O362  1  0.58317928  0.08574488  0.87773351  1
  O  O363  1  0.58781857  0.57094794  0.18697584  1
  O  O364  1  0.59601042  0.58224020  0.53725303  1
  O  O365  1  0.59002724  0.56156756  0.87180482  1
  O  O366  1  0.13859923  0.22109773  0.05864047  1
  O  O367  1  0.13775344  0.22270712  0.39058294  1
  O  O368  1  0.13957407  0.22519668  0.72630622  1
  O  O369  1  0.14049031  0.72420363  0.06298350  1
  O  O370  1  0.13710776  0.72174356  0.38642664  1
  O  O371  1  0.14021747  0.72249994  0.72897258  1
  O  O372  1  0.63935090  0.22440359  0.06081546  1
  O  O373  1  0.63575960  0.23422527  0.39800948  1
  O  O374  1  0.63843584  0.21326482  0.72182232  1
  O  O375  1  0.64091053  0.70149218  0.03035408  1
  O  O376  1  0.63179843  0.72377973  0.38908079  1
  O  O377  1  0.63963989  0.71650282  0.72085464  1
  O  O378  1  0.27022502  0.35609858  0.10781237  1
  O  O379  1  0.27503574  0.36014809  0.44219391  1
  O  O380  1  0.27705775  0.35956118  0.77258030  1
  O  O381  1  0.27709946  0.86540561  0.10604655  1
  O  O382  1  0.27671971  0.86300823  0.44120416  1
  O  O383  1  0.28548517  0.85806339  0.77444763  1
  O  O384  1  0.78699726  0.36581449  0.11320452  1
  O  O385  1  0.77584444  0.36819856  0.44862761  1
  O  O386  1  0.77816908  0.35778705  0.77551482  1
  O  O387  1  0.78537834  0.86695520  0.10853556  1
  O  O388  1  0.77428204  0.86776411  0.44277934  1
  O  O389  1  0.76820219  0.85998268  0.76959314  1
  O  O390  1  0.35644806  0.27001168  0.27757068  1
  O  O391  1  0.36206084  0.27972930  0.60860007  1
  O  O392  1  0.35932151  0.27406504  0.93918389  1
  O  O393  1  0.34468862  0.78192817  0.28787088  1
  O  O394  1  0.36249746  0.77309320  0.60548614  1
  O  O395  1  0.36531209  0.78295284  0.94517934  1
  O  O396  1  0.86624685  0.28656913  0.27445671  1
  O  O397  1  0.86440965  0.28053450  0.60779810  1
  O  O398  1  0.86234506  0.27206542  0.93957058  1
  O  O399  1  0.86801420  0.79230293  0.27930736  1
  O  O400  1  0.86820846  0.77912545  0.60916044  1
  O  O401  1  0.86089666  0.77579533  0.94295087  1
  O  O402  1  0.21597371  0.13858768  0.22259233  1
  O  O403  1  0.21850483  0.13902769  0.55466858  1
  O  O404  1  0.22517074  0.13352339  0.89065746  1
  O  O405  1  0.21752251  0.63652355  0.22547721  1
  O  O406  1  0.22180303  0.63499326  0.55960658  1
  O  O407  1  0.22790712  0.63884976  0.89191330  1
  O  O408  1  0.71703530  0.14547277  0.21669150  1
  O  O409  1  0.72780279  0.14471096  0.56039624  1
  O  O410  1  0.71426313  0.13699059  0.88846408  1
  O  O411  1  0.71850095  0.64195931  0.22793820  1
  O  O412  1  0.72998744  0.63902323  0.56295235  1
  O  O413  1  0.71856231  0.63052229  0.89311980  1
  O  O414  1  0.48842710  0.33218350  0.02864136  1
  O  O415  1  0.48652496  0.32991414  0.36266725  1
  O  O416  1  0.49228961  0.33506571  0.69687385  1
  O  O417  1  0.50230050  0.82963742  0.02275008  1
  O  O418  1  0.48219790  0.82131907  0.36103818  1
  O  O419  1  0.49239878  0.82690670  0.69508688  1
  O  O420  1  0.99252420  0.32803586  0.02861599  1
  O  O421  1  0.99647730  0.33120450  0.36425481  1
  O  O422  1  0.99520779  0.33437458  0.69778528  1
  O  O423  1  0.98962635  0.83467829  0.03439632  1
  O  O424  1  1.00034770  0.83572477  0.36454784  1
  O  O425  1  0.99892833  0.84388576  0.69494398  1
  O  O426  1  0.16164127  0.00726305  0.13638288  1
  O  O427  1  0.16392362  0.00834078  0.46655385  1
  O  O428  1  0.16425991  0.00040429  0.80832814  1
  O  O429  1  0.16068848  0.50673060  0.13514794  1
  O  O430  1  0.16434846  0.50746525  0.46735255  1
  O  O431  1  0.16425248  0.51180669  0.80071234  1
  O  O432  1  0.66822574  0.00998573  0.13968511  1
  O  O433  1  0.67539005  0.01881610  0.46378947  1
  O  O434  1  0.65424932  0.00395019  0.80577233  1
  O  O435  1  0.68827614  0.50923967  0.14006145  1
  O  O436  1  0.67946472  0.51015745  0.47043167  1
  O  O437  1  0.67614956  0.49890714  0.80561284  1
  O  O438  1  0.00636748  0.16718391  0.30336226  1
  O  O439  1  0.00886135  0.17274477  0.63923217  1
  O  O440  1  0.00841938  0.16645011  0.97044644  1
  O  O441  1  0.00524161  0.66592288  0.30210297  1
  O  O442  1  0.01036623  0.67412001  0.63861843  1
  O  O443  1  0.01099272  0.67290945  0.97192583  1
  O  O444  1  0.51027757  0.16803116  0.30530966  1
  O  O445  1  0.50604303  0.17219085  0.63537901  1
  O  O446  1  0.50799916  0.16997554  0.97289490  1
  O  O447  1  0.50600397  0.64779544  0.30346741  1
  O  O448  1  0.51147475  0.65906665  0.62790770  1
  O  O449  1  0.50590777  0.63785224  0.96539044  1
  O  O450  1  0.32574645  0.48801050  0.19383935  1
  O  O451  1  0.33011193  0.49082874  0.52951378  1
  O  O452  1  0.33030082  0.49014093  0.86181466  1
  O  O453  1  0.32645263  0.99348948  0.20013083  1
  O  O454  1  0.32951033  0.99139580  0.53431172  1
  O  O455  1  0.33850183  0.98755832  0.86534421  1
  O  O456  1  0.84668556  0.50059631  0.19176594  1
  O  O457  1  0.83953022  0.49583098  0.53565067  1
  O  O458  1  0.83598514  0.48805155  0.86150593  1
  O  O459  1  0.83926296  1.00191754  0.19247647  1
  O  O460  1  0.83300178  0.99521237  0.53517612  1
  O  O461  1  0.82332716  0.98909310  0.85944588  1
