# generated using pymatgen
data_Na31Fe20(SO4)36
_symmetry_space_group_name_H-M   'P 1'
_cell_length_a   18.06861579
_cell_length_b   18.07484849
_cell_length_c   19.70343956
_cell_angle_alpha   107.60035979
_cell_angle_beta   107.58655776
_cell_angle_gamma   90.70691669
_symmetry_Int_Tables_number   1
_chemical_formula_structural   Na31Fe20(SO4)36
_chemical_formula_sum   'Na62 Fe40 S72 O288'
_cell_volume   5808.79062548
_cell_formula_units_Z   2
loop_
 _symmetry_equiv_pos_site_id
 _symmetry_equiv_pos_as_xyz
  1  'x, y, z'
loop_
 _atom_site_type_symbol
 _atom_site_label
 _atom_site_symmetry_multiplicity
 _atom_site_fract_x
 _atom_site_fract_y
 _atom_site_fract_z
 _atom_site_occupancy
  Na  Na0  1  0.13050593  0.36737179  0.09275300  1
  Na  Na1  1  0.14455808  0.36474361  0.42485498  1
  Na  Na2  1  0.13157662  0.36763987  0.74972230  1
  Na  Na3  1  0.13008480  0.87121699  0.08147276  1
  Na  Na4  1  0.12664445  0.86399214  0.41250455  1
  Na  Na5  1  0.13061860  0.86289705  0.74044951  1
  Na  Na6  1  0.64886570  0.36644819  0.09000640  1
  Na  Na7  1  0.63694389  0.37107706  0.42116669  1
  Na  Na8  1  0.63111737  0.37351766  0.74677317  1
  Na  Na9  1  0.63046922  0.86628207  0.07969814  1
  Na  Na10  1  0.66554552  0.84984015  0.43684892  1
  Na  Na11  1  0.64344392  0.85559580  0.75027249  1
  Na  Na12  1  0.37049840  0.14333174  0.25749911  1
  Na  Na13  1  0.37444281  0.13586113  0.58093826  1
  Na  Na14  1  0.37139245  0.13078631  0.91510277  1
  Na  Na15  1  0.35983880  0.63450335  0.25668614  1
  Na  Na16  1  0.36426977  0.63890157  0.58758820  1
  Na  Na17  1  0.37151116  0.63110622  0.91599769  1
  Na  Na18  1  0.86358744  0.13310556  0.24783469  1
  Na  Na19  1  0.86116299  0.13846576  0.58574553  1
  Na  Na20  1  0.87388955  0.13464405  0.92602376  1
  Na  Na21  1  0.85682988  0.63474816  0.24588803  1
  Na  Na22  1  0.85355316  0.63092015  0.57134992  1
  Na  Na23  1  0.86459045  0.62658252  0.91159841  1
  Na  Na24  1  0.99423739  0.01083230  0.42303526  1
  Na  Na25  1  0.45301162  0.50885169  0.40466387  1
  Na  Na26  1  0.51291804  0.55652706  0.78264750  1
  Na  Na27  1  0.49602449  0.01074440  0.07605354  1
  Na  Na28  1  0.51954392  -0.01030239  0.73858819  1
  Na  Na29  1  0.98742261  0.51259962  0.41356233  1
  Na  Na30  1  0.97290160  0.50346608  0.76965412  1
  Na  Na31  1  0.54492846  0.48532585  0.01572610  1
  Na  Na32  1  0.98673093  0.50378420  0.07351956  1
  Na  Na33  1  0.02066272  0.46820071  0.24413464  1
  Na  Na34  1  0.51575575  0.95509585  0.49010476  1
  Na  Na35  1  -0.03764033  1.01297864  0.63991759  1
  Na  Na36  1  0.54128652  0.48529523  0.59299884  1
  Na  Na37  1  0.00561491  0.98988856  0.91656308  1
  Na  Na38  1  0.49111671  0.50224974  0.23784069  1
  Na  Na39  1  0.00571666  0.49578395  0.59162162  1
  Na  Na40  1  0.00903059  0.99940910  0.23311904  1
  Na  Na41  1  0.50920680  0.98351162  0.27546384  1
  Na  Na42  1  0.74878771  0.24799603  0.33568752  1
  Na  Na43  1  0.76160253  0.76241974  0.65257057  1
  Na  Na44  1  0.72902414  0.23230552  0.66840030  1
  Na  Na45  1  0.26186949  0.26055617  0.64950229  1
  Na  Na46  1  0.25633726  0.75507539  -0.00800123  1
  Na  Na47  1  0.25517945  0.75878025  0.33418521  1
  Na  Na48  1  0.76743245  0.25756256  -0.00136664  1
  Na  Na49  1  0.70878125  0.71326828  -0.00096704  1
  Na  Na50  1  0.25007235  0.25370653  0.00159759  1
  Na  Na51  1  0.24430704  0.24694349  0.34731226  1
  Na  Na52  1  0.73195833  0.72705921  0.83896008  1
  Na  Na53  1  0.25765440  0.75842455  0.16484861  1
  Na  Na54  1  0.73310485  0.23756167  0.50715966  1
  Na  Na55  1  0.25419293  0.25769788  0.17173056  1
  Na  Na56  1  0.24577359  0.74375096  0.50901308  1
  Na  Na57  1  0.25573691  0.25535540  0.82720370  1
  Na  Na58  1  0.76789954  0.25617354  0.16117162  1
  Na  Na59  1  0.26191668  0.76258577  0.81655950  1
  Na  Na60  1  0.72914896  0.73283114  0.17528207  1
  Na  Na61  1  0.75100129  0.24543674  0.83324816  1
  Fe  Fe62  1  0.46768064  0.30712236  0.12043223  1
  Fe  Fe63  1  0.96055815  0.80946509  0.45268916  1
  Fe  Fe64  1  0.46181914  0.81021323  0.12184921  1
  Fe  Fe65  1  0.47101712  0.30034223  0.45547495  1
  Fe  Fe66  1  0.96524402  0.80333959  0.11291982  1
  Fe  Fe67  1  0.96217206  0.31062327  0.78986552  1
  Fe  Fe68  1  0.46687344  0.80861345  0.79055146  1
  Fe  Fe69  1  0.96464200  0.80704168  0.77991316  1
  Fe  Fe70  1  0.47005583  0.30304938  0.78353464  1
  Fe  Fe71  1  0.96389137  0.31173052  0.45491023  1
  Fe  Fe72  1  0.20197159  0.52577430  0.38052137  1
  Fe  Fe73  1  0.19022543  0.03464946  0.71080701  1
  Fe  Fe74  1  0.19402096  0.03693525  0.04725007  1
  Fe  Fe75  1  0.69906702  0.02558539  0.70652866  1
  Fe  Fe76  1  0.19577422  0.53749723  0.71887116  1
  Fe  Fe77  1  0.68440365  0.54294383  0.37770016  1
  Fe  Fe78  1  0.70090743  0.03144775  0.38721724  1
  Fe  Fe79  1  0.18984066  0.04527047  0.38320505  1
  Fe  Fe80  1  0.19173115  0.53120337  0.04813581  1
  Fe  Fe81  1  0.69379725  0.03034674  0.04358644  1
  Fe  Fe82  1  0.54088190  0.19083308  0.21406294  1
  Fe  Fe83  1  0.03654371  0.69085128  0.54745370  1
  Fe  Fe84  1  0.52515480  0.70098297  0.54156994  1
  Fe  Fe85  1  0.03532272  0.69288406  0.87986041  1
  Fe  Fe86  1  0.03538263  0.19990999  0.55185308  1
  Fe  Fe87  1  0.03357827  0.69349450  0.21383117  1
  Fe  Fe88  1  0.53782264  0.18566919  0.87652214  1
  Fe  Fe89  1  0.53190890  0.69470724  0.21885093  1
  Fe  Fe90  1  0.03014328  0.19918654  0.21136605  1
  Fe  Fe91  1  0.03127293  0.19491201  0.88125665  1
  Fe  Fe92  1  0.30370461  0.96754709  0.94730321  1
  Fe  Fe93  1  0.80294406  0.46942830  0.28248514  1
  Fe  Fe94  1  0.81245748  0.96006218  0.95249722  1
  Fe  Fe95  1  0.31116870  0.46332455  0.95677139  1
  Fe  Fe96  1  0.30801214  0.96318627  0.61753171  1
  Fe  Fe97  1  0.79094620  0.47582911  0.62266068  1
  Fe  Fe98  1  0.80851483  0.96070251  0.28418910  1
  Fe  Fe99  1  0.79889829  0.46675183  0.95603036  1
  Fe  Fe100  1  0.30746131  0.96939172  0.29154828  1
  Fe  Fe101  1  0.31302436  0.46822801  0.62523620  1
  S  S102  1  0.36208465  0.14002478  0.08319359  1
  S  S103  1  0.35822791  0.14278606  0.41325075  1
  S  S104  1  0.35818807  0.13979007  0.74860335  1
  S  S105  1  0.35528084  0.63997728  0.08567354  1
  S  S106  1  0.35253474  0.64429208  0.41906750  1
  S  S107  1  0.35783495  0.64341024  0.75568838  1
  S  S108  1  0.86090019  0.13333150  0.08580277  1
  S  S109  1  0.86283110  0.14183704  0.41683709  1
  S  S110  1  0.86135301  0.14315008  0.74993734  1
  S  S111  1  0.86011335  0.64119183  0.07914759  1
  S  S112  1  0.86114407  0.63856253  0.41518261  1
  S  S113  1  0.85929960  0.64133156  0.74990888  1
  S  S114  1  0.14349366  0.35607766  0.25568979  1
  S  S115  1  0.13965888  0.36586989  0.58713058  1
  S  S116  1  0.13996987  0.35828937  0.91663817  1
  S  S117  1  0.13642245  0.86476392  0.25033203  1
  S  S118  1  0.13777369  0.85950403  0.58057174  1
  S  S119  1  0.13999179  0.86015421  0.91426605  1
  S  S120  1  0.64415900  0.35852041  0.24771153  1
  S  S121  1  0.64467555  0.35674064  0.57980618  1
  S  S122  1  0.64273650  0.35036338  0.91636188  1
  S  S123  1  0.63820874  0.86187396  0.25168943  1
  S  S124  1  0.64213087  0.85407128  0.58704021  1
  S  S125  1  0.64397789  0.85917589  0.91434087  1
  S  S126  1  0.07306025  0.17021670  0.04320594  1
  S  S127  1  0.06385608  0.17394689  0.37656644  1
  S  S128  1  0.06692011  0.17484422  0.71169191  1
  S  S129  1  0.07178307  0.67151470  0.04329114  1
  S  S130  1  0.06753196  0.66288891  0.37363727  1
  S  S131  1  0.06775334  0.66773288  0.70881667  1
  S  S132  1  0.57242869  0.16910850  0.04393272  1
  S  S133  1  0.57183614  0.16845510  0.37248681  1
  S  S134  1  0.56722798  0.16391495  0.70866134  1
  S  S135  1  0.55904042  0.67982927  0.05288067  1
  S  S136  1  0.55953404  0.66562154  0.37520881  1
  S  S137  1  0.55889417  0.67281491  0.70461044  1
  S  S138  1  0.33020497  0.43243991  0.12392742  1
  S  S139  1  0.33719780  0.43281410  0.46425347  1
  S  S140  1  0.32851265  0.42774139  0.79123201  1
  S  S141  1  0.32723959  0.93664680  0.12504409  1
  S  S142  1  0.31619411  0.93531646  0.45242799  1
  S  S143  1  0.32654615  0.93369585  0.78763894  1
  S  S144  1  0.83415388  0.43967401  0.12404298  1
  S  S145  1  0.82975148  0.43480874  0.45787048  1
  S  S146  1  0.82570583  0.42746079  0.79099017  1
  S  S147  1  0.83002422  0.92501938  0.12279266  1
  S  S148  1  0.84485943  0.94116505  0.45963595  1
  S  S149  1  0.83578838  0.93482651  0.79296222  1
  S  S150  1  0.44337732  0.32952032  0.28887071  1
  S  S151  1  0.43421609  0.33501232  0.62798243  1
  S  S152  1  0.43533538  0.32491226  0.95587397  1
  S  S153  1  0.43157968  0.83323154  0.29374601  1
  S  S154  1  0.43212564  0.83128083  0.62585248  1
  S  S155  1  0.42910271  0.83703118  0.95990392  1
  S  S156  1  0.93091477  0.33323952  0.29451113  1
  S  S157  1  0.92936243  0.33614084  0.62536604  1
  S  S158  1  0.93172746  0.33298761  0.96091006  1
  S  S159  1  0.93173961  0.82759827  0.28625275  1
  S  S160  1  0.93269054  0.82029374  0.61882080  1
  S  S161  1  0.93495249  0.82704636  0.95200940  1
  S  S162  1  0.16906199  0.07148297  0.20993036  1
  S  S163  1  0.16712592  0.07106230  0.54255475  1
  S  S164  1  0.17003084  0.07048792  0.87546935  1
  S  S165  1  0.16336179  0.56819742  0.20895334  1
  S  S166  1  0.16983344  0.56660728  0.54358099  1
  S  S167  1  0.17014182  0.56602819  0.87799222  1
  S  S168  1  0.67306739  0.06461990  0.20890355  1
  S  S169  1  0.67365033  0.06008478  0.54195190  1
  S  S170  1  0.67797499  0.06689166  0.87521696  1
  S  S171  1  0.66041771  0.56255487  0.20764841  1
  S  S172  1  0.66189005  0.57267270  0.53693301  1
  S  S173  1  0.67071209  0.56307691  0.88159699  1
  O  O174  1  0.37064020  0.21944326  0.07581508  1
  O  O175  1  0.37249860  0.21950070  0.40027905  1
  O  O176  1  0.36700355  0.22007279  0.74275725  1
  O  O177  1  0.36056217  0.72050327  0.07915093  1
  O  O178  1  0.35403028  0.72312264  0.41451524  1
  O  O179  1  0.36474258  0.72515167  0.75470350  1
  O  O180  1  0.86422616  0.21011175  0.07607393  1
  O  O181  1  0.87105322  0.22044695  0.40769434  1
  O  O182  1  0.86780606  0.22405560  0.74317667  1
  O  O183  1  0.87750060  0.71297767  0.06124995  1
  O  O184  1  0.87257256  0.71666856  0.40796621  1
  O  O185  1  0.87289472  0.71950057  0.74137208  1
  O  O186  1  0.28380423  0.13193259  0.09297060  1
  O  O187  1  0.27420240  0.13871813  0.41126211  1
  O  O188  1  0.27911990  0.13091251  0.75744345  1
  O  O189  1  0.27624328  0.62841092  0.09405679  1
  O  O190  1  0.27735618  0.62618920  0.43300951  1
  O  O191  1  0.27803257  0.63159975  0.76404564  1
  O  O192  1  0.78358269  0.11944365  0.09811232  1
  O  O193  1  0.78403712  0.13296871  0.42507479  1
  O  O194  1  0.78007328  0.13147380  0.75242186  1
  O  O195  1  0.78215067  0.64093199  0.08629819  1
  O  O196  1  0.78415200  0.62756469  0.42461875  1
  O  O197  1  0.78541156  0.63400957  0.76311537  1
  O  O198  1  0.12805856  0.27830554  0.26664492  1
  O  O199  1  0.12952857  0.28786971  0.59748694  1
  O  O200  1  0.12981235  0.27824225  0.92271773  1
  O  O201  1  0.12700778  0.78738328  0.26172311  1
  O  O202  1  0.13056468  0.78180988  0.59077386  1
  O  O203  1  0.13165734  0.78176905  0.92363370  1
  O  O204  1  0.63820832  0.27776682  0.25269241  1
  O  O205  1  0.64367772  0.27656478  0.58182415  1
  O  O206  1  0.63802175  0.26815325  0.91903985  1
  O  O207  1  0.62841867  0.78250488  0.25691455  1
  O  O208  1  0.62062140  0.77470754  0.59524628  1
  O  O209  1  0.63825323  0.78158022  0.92166244  1
  O  O210  1  0.22256485  0.36191269  0.25190474  1
  O  O211  1  0.21902641  0.37485317  0.58205442  1
  O  O212  1  0.21944722  0.36605268  0.90841546  1
  O  O213  1  0.21644290  0.87214427  0.24384783  1
  O  O214  1  0.21652949  0.87066640  0.57249117  1
  O  O215  1  0.21986110  0.86905069  0.90801892  1
  O  O216  1  0.72118568  0.36898132  0.23515123  1
  O  O217  1  0.72025170  0.37464244  0.56547662  1
  O  O218  1  0.72493954  0.36348971  0.91314739  1
  O  O219  1  0.71536486  0.87001841  0.23934486  1
  O  O220  1  0.72312398  0.85472936  0.58880451  1
  O  O221  1  0.72177609  0.87256193  0.90309026  1
  O  O222  1  0.42255516  0.12926832  0.14880514  1
  O  O223  1  0.41075498  0.13675553  0.48228522  1
  O  O224  1  0.41751603  0.13120333  0.81615550  1
  O  O225  1  0.41449955  0.63215371  0.15306289  1
  O  O226  1  0.41646128  0.63812692  0.48810364  1
  O  O227  1  0.41674009  0.62854219  0.81812404  1
  O  O228  1  0.92203164  0.12888342  0.15490792  1
  O  O229  1  0.92272803  0.13576543  0.48539566  1
  O  O230  1  0.91645337  0.14038685  0.82295864  1
  O  O231  1  0.91887562  0.63574298  0.14917639  1
  O  O232  1  0.92245287  0.62611446  0.48090399  1
  O  O233  1  0.92429699  0.62880541  0.81382714  1
  O  O234  1  0.36835122  0.08156715  0.01378274  1
  O  O235  1  0.36700733  0.08116930  0.34567102  1
  O  O236  1  0.36426478  0.08188506  0.67947093  1
  O  O237  1  0.36176417  0.58295526  0.01588503  1
  O  O238  1  0.36155837  0.58578080  0.35272103  1
  O  O239  1  0.36041871  0.58865140  0.68257926  1
  O  O240  1  0.86979809  0.07279491  0.01909797  1
  O  O241  1  0.87161449  0.08194466  0.34945252  1
  O  O242  1  0.87643447  0.08745907  0.68622551  1
  O  O243  1  0.86896475  0.57334254  0.01500171  1
  O  O244  1  0.86937914  0.57934631  0.34594813  1
  O  O245  1  0.86327160  0.58138485  0.67908531  1
  O  O246  1  0.08455145  0.36506007  0.18953741  1
  O  O247  1  0.08086955  0.37191700  0.51783412  1
  O  O248  1  0.08150113  0.36703126  0.84886601  1
  O  O249  1  0.07891459  0.87010685  0.17972133  1
  O  O250  1  0.07847173  0.86422552  0.51093681  1
  O  O251  1  0.08215642  0.86789779  0.84564854  1
  O  O252  1  0.58232240  0.36762324  0.18194046  1
  O  O253  1  0.58146565  0.36560411  0.51290843  1
  O  O254  1  0.58709329  0.35769553  0.84671428  1
  O  O255  1  0.57659184  0.87629470  0.18776538  1
  O  O256  1  0.58935854  0.86234071  0.51768267  1
  O  O257  1  0.58323835  0.86888621  0.84808102  1
  O  O258  1  0.13494931  0.41665358  0.32502683  1
  O  O259  1  0.12770655  0.42624404  0.65309726  1
  O  O260  1  0.13381489  0.41570613  0.98603065  1
  O  O261  1  0.12472127  0.92669213  0.31468183  1
  O  O262  1  0.12876584  0.92052699  0.64728527  1
  O  O263  1  0.13076082  0.92028564  0.98140276  1
  O  O264  1  0.63991421  0.41484500  0.31821189  1
  O  O265  1  0.63762523  0.41315928  0.64788595  1
  O  O266  1  0.63157198  0.40362320  0.98362104  1
  O  O267  1  0.63447512  0.92033585  0.32222351  1
  O  O268  1  0.63088920  0.91395816  0.65473701  1
  O  O269  1  0.63810912  0.91911084  0.98411572  1
  O  O270  1  0.04099190  0.19070388  0.10531598  1
  O  O271  1  0.03011375  0.20463352  0.43977543  1
  O  O272  1  0.03035580  0.20353637  0.77259259  1
  O  O273  1  0.03748514  0.70453162  0.10577374  1
  O  O274  1  0.03264450  0.69443532  0.43538721  1
  O  O275  1  0.03213725  0.70064257  0.76985535  1
  O  O276  1  0.53271635  0.20004821  0.10260771  1
  O  O277  1  0.53426740  0.19755504  0.43005934  1
  O  O278  1  0.53012387  0.19552260  0.77159408  1
  O  O279  1  0.52212406  0.71334933  0.11595153  1
  O  O280  1  0.52523486  0.69079089  0.43737635  1
  O  O281  1  0.51859590  0.70590303  0.76074549  1
  O  O282  1  0.29698309  0.46364656  0.05803026  1
  O  O283  1  0.30846289  0.47003744  0.40518614  1
  O  O284  1  0.30074092  0.46886544  0.73328263  1
  O  O285  1  0.29754787  0.97116955  0.06245269  1
  O  O286  1  0.28519657  0.97823809  0.39499774  1
  O  O287  1  0.29638337  0.97057777  0.72622503  1
  O  O288  1  0.79826515  0.46763208  0.05869446  1
  O  O289  1  0.80341617  0.46851375  0.39517867  1
  O  O290  1  0.80760240  0.46600042  0.73287193  1
  O  O291  1  0.80082420  0.96002378  0.06118995  1
  O  O292  1  0.80588246  0.97003876  0.39243140  1
  O  O293  1  0.80690765  0.97386656  0.73640647  1
  O  O294  1  0.47966735  0.29171670  0.22731939  1
  O  O295  1  0.46858107  0.31716271  0.56694007  1
  O  O296  1  0.47172197  0.29487387  0.89496448  1
  O  O297  1  0.46381651  0.79999971  0.22884911  1
  O  O298  1  0.46813259  0.80059811  0.56575281  1
  O  O299  1  0.46613728  0.81634994  0.90133606  1
  O  O300  1  0.96490954  0.30046991  0.23437742  1
  O  O301  1  0.96840359  0.30616504  0.56546155  1
  O  O302  1  0.96567930  0.30445816  0.89711865  1
  O  O303  1  0.96809893  0.79841825  0.22473246  1
  O  O304  1  0.97134956  0.78878771  0.55793215  1
  O  O305  1  0.97389154  0.79757609  0.89219467  1
  O  O306  1  0.19820980  0.03139740  0.26819944  1
  O  O307  1  0.19547830  0.03226604  0.60165749  1
  O  O308  1  0.20160995  0.03192155  0.93556636  1
  O  O309  1  0.18114785  0.53310697  0.26933815  1
  O  O310  1  0.19929258  0.53282526  0.60657079  1
  O  O311  1  0.19724056  0.52829289  0.93808447  1
  O  O312  1  0.70258867  0.03027387  0.27111223  1
  O  O313  1  0.70342658  0.02748608  0.60448753  1
  O  O314  1  0.70704784  0.03352980  0.93836326  1
  O  O315  1  0.69786222  0.53125650  0.27356373  1
  O  O316  1  0.68490434  0.53373038  0.59519623  1
  O  O317  1  0.70646233  0.52004929  0.93756147  1
  O  O318  1  0.09105105  0.08652678  0.02570289  1
  O  O319  1  0.07728091  0.08973526  0.36910170  1
  O  O320  1  0.08537344  0.09336503  0.70556917  1
  O  O321  1  0.08913700  0.59091178  0.04121336  1
  O  O322  1  0.08270439  0.58030106  0.36895389  1
  O  O323  1  0.08638588  0.58673032  0.70815811  1
  O  O324  1  0.58949425  0.08835085  0.04320537  1
  O  O325  1  0.59652070  0.08898213  0.36985277  1
  O  O326  1  0.59360876  0.08664487  0.71321250  1
  O  O327  1  0.58899823  0.60784061  0.06230772  1
  O  O328  1  0.57022292  0.57968891  0.36071067  1
  O  O329  1  0.56418383  0.58974756  0.69694024  1
  O  O330  1  0.40822098  0.40594480  0.12080383  1
  O  O331  1  0.41906301  0.41446932  0.46735800  1
  O  O332  1  0.40740638  0.40513864  0.79511250  1
  O  O333  1  0.40996275  0.92057209  0.13260390  1
  O  O334  1  0.39072508  0.91055242  0.44772168  1
  O  O335  1  0.40513570  0.91123433  0.78925792  1
  O  O336  1  0.91857439  0.43908994  0.13689035  1
  O  O337  1  0.91526333  0.42266542  0.47038836  1
  O  O338  1  0.91021450  0.41268562  0.80647016  1
  O  O339  1  0.91231229  0.90778643  0.12872806  1
  O  O340  1  0.92381268  0.91939811  0.45313385  1
  O  O341  1  0.91772459  0.91483734  0.79727703  1
  O  O342  1  0.43590877  0.41086406  0.29083333  1
  O  O343  1  0.41664255  0.41871419  0.64651224  1
  O  O344  1  0.41690554  0.40631399  0.96074074  1
  O  O345  1  0.40606385  0.91131929  0.28778054  1
  O  O346  1  0.41256900  0.91260440  0.62785793  1
  O  O347  1  0.40633719  0.91916946  0.97097800  1
  O  O348  1  0.91258595  0.41500729  0.29634547  1
  O  O349  1  0.91295872  0.41797307  0.63008832  1
  O  O350  1  0.89866914  0.40953978  0.95940232  1
  O  O351  1  0.91964630  0.91188892  0.29506912  1
  O  O352  1  0.90889375  0.89594654  0.61743255  1
  O  O353  1  0.91991842  0.90897710  0.95696166  1
  O  O354  1  0.08929878  0.09167356  0.20990367  1
  O  O355  1  0.08732801  0.09432702  0.54101410  1
  O  O356  1  0.08995774  0.08893885  0.87407005  1
  O  O357  1  0.07898557  0.58523844  0.19149899  1
  O  O358  1  0.08508801  0.57932339  0.53521647  1
  O  O359  1  0.08845417  0.58547712  0.87031146  1
  O  O360  1  0.59009438  0.08096252  0.20047120  1
  O  O361  1  0.59167926  0.07254222  0.52811741  1
  O  O362  1  0.59555351  0.08351181  0.86749097  1
  O  O363  1  0.58438741  0.58940559  0.21627391  1
  O  O364  1  0.57956282  0.59376809  0.52942539  1
  O  O365  1  0.60534382  0.59985530  0.90263744  1
  O  O366  1  0.14446455  0.22302547  0.05957908  1
  O  O367  1  0.13622874  0.22232734  0.39232817  1
  O  O368  1  0.13739812  0.22735752  0.72731523  1
  O  O369  1  0.14243974  0.72371402  0.05701044  1
  O  O370  1  0.13952049  0.71347365  0.38870726  1
  O  O371  1  0.13717759  0.71930235  0.72125876  1
  O  O372  1  0.64448480  0.22073579  0.06146255  1
  O  O373  1  0.64104317  0.22282281  0.38488538  1
  O  O374  1  0.63646480  0.22044369  0.72664192  1
  O  O375  1  0.62612161  0.73880691  0.06898498  1
  O  O376  1  0.63280844  0.71192424  0.39105143  1
  O  O377  1  0.63550527  0.71813537  0.72549592  1
  O  O378  1  0.27549195  0.36452096  0.11241862  1
  O  O379  1  0.28534055  0.36240911  0.45021967  1
  O  O380  1  0.27135501  0.35830583  0.77082536  1
  O  O381  1  0.27590549  0.86389524  0.10729534  1
  O  O382  1  0.25792024  0.86837131  0.43536377  1
  O  O383  1  0.27013718  0.86748938  0.77464230  1
  O  O384  1  0.79255280  0.36184845  0.10944573  1
  O  O385  1  0.78232078  0.36024996  0.43968432  1
  O  O386  1  0.77356243  0.35487077  0.76968833  1
  O  O387  1  0.77858649  0.85519417  0.10987295  1
  O  O388  1  0.79721130  0.87300246  0.45401743  1
  O  O389  1  0.78461685  0.86306231  0.77755349  1
  O  O390  1  0.36854021  0.28198772  0.27022953  1
  O  O391  1  0.36395340  0.28106084  0.60981864  1
  O  O392  1  0.36343776  0.27295348  0.93942658  1
  O  O393  1  0.36121003  0.78003422  0.27987938  1
  O  O394  1  0.36195735  0.77990065  0.61303085  1
  O  O395  1  0.35901471  0.78156791  0.94162816  1
  O  O396  1  0.85930666  0.28337090  0.28329594  1
  O  O397  1  0.85899822  0.28281570  0.60756160  1
  O  O398  1  0.86655854  0.27394448  0.94748577  1
  O  O399  1  0.85845974  0.77900652  0.26813749  1
  O  O400  1  0.86813456  0.76284673  0.60705435  1
  O  O401  1  0.86357760  0.77566699  0.93402030  1
  O  O402  1  0.22302758  0.14166467  0.22663376  1
  O  O403  1  0.22240528  0.13840900  0.55652428  1
  O  O404  1  0.22361647  0.14108926  0.89256690  1
  O  O405  1  0.21566101  0.64035547  0.22786383  1
  O  O406  1  0.21704088  0.63951696  0.55856515  1
  O  O407  1  0.22369470  0.63639548  0.89537949  1
  O  O408  1  0.72378047  0.13694478  0.22524027  1
  O  O409  1  0.72488540  0.13367992  0.55838453  1
  O  O410  1  0.73043365  0.13793560  0.89105228  1
  O  O411  1  0.71461394  0.62764645  0.21502365  1
  O  O412  1  0.71669416  0.64134693  0.55395235  1
  O  O413  1  0.73237644  0.62542156  0.89197119  1
  O  O414  1  0.49444953  0.32696459  0.02828693  1
  O  O415  1  0.49794543  0.32672113  0.36174882  1
  O  O416  1  0.49514174  0.32888212  0.69732580  1
  O  O417  1  0.48730275  0.84045418  0.03401737  1
  O  O418  1  0.49350048  0.84474264  0.36427340  1
  O  O419  1  0.49193744  0.84065356  0.70098983  1
  O  O420  1  0.99473533  0.34762376  0.03162505  1
  O  O421  1  0.99037602  0.34131495  0.36974004  1
  O  O422  1  0.98787718  0.33900587  0.69911410  1
  O  O423  1  0.99357319  0.82851969  0.02492222  1
  O  O424  1  0.99007429  0.82442874  0.35724076  1
  O  O425  1  0.99561736  0.82706836  0.69225083  1
  O  O426  1  0.16379084  0.01357092  0.13541285  1
  O  O427  1  0.15679304  0.01139357  0.46736058  1
  O  O428  1  0.16694875  0.01189369  0.80238905  1
  O  O429  1  0.16884360  0.50858987  0.13890310  1
  O  O430  1  0.17074178  0.50584711  0.47299738  1
  O  O431  1  0.16883944  0.50665327  0.80563349  1
  O  O432  1  0.67231399  0.00514253  0.13710570  1
  O  O433  1  0.68365670  0.00063854  0.47304479  1
  O  O434  1  0.67692786  0.00611086  0.80399539  1
  O  O435  1  0.64430703  0.49696890  0.13797170  1
  O  O436  1  0.65922410  0.51344719  0.46294110  1
  O  O437  1  0.64407498  0.50679667  0.80523902  1
  O  O438  1  0.00357014  0.17296355  0.30516508  1
  O  O439  1  0.00660667  0.17319189  0.63953497  1
  O  O440  1  0.01170755  0.17444335  0.97374691  1
  O  O441  1  0.00835475  0.66172139  0.30109217  1
  O  O442  1  0.00733170  0.65863646  0.63454061  1
  O  O443  1  0.01154555  0.66816765  0.97095460  1
  O  O444  1  0.51252332  0.15866311  0.29634613  1
  O  O445  1  0.50789476  0.15620363  0.63784940  1
  O  O446  1  0.51552505  0.16532074  0.96975209  1
  O  O447  1  0.49875794  0.67037729  0.30536343  1
  O  O448  1  0.50681311  0.67746471  0.62924163  1
  O  O449  1  0.49871736  0.67052551  0.98183428  1
  O  O450  1  0.34229864  0.49608882  0.19385235  1
  O  O451  1  0.34166901  0.49198275  0.53869907  1
  O  O452  1  0.33053594  0.48527932  0.86491675  1
  O  O453  1  0.32616960  0.99549995  0.19597715  1
  O  O454  1  0.32297117  0.99332123  0.52755848  1
  O  O455  1  0.33231372  0.99570965  0.86039249  1
  O  O456  1  0.82090327  0.49600847  0.19196282  1
  O  O457  1  0.82492466  0.49266304  0.52814944  1
  O  O458  1  0.81913852  0.48355540  0.86261612  1
  O  O459  1  0.83481817  0.98707649  0.19585753  1
  O  O460  1  0.85917425  1.00772203  0.52836406  1
  O  O461  1  0.84330316  0.99225046  0.86947459  1
