# generated using pymatgen
data_Na31Fe20(SO4)36
_symmetry_space_group_name_H-M   'P 1'
_cell_length_a   18.09017338
_cell_length_b   18.09082483
_cell_length_c   19.72867549
_cell_angle_alpha   107.61492198
_cell_angle_beta   107.56741189
_cell_angle_gamma   90.70914848
_symmetry_Int_Tables_number   1
_chemical_formula_structural   Na31Fe20(SO4)36
_chemical_formula_sum   'Na62 Fe40 S72 O288'
_cell_volume   5828.45396290
_cell_formula_units_Z   2
loop_
 _symmetry_equiv_pos_site_id
 _symmetry_equiv_pos_as_xyz
  1  'x, y, z'
loop_
 _atom_site_type_symbol
 _atom_site_label
 _atom_site_symmetry_multiplicity
 _atom_site_fract_x
 _atom_site_fract_y
 _atom_site_fract_z
 _atom_site_occupancy
  Na  Na0  1  0.12119288  0.37310383  0.08965879  1
  Na  Na1  1  0.12858344  0.35314466  0.40349222  1
  Na  Na2  1  0.13600429  0.36288858  0.74570104  1
  Na  Na3  1  0.13503979  0.86297023  0.08779977  1
  Na  Na4  1  0.13627598  0.86535484  0.41853338  1
  Na  Na5  1  0.14880773  0.87815496  0.77251067  1
  Na  Na6  1  0.63820423  0.35890375  0.07628388  1
  Na  Na7  1  0.62946021  0.35985964  0.40889423  1
  Na  Na8  1  0.63306761  0.37041676  0.75040527  1
  Na  Na9  1  0.62494662  0.85761302  0.06901881  1
  Na  Na10  1  0.63847243  0.86743326  0.41705371  1
  Na  Na11  1  0.63602887  0.86452885  0.75240085  1
  Na  Na12  1  0.33598476  0.12424460  0.21547506  1
  Na  Na13  1  0.36254097  0.13739145  0.58107877  1
  Na  Na14  1  0.35992347  0.13435156  0.91832596  1
  Na  Na15  1  0.36394730  0.63300045  0.24651230  1
  Na  Na16  1  0.37776382  0.60343291  0.58115229  1
  Na  Na17  1  0.37432210  0.63938710  0.92466601  1
  Na  Na18  1  0.85526142  0.14143006  0.25275063  1
  Na  Na19  1  0.85067558  0.12773924  0.56754403  1
  Na  Na20  1  0.88736168  0.17923985  0.97589386  1
  Na  Na21  1  0.87508315  0.62604210  0.24563878  1
  Na  Na22  1  0.87405593  0.62989040  0.58517895  1
  Na  Na23  1  0.87316056  0.64411811  0.93249559  1
  Na  Na24  1  0.97608798  0.01105068  0.76657279  1
  Na  Na25  1  0.98306130  0.01477546  0.40229482  1
  Na  Na26  1  0.49024760  0.00586891  0.75587165  1
  Na  Na27  1  0.49134381  0.01293584  0.41554418  1
  Na  Na28  1  1.03004316  0.18868119  0.19831754  1
  Na  Na29  1  1.00354405  0.51103619  0.72974595  1
  Na  Na30  1  0.50145730  0.50575332  0.07056877  1
  Na  Na31  1  1.01583797  0.49502772  0.39719517  1
  Na  Na32  1  0.45870580  0.00630317  0.08577105  1
  Na  Na33  1  0.47886257  0.53601925  0.78021624  1
  Na  Na34  1  0.00478219  0.49346395  0.92320439  1
  Na  Na35  1  0.51384279  0.98907450  0.58530404  1
  Na  Na36  1  0.08493897  1.00436825  0.98723155  1
  Na  Na37  1  0.01011723  0.95742313  0.19740716  1
  Na  Na38  1  0.50248702  0.48368086  0.26537427  1
  Na  Na39  1  0.54370662  0.99219457  0.26304471  1
  Na  Na40  1  0.01336988  0.99117394  0.58623682  1
  Na  Na41  1  0.48054508  0.99697520  0.92937646  1
  Na  Na42  1  0.75950006  0.75268712  0.32645747  1
  Na  Na43  1  0.74703019  0.74564517  0.00088827  1
  Na  Na44  1  0.74907900  0.24991380  0.66412297  1
  Na  Na45  1  0.26103664  0.75597829  0.32193767  1
  Na  Na46  1  0.24530556  0.74374665  0.67200023  1
  Na  Na47  1  0.26073789  0.26900651  0.65866542  1
  Na  Na48  1  0.24992225  0.75437625  0.01096185  1
  Na  Na49  1  0.74273148  0.73897167  0.67080583  1
  Na  Na50  1  0.23599818  0.22798865  0.03009476  1
  Na  Na51  1  0.25161070  0.25608150  0.30818917  1
  Na  Na52  1  0.74271796  0.24263114  0.84535206  1
  Na  Na53  1  0.76604135  0.26129897  0.15616529  1
  Na  Na54  1  0.25373720  0.74605690  0.83861748  1
  Na  Na55  1  0.74202846  0.74372440  0.84118523  1
  Na  Na56  1  0.75409733  0.74985229  0.50096790  1
  Na  Na57  1  0.75378211  0.25383872  0.47897039  1
  Na  Na58  1  0.24125085  0.24304707  0.84134326  1
  Na  Na59  1  0.75951863  0.75515846  0.16177029  1
  Na  Na60  1  0.26057389  0.26847605  0.49031323  1
  Na  Na61  1  0.24922408  0.74020976  0.50469526  1
  Fe  Fe62  1  0.96591067  0.80756774  0.45260340  1
  Fe  Fe63  1  0.46262226  0.31200947  0.45501831  1
  Fe  Fe64  1  0.96609003  0.81098738  0.79233960  1
  Fe  Fe65  1  0.96351766  0.30537462  0.44880343  1
  Fe  Fe66  1  0.46588931  0.80290715  0.45102537  1
  Fe  Fe67  1  0.46960320  0.80305469  0.11956202  1
  Fe  Fe68  1  0.46376252  0.31583883  0.78747662  1
  Fe  Fe69  1  0.46599019  0.30685768  0.11805892  1
  Fe  Fe70  1  0.96423531  0.30657487  0.78301073  1
  Fe  Fe71  1  0.46792624  0.79795532  0.78982231  1
  Fe  Fe72  1  0.69222807  0.53387774  0.71273483  1
  Fe  Fe73  1  0.69345656  0.53444659  0.04593506  1
  Fe  Fe74  1  0.19557909  0.53154753  0.70568302  1
  Fe  Fe75  1  0.18803580  0.03678278  0.37847632  1
  Fe  Fe76  1  0.69257247  0.03555727  0.71965361  1
  Fe  Fe77  1  0.19579142  0.53425279  0.05025047  1
  Fe  Fe78  1  0.19742743  0.03654949  0.71747483  1
  Fe  Fe79  1  0.69667641  0.53178321  0.38066352  1
  Fe  Fe80  1  0.19205135  0.53327126  0.37638553  1
  Fe  Fe81  1  0.68349478  0.03106981  0.04499511  1
  Fe  Fe82  1  0.53614123  0.19737500  0.88430468  1
  Fe  Fe83  1  0.53364321  0.68704291  0.54470992  1
  Fe  Fe84  1  0.03490000  0.19153192  0.54617443  1
  Fe  Fe85  1  0.53548448  0.19214030  0.21760630  1
  Fe  Fe86  1  0.53357204  0.19385103  0.54783089  1
  Fe  Fe87  1  0.03477170  0.69894112  0.20878642  1
  Fe  Fe88  1  0.03250198  0.19702517  0.88924422  1
  Fe  Fe89  1  0.53739518  0.68909262  0.21443612  1
  Fe  Fe90  1  0.03483772  0.69444966  0.54601309  1
  Fe  Fe91  1  0.03438521  0.69421846  0.88321893  1
  Fe  Fe92  1  0.31082925  0.96455190  0.61932403  1
  Fe  Fe93  1  0.81285025  0.96507003  0.95962260  1
  Fe  Fe94  1  0.80596247  0.46381041  0.61602874  1
  Fe  Fe95  1  0.80219263  0.96627314  0.61937034  1
  Fe  Fe96  1  0.30504677  0.46117937  0.28488152  1
  Fe  Fe97  1  0.80839729  0.46237676  0.28063589  1
  Fe  Fe98  1  0.79485077  0.96773244  0.28540699  1
  Fe  Fe99  1  0.81196011  0.46436374  0.95654289  1
  Fe  Fe100  1  0.30781099  0.96231346  0.28410319  1
  Fe  Fe101  1  0.30580851  0.46489201  0.95129967  1
  S  S102  1  0.36614735  0.14105571  0.07925580  1
  S  S103  1  0.35755277  0.13973252  0.41911482  1
  S  S104  1  0.36194660  0.14358344  0.75020803  1
  S  S105  1  0.36364582  0.63646912  0.08402063  1
  S  S106  1  0.35923573  0.63775707  0.41415558  1
  S  S107  1  0.35493016  0.64241865  0.74952855  1
  S  S108  1  0.84671801  0.13497316  0.08943614  1
  S  S109  1  0.86024574  0.13723015  0.41780926  1
  S  S110  1  0.85686099  0.14094159  0.74789072  1
  S  S111  1  0.86166355  0.64008549  0.08437374  1
  S  S112  1  0.86011006  0.64103975  0.41609540  1
  S  S113  1  0.86237402  0.63939763  0.74894730  1
  S  S114  1  0.13775965  0.36368529  0.25281984  1
  S  S115  1  0.13666549  0.35745523  0.58375653  1
  S  S116  1  0.13866268  0.36170577  0.91318332  1
  S  S117  1  0.14855403  0.85772650  0.25858366  1
  S  S118  1  0.14177726  0.86175097  0.58472698  1
  S  S119  1  0.14468603  0.85204519  0.91490687  1
  S  S120  1  0.63807830  0.35924003  0.24880045  1
  S  S121  1  0.64197167  0.35791881  0.58142345  1
  S  S122  1  0.63913741  0.36188702  0.91456585  1
  S  S123  1  0.64245805  0.85226423  0.25197182  1
  S  S124  1  0.63924689  0.85741928  0.58427583  1
  S  S125  1  0.64032019  0.86166351  0.91148588  1
  S  S126  1  0.06053651  0.17993442  0.04386681  1
  S  S127  1  0.06480746  0.16666557  0.37712400  1
  S  S128  1  0.06554468  0.16856940  0.70676991  1
  S  S129  1  0.07439994  0.66799886  0.04014644  1
  S  S130  1  0.06951715  0.67641381  0.37754727  1
  S  S131  1  0.06922234  0.67471727  0.71028514  1
  S  S132  1  0.56598338  0.17112855  0.04161895  1
  S  S133  1  0.55700845  0.17005959  0.37829916  1
  S  S134  1  0.56524195  0.16884603  0.70943718  1
  S  S135  1  0.56823224  0.66502764  0.04360039  1
  S  S136  1  0.57029105  0.66863163  0.37731984  1
  S  S137  1  0.56865751  0.66849767  0.70802589  1
  S  S138  1  0.33248869  0.43148196  0.12383209  1
  S  S139  1  0.32208374  0.42785959  0.45143676  1
  S  S140  1  0.32832792  0.43611945  0.79218798  1
  S  S141  1  0.34716087  0.93064271  0.13514756  1
  S  S142  1  0.33751252  0.93338892  0.46040968  1
  S  S143  1  0.33636102  0.93564887  0.78826610  1
  S  S144  1  0.82669864  0.43206478  0.12034332  1
  S  S145  1  0.82772889  0.43104309  0.45635043  1
  S  S146  1  0.83241011  0.43572790  0.78930525  1
  S  S147  1  0.81581153  0.92607188  0.12042962  1
  S  S148  1  0.83165344  0.92927467  0.45959256  1
  S  S149  1  0.82526688  0.93055578  0.78896847  1
  S  S150  1  0.43093032  0.32750111  0.28925428  1
  S  S151  1  0.43559750  0.33103882  0.62438882  1
  S  S152  1  0.43209596  0.33088574  0.95577877  1
  S  S153  1  0.43772419  0.82706164  0.29501562  1
  S  S154  1  0.43477442  0.82946954  0.62425154  1
  S  S155  1  0.43516961  0.83068252  0.95852080  1
  S  S156  1  0.92841338  0.33096352  0.29181278  1
  S  S157  1  0.92810200  0.32618102  0.62118009  1
  S  S158  1  0.93353220  0.33446744  0.95034239  1
  S  S159  1  0.93273137  0.83274852  0.29275081  1
  S  S160  1  0.93487996  0.83477497  0.62850198  1
  S  S161  1  0.93296310  0.82952955  0.95790040  1
  S  S162  1  0.16694377  0.05589359  0.21194041  1
  S  S163  1  0.17131921  0.06727074  0.54586165  1
  S  S164  1  0.16465876  0.07378392  0.87377043  1
  S  S165  1  0.17332028  0.57198731  0.21107722  1
  S  S166  1  0.16452775  0.56993366  0.53834977  1
  S  S167  1  0.17143847  0.56728797  0.87311651  1
  S  S168  1  0.65908713  0.06074429  0.20328197  1
  S  S169  1  0.66220261  0.06154987  0.54410191  1
  S  S170  1  0.66333388  0.06975027  0.87378914  1
  S  S171  1  0.66937908  0.56301101  0.20903036  1
  S  S172  1  0.67613528  0.56844179  0.54265191  1
  S  S173  1  0.67641989  0.56665269  0.87685498  1
  O  O174  1  0.37608112  0.22185585  0.07168415  1
  O  O175  1  0.36280943  0.22043852  0.41504750  1
  O  O176  1  0.37047158  0.22192035  0.74138439  1
  O  O177  1  0.37349692  0.71357006  0.07298327  1
  O  O178  1  0.37037498  0.71716803  0.40643706  1
  O  O179  1  0.36599467  0.72435731  0.74545969  1
  O  O180  1  0.84870821  0.21249876  0.08131739  1
  O  O181  1  0.87195784  0.21617379  0.41125658  1
  O  O182  1  0.86599559  0.21882012  0.73797328  1
  O  O183  1  0.86439365  0.71459307  0.07001105  1
  O  O184  1  0.86886255  0.72128684  0.41009229  1
  O  O185  1  0.87202370  0.71689942  0.73802021  1
  O  O186  1  0.28823423  0.13095762  0.08457937  1
  O  O187  1  0.28142081  0.12782108  0.43240360  1
  O  O188  1  0.28359954  0.13417257  0.75940586  1
  O  O189  1  0.28479505  0.62686819  0.09003559  1
  O  O190  1  0.27941709  0.63098726  0.42077319  1
  O  O191  1  0.26967873  0.63497120  0.74522987  1
  O  O192  1  0.76763316  0.11983675  0.09774403  1
  O  O193  1  0.78821302  0.12930156  0.43511180  1
  O  O194  1  0.77749065  0.13277829  0.75520753  1
  O  O195  1  0.78467005  0.62749172  0.09707108  1
  O  O196  1  0.78004238  0.63136920  0.42180975  1
  O  O197  1  0.78143192  0.63146137  0.75267731  1
  O  O198  1  0.12807761  0.28849538  0.26604656  1
  O  O199  1  0.12217663  0.28212364  0.59951711  1
  O  O200  1  0.12917763  0.28135285  0.91612017  1
  O  O201  1  0.13340108  0.77990460  0.26745054  1
  O  O202  1  0.13249248  0.78168176  0.58976682  1
  O  O203  1  0.13325155  0.76749486  0.91206160  1
  O  O204  1  0.62723945  0.28287606  0.25982178  1
  O  O205  1  0.63217749  0.27878727  0.58971081  1
  O  O206  1  0.62985125  0.28276272  0.92209698  1
  O  O207  1  0.63377767  0.77208963  0.25921686  1
  O  O208  1  0.63122759  0.77785026  0.59061865  1
  O  O209  1  0.64303836  0.78634201  0.92457493  1
  O  O210  1  0.22115751  0.37139203  0.25081292  1
  O  O211  1  0.21511883  0.35958953  0.57760455  1
  O  O212  1  0.21775317  0.37105803  0.90491712  1
  O  O213  1  0.23175380  0.86272688  0.26039430  1
  O  O214  1  0.21882603  0.87006049  0.57266618  1
  O  O215  1  0.21440817  0.86181955  0.89426733  1
  O  O216  1  0.71615325  0.36846132  0.24056783  1
  O  O217  1  0.72154023  0.36523073  0.57329933  1
  O  O218  1  0.71764441  0.37119087  0.90600501  1
  O  O219  1  0.72443529  0.86117792  0.25029736  1
  O  O220  1  0.71786056  0.86760663  0.57563475  1
  O  O221  1  0.71637784  0.88103750  0.90042718  1
  O  O222  1  0.42470497  0.13625045  0.15091886  1
  O  O223  1  0.42011993  0.12945443  0.48502823  1
  O  O224  1  0.42174181  0.13489958  0.81757671  1
  O  O225  1  0.42220522  0.63081552  0.15376388  1
  O  O226  1  0.41660751  0.63201242  0.48371448  1
  O  O227  1  0.40375262  0.63556313  0.82103914  1
  O  O228  1  0.90606829  0.12594619  0.15498086  1
  O  O229  1  0.92660390  0.12326022  0.47974820  1
  O  O230  1  0.91624271  0.13184524  0.81430282  1
  O  O231  1  0.92322043  0.63911961  0.15417127  1
  O  O232  1  0.91755227  0.63564919  0.48579729  1
  O  O233  1  0.91876655  0.63270654  0.81861407  1
  O  O234  1  0.38231200  0.08419803  0.01573226  1
  O  O235  1  0.36484806  0.08287282  0.35023794  1
  O  O236  1  0.36977834  0.08372897  0.68217540  1
  O  O237  1  0.37503407  0.57497997  0.01875803  1
  O  O238  1  0.36756212  0.57884758  0.34670774  1
  O  O239  1  0.37060658  0.58575069  0.68656806  1
  O  O240  1  0.85443499  0.07730656  0.01890015  1
  O  O241  1  0.86205871  0.07840418  0.34603784  1
  O  O242  1  0.86347012  0.08051748  0.67900408  1
  O  O243  1  0.87131514  0.57680559  0.01948240  1
  O  O244  1  0.86994321  0.58321450  0.34899053  1
  O  O245  1  0.87411578  0.57811727  0.68348645  1
  O  O246  1  0.08373181  0.37220352  0.18589554  1
  O  O247  1  0.07838554  0.36226916  0.51421243  1
  O  O248  1  0.07983816  0.37351423  0.84639822  1
  O  O249  1  0.09611356  0.86603335  0.18963661  1
  O  O250  1  0.08036340  0.87343920  0.51971268  1
  O  O251  1  0.07642709  0.86954136  0.85712764  1
  O  O252  1  0.57864437  0.36737049  0.18028953  1
  O  O253  1  0.58381098  0.36637312  0.51408425  1
  O  O254  1  0.58067596  0.36837826  0.84549054  1
  O  O255  1  0.58848249  0.85742978  0.18022469  1
  O  O256  1  0.57952422  0.86653253  0.51719025  1
  O  O257  1  0.57878522  0.86099499  0.84079290  1
  O  O258  1  0.12980070  0.42581026  0.32168477  1
  O  O259  1  0.12850695  0.42070106  0.64993891  1
  O  O260  1  0.13185857  0.41954957  0.98233602  1
  O  O261  1  0.13794333  0.91770948  0.32598770  1
  O  O262  1  0.13635980  0.91924394  0.65469476  1
  O  O263  1  0.14900724  0.90088721  0.99040866  1
  O  O264  1  0.62845526  0.42150078  0.31519773  1
  O  O265  1  0.63759888  0.41669824  0.65089541  1
  O  O266  1  0.62913768  0.42026343  0.98159855  1
  O  O267  1  0.62906608  0.91015112  0.31584059  1
  O  O268  1  0.63062693  0.91583226  0.65237879  1
  O  O269  1  0.62352651  0.92192684  0.97442047  1
  O  O270  1  0.00738281  0.21340062  0.08471576  1
  O  O271  1  0.03385626  0.20167093  0.44257133  1
  O  O272  1  0.02686261  0.19848907  0.76511689  1
  O  O273  1  0.04382134  0.69358060  0.10314745  1
  O  O274  1  0.02925682  0.70514828  0.43704235  1
  O  O275  1  0.02883915  0.70106254  0.76834111  1
  O  O276  1  0.53481875  0.20330344  0.10579105  1
  O  O277  1  0.52098308  0.20833945  0.43944581  1
  O  O278  1  0.53135119  0.20017480  0.77134505  1
  O  O279  1  0.53535114  0.69749786  0.10874004  1
  O  O280  1  0.53255679  0.69718184  0.43769515  1
  O  O281  1  0.52935735  0.69526993  0.76498996  1
  O  O282  1  0.30060478  0.46738692  0.06226934  1
  O  O283  1  0.29787613  0.47102023  0.39398085  1
  O  O284  1  0.29671050  0.47199910  0.73330515  1
  O  O285  1  0.32995590  0.96408989  0.07496927  1
  O  O286  1  0.30971554  0.97074585  0.40148980  1
  O  O287  1  0.30472688  0.97000479  0.72406038  1
  O  O288  1  0.78844411  0.46872992  0.05862393  1
  O  O289  1  0.79903037  0.46928027  0.39593247  1
  O  O290  1  0.80058146  0.47083653  0.72721201  1
  O  O291  1  0.78160353  0.95958519  0.05729971  1
  O  O292  1  0.81136470  0.96168271  0.39780335  1
  O  O293  1  0.79653225  0.97018903  0.72903839  1
  O  O294  1  0.47000043  0.29977513  0.22964838  1
  O  O295  1  0.47356808  0.29662627  0.56376074  1
  O  O296  1  0.46930621  0.30312053  0.89482274  1
  O  O297  1  0.47329155  0.79785325  0.23345362  1
  O  O298  1  0.46823418  0.79723009  0.56100993  1
  O  O299  1  0.47052284  0.80157049  0.89827866  1
  O  O300  1  0.96008672  0.30380338  0.23114300  1
  O  O301  1  0.96227912  0.29676734  0.55944858  1
  O  O302  1  0.96700474  0.29824475  0.88557855  1
  O  O303  1  0.97299521  0.80671199  0.23662554  1
  O  O304  1  0.97141411  0.80463628  0.56757757  1
  O  O305  1  0.96514050  0.79349766  0.89238072  1
  O  O306  1  0.20589453  0.02247084  0.27730034  1
  O  O307  1  0.20161531  0.03051273  0.60686275  1
  O  O308  1  0.17241202  0.03829339  0.93173094  1
  O  O309  1  0.20212164  0.53223271  0.26996412  1
  O  O310  1  0.18491896  0.53411589  0.59764210  1
  O  O311  1  0.20032061  0.53040676  0.93398571  1
  O  O312  1  0.68813575  0.02222962  0.26168888  1
  O  O313  1  0.69390301  0.02883330  0.60909656  1
  O  O314  1  0.69296446  0.03819213  0.93649275  1
  O  O315  1  0.70302414  0.52887876  0.27133361  1
  O  O316  1  0.70492645  0.53104824  0.60339102  1
  O  O317  1  0.71116804  0.53066024  0.93819821  1
  O  O318  1  0.09817854  0.11769079  0.06930471  1
  O  O319  1  0.08160952  0.08496088  0.37778692  1
  O  O320  1  0.08543347  0.08692715  0.70091384  1
  O  O321  1  0.09439370  0.58532781  0.02868180  1
  O  O322  1  0.08697669  0.59553348  0.37304376  1
  O  O323  1  0.09012558  0.59461304  0.70689731  1
  O  O324  1  0.57766152  0.08748352  0.03324421  1
  O  O325  1  0.56601103  0.08926979  0.37849572  1
  O  O326  1  0.58093500  0.08579145  0.70445225  1
  O  O327  1  0.59196065  0.58615406  0.04746041  1
  O  O328  1  0.59012279  0.58782932  0.37179449  1
  O  O329  1  0.59184269  0.58915861  0.70502014  1
  O  O330  1  0.41583494  0.41795161  0.12906033  1
  O  O331  1  0.40111296  0.40409634  0.45207753  1
  O  O332  1  0.40999612  0.41891605  0.79456048  1
  O  O333  1  0.43263610  0.91293046  0.15303967  1
  O  O334  1  0.42054230  0.91633581  0.46689413  1
  O  O335  1  0.41630942  0.91298700  0.78837248  1
  O  O336  1  0.90228580  0.41366367  0.11613373  1
  O  O337  1  0.90672026  0.40952000  0.45967531  1
  O  O338  1  0.91393007  0.41762590  0.79172968  1
  O  O339  1  0.89331805  0.90631760  0.12095670  1
  O  O340  1  0.91605571  0.91357101  0.47722421  1
  O  O341  1  0.90680638  0.91420231  0.79179765  1
  O  O342  1  0.41099119  0.40802365  0.29056061  1
  O  O343  1  0.42232844  0.41075834  0.63066048  1
  O  O344  1  0.41239654  0.41189938  0.96196364  1
  O  O345  1  0.41881484  0.90876973  0.30277905  1
  O  O346  1  0.42416818  0.91427764  0.63103909  1
  O  O347  1  0.42379763  0.91341191  0.96945244  1
  O  O348  1  0.91004807  0.41526747  0.30315920  1
  O  O349  1  0.91094959  0.40847199  0.62935058  1
  O  O350  1  0.91436174  0.41415294  0.94691992  1
  O  O351  1  0.90601159  0.91130141  0.29483646  1
  O  O352  1  0.91758015  0.91727120  0.63355049  1
  O  O353  1  0.91189135  0.90808461  0.95444094  1
  O  O354  1  0.08707364  0.06794675  0.21401092  1
  O  O355  1  0.08745900  0.07883596  0.53777892  1
  O  O356  1  0.08374251  0.09658668  0.84784547  1
  O  O357  1  0.09646099  0.59733386  0.21065802  1
  O  O358  1  0.08228532  0.59189942  0.52541506  1
  O  O359  1  0.08883664  0.58431743  0.86657243  1
  O  O360  1  0.57692021  0.07964376  0.20232047  1
  O  O361  1  0.58073956  0.08220325  0.54330774  1
  O  O362  1  0.58033050  0.08746189  0.86754733  1
  O  O363  1  0.58745508  0.57936084  0.20675954  1
  O  O364  1  0.59818255  0.59175236  0.54058866  1
  O  O365  1  0.59781184  0.58362636  0.87484340  1
  O  O366  1  0.11950593  0.23930905  0.04529164  1
  O  O367  1  0.13814412  0.21412766  0.39101129  1
  O  O368  1  0.13704940  0.22082071  0.72413814  1
  O  O369  1  0.14182111  0.72061901  0.04910841  1
  O  O370  1  0.14189644  0.72927649  0.39998718  1
  O  O371  1  0.13857393  0.73012048  0.72810977  1
  O  O372  1  0.63760979  0.21917096  0.05383515  1
  O  O373  1  0.63104831  0.21704945  0.39440189  1
  O  O374  1  0.63770347  0.21810008  0.72361505  1
  O  O375  1  0.63872134  0.71738245  0.05760568  1
  O  O376  1  0.64035421  0.72261027  0.39467836  1
  O  O377  1  0.63913696  0.72347436  0.72471026  1
  O  O378  1  0.28326537  0.36011064  0.10881640  1
  O  O379  1  0.26596772  0.35611922  0.42554306  1
  O  O380  1  0.27931103  0.36268719  0.77794810  1
  O  O381  1  0.29562722  0.85987543  0.12054751  1
  O  O382  1  0.28701544  0.86162140  0.44498834  1
  O  O383  1  0.28227867  0.86665326  0.77313228  1
  O  O384  1  0.77121092  0.36571119  0.11012639  1
  O  O385  1  0.77158704  0.36402883  0.44173629  1
  O  O386  1  0.78102785  0.36425950  0.77390990  1
  O  O387  1  0.76194971  0.85594884  0.10668742  1
  O  O388  1  0.78030215  0.85661476  0.44221600  1
  O  O389  1  0.77446680  0.85685695  0.76705019  1
  O  O390  1  0.36193051  0.27383184  0.27303928  1
  O  O391  1  0.36332487  0.27704448  0.60488272  1
  O  O392  1  0.36255565  0.27706656  0.93863109  1
  O  O393  1  0.36943125  0.77378845  0.28162437  1
  O  O394  1  0.35986842  0.78454229  0.60850767  1
  O  O395  1  0.36215998  0.78094552  0.94320652  1
  O  O396  1  0.85748392  0.28213761  0.28242440  1
  O  O397  1  0.85674298  0.27457051  0.60593672  1
  O  O398  1  0.86121077  0.28494794  0.93480693  1
  O  O399  1  0.86535080  0.77507526  0.27783049  1
  O  O400  1  0.86282921  0.78358054  0.61142970  1
  O  O401  1  0.86092286  0.77798663  0.94261083  1
  O  O402  1  0.21466239  0.13004950  0.22948547  1
  O  O403  1  0.21950298  0.14136195  0.56472281  1
  O  O404  1  0.22277185  0.14367577  0.89775340  1
  O  O405  1  0.23154171  0.63792833  0.22653427  1
  O  O406  1  0.22039263  0.63959715  0.55630373  1
  O  O407  1  0.22467807  0.63804677  0.89114455  1
  O  O408  1  0.70879539  0.13138012  0.21724573  1
  O  O409  1  0.71348269  0.13262206  0.55906216  1
  O  O410  1  0.71303495  0.13807326  0.88156454  1
  O  O411  1  0.71950392  0.63445381  0.22284834  1
  O  O412  1  0.73254239  0.63727116  0.55892027  1
  O  O413  1  0.73001375  0.63732891  0.89170503  1
  O  O414  1  0.49261826  0.33463840  0.02817325  1
  O  O415  1  0.49032721  0.33330773  0.36264000  1
  O  O416  1  0.49277867  0.32581908  0.69626964  1
  O  O417  1  0.49258994  0.82561176  0.03072032  1
  O  O418  1  0.49950958  0.83046040  0.36745350  1
  O  O419  1  0.49307797  0.82741498  0.69472296  1
  O  O420  1  0.99341431  0.33876326  0.01909968  1
  O  O421  1  0.99040657  0.33641254  0.36620106  1
  O  O422  1  0.98888601  0.32754107  0.69298191  1
  O  O423  1  0.99389889  0.83485275  0.02727560  1
  O  O424  1  0.99031579  0.84335511  0.37010766  1
  O  O425  1  0.99299903  0.83737671  0.70141708  1
  O  O426  1  0.16825123  -0.00282177  0.14272848  1
  O  O427  1  0.17490460  0.00994063  0.47475802  1
  O  O428  1  0.17508379  0.01450426  0.80482690  1
  O  O429  1  0.16780152  0.51150952  0.13750350  1
  O  O430  1  0.16248427  0.51042412  0.46576496  1
  O  O431  1  0.16823425  0.50877300  0.79980877  1
  O  O432  1  0.64918756  0.00124124  0.12791783  1
  O  O433  1  0.65541304  0.00043013  0.47407552  1
  O  O434  1  0.65687541  0.00585131  0.80085033  1
  O  O435  1  0.66404411  0.50281281  0.13658952  1
  O  O436  1  0.67180862  0.50847358  0.47014245  1
  O  O437  1  0.67565344  0.50749457  0.80373985  1
  O  O438  1  0.00373600  0.16362012  0.30816553  1
  O  O439  1  0.00690792  0.16350033  0.63257120  1
  O  O440  1  0.00970091  0.14471268  0.95995892  1
  O  O441  1  0.01351264  0.67826246  0.30584704  1
  O  O442  1  0.01130394  0.67163454  0.63659513  1
  O  O443  1  0.00952287  0.66302923  0.96856558  1
  O  O444  1  0.50129180  0.16922425  0.30472709  1
  O  O445  1  0.50570534  0.16567133  0.63703388  1
  O  O446  1  0.50449511  0.17125997  0.97043807  1
  O  O447  1  0.51071870  0.66557743  0.30484234  1
  O  O448  1  0.51168089  0.66345846  0.63267146  1
  O  O449  1  0.50715361  0.65649338  0.97393287  1
  O  O450  1  0.33509223  0.49117747  0.19650000  1
  O  O451  1  0.32321124  0.48049112  0.52342745  1
  O  O452  1  0.33259008  0.49322422  0.86682784  1
  O  O453  1  0.34450559  0.99161253  0.20663050  1
  O  O454  1  0.34067133  0.99196116  0.53440681  1
  O  O455  1  0.34475450  0.99771033  0.85860300  1
  O  O456  1  0.83091988  0.49396119  0.19418614  1
  O  O457  1  0.83295139  0.49210760  0.52973845  1
  O  O458  1  0.83695045  0.49537993  0.86172329  1
  O  O459  1  0.81704179  0.98651177  0.19233748  1
  O  O460  1  0.82562565  0.98884488  0.52926549  1
  O  O461  1  0.82371667  0.98624119  0.86011485  1
