# generated using pymatgen
data_Na31Fe20(SO4)36
_symmetry_space_group_name_H-M   'P 1'
_cell_length_a   18.07536339
_cell_length_b   18.08061684
_cell_length_c   19.71687051
_cell_angle_alpha   107.58727094
_cell_angle_beta   107.57421887
_cell_angle_gamma   90.70967557
_symmetry_Int_Tables_number   1
_chemical_formula_structural   Na31Fe20(SO4)36
_chemical_formula_sum   'Na62 Fe40 S72 O288'
_cell_volume   5817.66476977
_cell_formula_units_Z   2
loop_
 _symmetry_equiv_pos_site_id
 _symmetry_equiv_pos_as_xyz
  1  'x, y, z'
loop_
 _atom_site_type_symbol
 _atom_site_label
 _atom_site_symmetry_multiplicity
 _atom_site_fract_x
 _atom_site_fract_y
 _atom_site_fract_z
 _atom_site_occupancy
  Na  Na0  1  0.13024178  0.36348978  0.07801091  1
  Na  Na1  1  0.12971994  0.37382687  0.41903642  1
  Na  Na2  1  0.13230824  0.36723569  0.75408450  1
  Na  Na3  1  0.18700575  0.84194900  0.10347929  1
  Na  Na4  1  0.13647606  0.86622909  0.42202705  1
  Na  Na5  1  0.12056476  0.85702134  0.73843318  1
  Na  Na6  1  0.63143359  0.36722186  0.08051960  1
  Na  Na7  1  0.63720226  0.37228322  0.41564602  1
  Na  Na8  1  0.63476825  0.36761517  0.75127670  1
  Na  Na9  1  0.64196269  0.86287974  0.08788422  1
  Na  Na10  1  0.62891847  0.86169124  0.40990255  1
  Na  Na11  1  0.62738877  0.86814609  0.74771123  1
  Na  Na12  1  0.37087844  0.13278678  0.25276512  1
  Na  Na13  1  0.36960750  0.13576459  0.58768231  1
  Na  Na14  1  0.36197066  0.13323223  0.91426944  1
  Na  Na15  1  0.35750410  0.63669863  0.24414548  1
  Na  Na16  1  0.33209760  0.63679141  0.55594166  1
  Na  Na17  1  0.37056104  0.65636224  0.94206622  1
  Na  Na18  1  0.86237120  0.13658287  0.24790637  1
  Na  Na19  1  0.87676064  0.11859517  0.58014775  1
  Na  Na20  1  0.87581730  0.12802891  0.91510440  1
  Na  Na21  1  0.86620365  0.62920894  0.24810140  1
  Na  Na22  1  0.88001688  0.63764968  0.58798834  1
  Na  Na23  1  0.86362594  0.64435754  0.92194039  1
  Na  Na24  1  0.49449624  0.51426462  0.41442286  1
  Na  Na25  1  1.00397605  0.57561501  0.45484264  1
  Na  Na26  1  0.48543475  0.51045774  0.76813284  1
  Na  Na27  1  1.02696574  -0.02780393  0.09026607  1
  Na  Na28  1  0.45627162  0.00203215  0.40178302  1
  Na  Na29  1  0.99213371  0.52519955  0.72784757  1
  Na  Na30  1  0.51296759  -0.00466677  0.07656116  1
  Na  Na31  1  0.49554051  0.52217890  0.06448024  1
  Na  Na32  1  0.98825317  0.51497201  0.08660643  1
  Na  Na33  1  0.01223741  0.49358011  0.90561315  1
  Na  Na34  1  0.01280084  0.96531052  0.84910936  1
  Na  Na35  1  0.05754654  0.50219094  0.27848957  1
  Na  Na36  1  0.48830319  0.92134919  0.21870670  1
  Na  Na37  1  0.54102649  0.49827756  0.25621242  1
  Na  Na38  1  0.49011598  0.51405968  0.58700314  1
  Na  Na39  1  0.50936504  0.99163968  0.89944242  1
  Na  Na40  1  0.50221449  0.98324620  0.59870693  1
  Na  Na41  1  -0.03622032  1.01267642  0.30761525  1
  Na  Na42  1  0.75458581  0.24628747  0.66156688  1
  Na  Na43  1  0.75375818  0.25227126  -0.00431756  1
  Na  Na44  1  0.75205686  0.25367877  0.33220170  1
  Na  Na45  1  0.24779968  0.24898741  0.33881214  1
  Na  Na46  1  0.75629894  0.75567837  0.32358471  1
  Na  Na47  1  0.24245322  0.24347025  0.67318201  1
  Na  Na48  1  0.23142742  0.74067489  0.66625420  1
  Na  Na49  1  0.22929735  0.23562160  0.00231581  1
  Na  Na50  1  0.24831287  0.75098488  0.33586862  1
  Na  Na51  1  0.76482495  0.75788765  0.66270245  1
  Na  Na52  1  0.23381418  0.24012613  0.84095157  1
  Na  Na53  1  0.74907659  0.25335444  0.16490533  1
  Na  Na54  1  0.75697889  0.25072746  0.49586375  1
  Na  Na55  1  0.75418389  0.75235089  0.83419862  1
  Na  Na56  1  0.24903678  0.24480455  0.50341729  1
  Na  Na57  1  0.24471509  0.74311930  0.84847144  1
  Na  Na58  1  0.75094225  0.75193553  0.49400499  1
  Na  Na59  1  0.76618735  0.76698425  0.15621079  1
  Na  Na60  1  0.24552507  0.24447900  0.17062297  1
  Na  Na61  1  0.75629577  0.25423596  0.83076537  1
  Fe  Fe62  1  0.96489685  0.31258490  0.45755562  1
  Fe  Fe63  1  0.46061581  0.80602223  0.45014651  1
  Fe  Fe64  1  0.46219293  0.80477581  0.78119039  1
  Fe  Fe65  1  0.96602294  0.80608714  0.45973877  1
  Fe  Fe66  1  0.46245602  0.30908297  0.78638115  1
  Fe  Fe67  1  0.96639322  0.30820099  0.12185290  1
  Fe  Fe68  1  0.46345573  0.30935284  0.11826028  1
  Fe  Fe69  1  0.96648188  0.80828516  0.12358442  1
  Fe  Fe70  1  0.46982083  0.30679123  0.45177387  1
  Fe  Fe71  1  0.96765310  0.29924681  0.78918799  1
  Fe  Fe72  1  0.69156073  0.03710873  0.71380605  1
  Fe  Fe73  1  0.20049161  0.02869658  0.37427028  1
  Fe  Fe74  1  0.69863846  0.03421241  0.04808846  1
  Fe  Fe75  1  0.68937652  0.53427904  0.71427020  1
  Fe  Fe76  1  0.19237415  0.03264989  0.04443989  1
  Fe  Fe77  1  0.18938021  0.54066260  0.04866638  1
  Fe  Fe78  1  0.69867232  0.02540767  0.37380219  1
  Fe  Fe79  1  0.18985711  0.03417981  0.71112550  1
  Fe  Fe80  1  0.69045104  0.53819868  0.04503978  1
  Fe  Fe81  1  0.19277397  0.53067016  0.71346933  1
  Fe  Fe82  1  0.52829249  0.69728597  0.21294101  1
  Fe  Fe83  1  0.03822444  0.69419910  0.21995049  1
  Fe  Fe84  1  0.03523035  0.18806405  0.54247930  1
  Fe  Fe85  1  0.53317496  0.19307276  0.21200643  1
  Fe  Fe86  1  0.03385068  0.69999019  0.88016766  1
  Fe  Fe87  1  0.53464559  0.19229733  0.87862597  1
  Fe  Fe88  1  0.53696932  0.19011020  0.54400863  1
  Fe  Fe89  1  0.03474450  0.19022883  0.21063294  1
  Fe  Fe90  1  0.53686867  0.69932510  0.88769654  1
  Fe  Fe91  1  0.53223042  0.69338591  0.54811081  1
  Fe  Fe92  1  0.30106965  0.46943245  0.28879871  1
  Fe  Fe93  1  0.80336879  0.46717269  0.61785151  1
  Fe  Fe94  1  0.80078148  0.47388370  0.29338854  1
  Fe  Fe95  1  0.80321430  0.46784064  0.95281405  1
  Fe  Fe96  1  0.31191803  0.96388745  0.95215042  1
  Fe  Fe97  1  0.80889970  0.96341242  0.62368498  1
  Fe  Fe98  1  0.81601240  0.96263997  0.95641790  1
  Fe  Fe99  1  0.30401632  0.46505119  0.95171300  1
  Fe  Fe100  1  0.30929039  0.46279290  0.61666132  1
  Fe  Fe101  1  0.30532837  0.96207685  0.61847901  1
  S  S102  1  0.35984632  0.14503350  0.07940307  1
  S  S103  1  0.36241622  0.14518611  0.41743558  1
  S  S104  1  0.36035615  0.13950033  0.74978551  1
  S  S105  1  0.36076481  0.63433256  0.08415287  1
  S  S106  1  0.35894268  0.63725357  0.41606978  1
  S  S107  1  0.36382983  0.63683434  0.75323929  1
  S  S108  1  0.85932070  0.14292316  0.08257685  1
  S  S109  1  0.86143220  0.14274656  0.41583084  1
  S  S110  1  0.85497479  0.14005921  0.74858635  1
  S  S111  1  0.86156720  0.63928374  0.08392939  1
  S  S112  1  0.85101429  0.64586419  0.41284407  1
  S  S113  1  0.85732179  0.63828426  0.75342451  1
  S  S114  1  0.14149491  0.35607891  0.25048693  1
  S  S115  1  0.14229992  0.35444927  0.58345356  1
  S  S116  1  0.13819673  0.36419006  0.91730417  1
  S  S117  1  0.14185940  0.85929767  0.24876331  1
  S  S118  1  0.13750196  0.86304192  0.58222969  1
  S  S119  1  0.14725676  0.85903277  0.92111283  1
  S  S120  1  0.63822491  0.35827657  0.24776924  1
  S  S121  1  0.64143480  0.35778582  0.58383010  1
  S  S122  1  0.63835920  0.36026088  0.91506985  1
  S  S123  1  0.64115239  0.85208811  0.24801765  1
  S  S124  1  0.63555124  0.86098763  0.58550016  1
  S  S125  1  0.64148746  0.86309891  0.91572052  1
  S  S126  1  0.06558824  0.17003598  0.04317539  1
  S  S127  1  0.07052615  0.17310629  0.37582175  1
  S  S128  1  0.07069128  0.17460795  0.70914564  1
  S  S129  1  0.06478673  0.66498389  0.04048707  1
  S  S130  1  0.06484466  0.67513243  0.37825260  1
  S  S131  1  0.07012629  0.66506956  0.71205872  1
  S  S132  1  0.56642728  0.16847838  0.03959076  1
  S  S133  1  0.57369307  0.17139152  0.37584484  1
  S  S134  1  0.56789452  0.17316369  0.70937581  1
  S  S135  1  0.57036140  0.67088204  0.04557153  1
  S  S136  1  0.56132444  0.67043779  0.37679229  1
  S  S137  1  0.56566338  0.66926954  0.71148544  1
  S  S138  1  0.32740343  0.42746272  0.12478690  1
  S  S139  1  0.33957122  0.43192518  0.45967344  1
  S  S140  1  0.33004900  0.43083512  0.79156140  1
  S  S141  1  0.34378206  0.95062452  0.12044653  1
  S  S142  1  0.33492822  0.93790429  0.46215127  1
  S  S143  1  0.32775066  0.93077277  0.78766651  1
  S  S144  1  0.82559859  0.43166675  0.12457485  1
  S  S145  1  0.82960485  0.43281310  0.45930547  1
  S  S146  1  0.82798315  0.42863184  0.78991280  1
  S  S147  1  0.83738199  0.93982528  0.12689835  1
  S  S148  1  0.82417960  0.92550089  0.45699087  1
  S  S149  1  0.81949812  0.92994418  0.78712965  1
  S  S150  1  0.43287671  0.33270924  0.29094844  1
  S  S151  1  0.43700717  0.33282976  0.62566886  1
  S  S152  1  0.42956176  0.32894022  0.95439339  1
  S  S153  1  0.42891943  0.82603860  0.29327975  1
  S  S154  1  0.42845455  0.82678920  0.62330455  1
  S  S155  1  0.44253227  0.83843966  0.95475827  1
  S  S156  1  0.92851679  0.33212382  0.29111878  1
  S  S157  1  0.93110592  0.32848297  0.62649630  1
  S  S158  1  0.92904748  0.33686894  0.96106292  1
  S  S159  1  0.92862546  0.82065267  0.28888424  1
  S  S160  1  0.92880495  0.82970190  0.62355933  1
  S  S161  1  0.93642288  0.82952951  0.95910017  1
  S  S162  1  0.17325696  0.07093686  0.21025771  1
  S  S163  1  0.17832274  0.07255359  0.54111689  1
  S  S164  1  0.17187332  0.06329665  0.87599475  1
  S  S165  1  0.16718941  0.56366332  0.20791041  1
  S  S166  1  0.17039617  0.55390194  0.54894592  1
  S  S167  1  0.16957298  0.56733779  0.87547581  1
  S  S168  1  0.66954931  0.07090720  0.20773364  1
  S  S169  1  0.66563506  0.06405067  0.53647684  1
  S  S170  1  0.67053995  0.06973580  0.87674303  1
  S  S171  1  0.66499426  0.56701403  0.20419268  1
  S  S172  1  0.66338968  0.56529362  0.54382480  1
  S  S173  1  0.66938761  0.56988735  0.87519310  1
  O  O174  1  0.37030201  0.22277083  0.06818495  1
  O  O175  1  0.37225899  0.22662178  0.41324290  1
  O  O176  1  0.36995334  0.21713583  0.73798310  1
  O  O177  1  0.36728808  0.70715169  0.06981695  1
  O  O178  1  0.36849984  0.71725515  0.40958404  1
  O  O179  1  0.36930808  0.71311846  0.73919768  1
  O  O180  1  0.86820507  0.22279546  0.07578131  1
  O  O181  1  0.86739314  0.22621133  0.41518757  1
  O  O182  1  0.86655007  0.22106768  0.74354907  1
  O  O183  1  0.87185090  0.71929678  0.07993734  1
  O  O184  1  0.86992759  0.72506461  0.40452722  1
  O  O185  1  0.86040185  0.71511746  0.74475896  1
  O  O186  1  0.27854132  0.13831732  0.08257791  1
  O  O187  1  0.28152986  0.13574703  0.42100381  1
  O  O188  1  0.28107253  0.13273908  0.75788897  1
  O  O189  1  0.28547755  0.61934663  0.09719637  1
  O  O190  1  0.28453173  0.62468745  0.42632657  1
  O  O191  1  0.28552369  0.62667086  0.76137478  1
  O  O192  1  0.77939018  0.13463386  0.08990688  1
  O  O193  1  0.78146863  0.12869274  0.42054659  1
  O  O194  1  0.77197386  0.13512801  0.75161385  1
  O  O195  1  0.78341992  0.62939748  0.09304209  1
  O  O196  1  0.76977370  0.64059422  0.40999557  1
  O  O197  1  0.77961606  0.62232365  0.76348953  1
  O  O198  1  0.13320418  0.27414169  0.25277412  1
  O  O199  1  0.13256708  0.27333765  0.58742496  1
  O  O200  1  0.13267027  0.28795326  0.92732705  1
  O  O201  1  0.13098702  0.77978556  0.25735822  1
  O  O202  1  0.13198655  0.78885407  0.59567737  1
  O  O203  1  0.13508763  0.77850861  0.92447924  1
  O  O204  1  0.63020132  0.27674286  0.25173312  1
  O  O205  1  0.63194656  0.27902842  0.59272363  1
  O  O206  1  0.63036414  0.28113459  0.92395807  1
  O  O207  1  0.62395822  0.77612100  0.26265562  1
  O  O208  1  0.62520299  0.78395572  0.59746683  1
  O  O209  1  0.63156092  0.78470401  0.92305408  1
  O  O210  1  0.22063562  0.36632961  0.24274881  1
  O  O211  1  0.22157609  0.36295239  0.57544672  1
  O  O212  1  0.21443867  0.37514976  0.90279860  1
  O  O213  1  0.21606601  0.86899294  0.23676049  1
  O  O214  1  0.21264075  0.87668616  0.56769004  1
  O  O215  1  0.22914075  0.86712161  0.91794395  1
  O  O216  1  0.71832465  0.36897443  0.24240240  1
  O  O217  1  0.72156656  0.36614519  0.57821296  1
  O  O218  1  0.71725644  0.36891822  0.90596847  1
  O  O219  1  0.72106902  0.85412016  0.24579064  1
  O  O220  1  0.71596849  0.86834607  0.58112919  1
  O  O221  1  0.71984182  0.87231121  0.90693167  1
  O  O222  1  0.41520989  0.14298682  0.15174436  1
  O  O223  1  0.41840102  0.13937153  0.48911066  1
  O  O224  1  0.41873676  0.13583231  0.82001157  1
  O  O225  1  0.42336527  0.62730259  0.15247331  1
  O  O226  1  0.42411149  0.62707373  0.48155510  1
  O  O227  1  0.42373146  0.63468291  0.82412583  1
  O  O228  1  0.91678290  0.13580995  0.15126871  1
  O  O229  1  0.91911710  0.13582471  0.48539101  1
  O  O230  1  0.90967426  0.12939180  0.81452879  1
  O  O231  1  0.92196673  0.62528431  0.14820998  1
  O  O232  1  0.90513788  0.63802107  0.48180751  1
  O  O233  1  0.91850885  0.63068841  0.82086154  1
  O  O234  1  0.37339392  0.08469412  0.01552209  1
  O  O235  1  0.37629027  0.08880233  0.35342758  1
  O  O236  1  0.36924741  0.07839232  0.68417829  1
  O  O237  1  0.37076387  0.56903059  0.01854823  1
  O  O238  1  0.36851673  0.58013384  0.34622800  1
  O  O239  1  0.37759553  0.57408372  0.69002594  1
  O  O240  1  0.86638774  0.08481119  0.01433022  1
  O  O241  1  0.87358803  0.09061391  0.34863060  1
  O  O242  1  0.85833220  0.08353194  0.67729638  1
  O  O243  1  0.86689627  0.58150937  0.01322390  1
  O  O244  1  0.86429458  0.58560558  0.34637664  1
  O  O245  1  0.86686541  0.57736432  0.68568843  1
  O  O246  1  0.08246807  0.36630566  0.18249702  1
  O  O247  1  0.08338238  0.36299855  0.51610596  1
  O  O248  1  0.07557487  0.37270688  0.85080458  1
  O  O249  1  0.07693608  0.86765979  0.18356443  1
  O  O250  1  0.07407854  0.86763732  0.51342626  1
  O  O251  1  0.09309656  0.87141444  0.85428606  1
  O  O252  1  0.58073165  0.36478428  0.17698356  1
  O  O253  1  0.58478365  0.36419746  0.51419733  1
  O  O254  1  0.57928295  0.36644954  0.84673262  1
  O  O255  1  0.58454586  0.85746555  0.17896082  1
  O  O256  1  0.57856764  0.86672588  0.51574959  1
  O  O257  1  0.58130001  0.87335807  0.84867271  1
  O  O258  1  0.13267863  0.41087112  0.31825984  1
  O  O259  1  0.13570649  0.41000782  0.65328534  1
  O  O260  1  0.13161246  0.42638186  0.98469714  1
  O  O261  1  0.13606189  0.91731223  0.31966213  1
  O  O262  1  0.13077786  0.92669744  0.64840704  1
  O  O263  1  0.13872869  0.91534195  0.99115800  1
  O  O264  1  0.62536444  0.41463786  0.31261213  1
  O  O265  1  0.63119968  0.41701552  0.65053224  1
  O  O266  1  0.63208536  0.41917482  0.98316510  1
  O  O267  1  0.63065234  0.91558506  0.31370974  1
  O  O268  1  0.62377414  0.92329160  0.65040312  1
  O  O269  1  0.63379199  0.92313523  0.98394090  1
  O  O270  1  0.02967414  0.20183744  0.10634112  1
  O  O271  1  0.03110010  0.20202929  0.43468480  1
  O  O272  1  0.03188291  0.20351114  0.76653285  1
  O  O273  1  0.02959412  0.69614497  0.10214464  1
  O  O274  1  0.02514656  0.71097088  0.43553390  1
  O  O275  1  0.03385820  0.68557083  0.77304500  1
  O  O276  1  0.53114761  0.19864430  0.10090749  1
  O  O277  1  0.53482506  0.20024815  0.43622461  1
  O  O278  1  0.53033534  0.20154827  0.76963727  1
  O  O279  1  0.53453460  0.68637873  0.10597575  1
  O  O280  1  0.52596123  0.70619149  0.43849047  1
  O  O281  1  0.53216367  0.70247599  0.77392058  1
  O  O282  1  0.29696318  0.45837947  0.06062345  1
  O  O283  1  0.31193782  0.46150697  0.39612902  1
  O  O284  1  0.29822859  0.46370721  0.72856156  1
  O  O285  1  0.29699954  0.98211140  0.05699691  1
  O  O286  1  0.31036791  0.97779144  0.40508283  1
  O  O287  1  0.29719153  0.96786131  0.72715316  1
  O  O288  1  0.79663409  0.46816537  0.06307166  1
  O  O289  1  0.80573475  0.46694272  0.39817466  1
  O  O290  1  0.79785314  0.46276622  0.72776964  1
  O  O291  1  0.80276049  0.97187119  0.06104781  1
  O  O292  1  0.79873123  0.96540303  0.40004917  1
  O  O293  1  0.78912535  0.97301334  0.73003391  1
  O  O294  1  0.46819369  0.30320836  0.22887049  1
  O  O295  1  0.47396751  0.30334514  0.56564661  1
  O  O296  1  0.46828732  0.30008480  0.89462103  1
  O  O297  1  0.46391107  0.79082960  0.23192577  1
  O  O298  1  0.46419547  0.79677064  0.56146073  1
  O  O299  1  0.47074918  0.80074752  0.88749974  1
  O  O300  1  0.96798241  0.30320203  0.23178095  1
  O  O301  1  0.96966709  0.30215890  0.56692596  1
  O  O302  1  0.96192429  0.31341857  0.89944069  1
  O  O303  1  0.97202688  0.79177272  0.23199987  1
  O  O304  1  0.95847374  0.80776764  0.55722125  1
  O  O305  1  0.97274512  0.80075250  0.90006067  1
  O  O306  1  0.19854924  0.03918627  0.27268115  1
  O  O307  1  0.20643875  0.03785929  0.60348189  1
  O  O308  1  0.20951421  0.02736514  0.93702276  1
  O  O309  1  0.19355240  0.52412802  0.26533627  1
  O  O310  1  0.21435031  0.52205511  0.61406062  1
  O  O311  1  0.20034046  0.53488474  0.93963917  1
  O  O312  1  0.69256323  0.03639923  0.26803116  1
  O  O313  1  0.69320732  0.02894501  0.59848845  1
  O  O314  1  0.70198237  0.03411378  0.93764032  1
  O  O315  1  0.69079427  0.52599452  0.26010198  1
  O  O316  1  0.69752434  0.53209389  0.60841763  1
  O  O317  1  0.69981042  0.53241529  0.93593184  1
  O  O318  1  0.09134904  0.09210941  0.04575005  1
  O  O319  1  0.09150251  0.09330119  0.37240634  1
  O  O320  1  0.09567471  0.09731793  0.70936317  1
  O  O321  1  0.07348892  0.57917443  0.03234824  1
  O  O322  1  0.08348057  0.59866230  0.38662520  1
  O  O323  1  0.09502918  0.58398415  0.70827936  1
  O  O324  1  0.58477347  0.08646159  0.03352297  1
  O  O325  1  0.59583404  0.09271636  0.37304712  1
  O  O326  1  0.58590395  0.09154303  0.70296297  1
  O  O327  1  0.58627327  0.58668208  0.02678889  1
  O  O328  1  0.57047725  0.58886070  0.37365351  1
  O  O329  1  0.57988315  0.58622020  0.70740237  1
  O  O330  1  0.41162829  0.41466891  0.13443729  1
  O  O331  1  0.42377383  0.41531741  0.46928773  1
  O  O332  1  0.41221791  0.41470485  0.79432762  1
  O  O333  1  0.42382534  0.94886741  0.11473435  1
  O  O334  1  0.41831376  0.91969191  0.46921161  1
  O  O335  1  0.40853419  0.91125565  0.79005548  1
  O  O336  1  0.90804094  0.41582068  0.13158646  1
  O  O337  1  0.91096308  0.41240575  0.47119930  1
  O  O338  1  0.90937507  0.40994230  0.79648677  1
  O  O339  1  0.91462995  0.91372808  0.12266154  1
  O  O340  1  0.90231701  0.89894853  0.45794556  1
  O  O341  1  0.89452070  0.90525494  0.78405746  1
  O  O342  1  0.41374501  0.41387329  0.29682097  1
  O  O343  1  0.42027003  0.41563914  0.63184453  1
  O  O344  1  0.41162711  0.41029956  0.96093064  1
  O  O345  1  0.41295424  0.90485176  0.29121935  1
  O  O346  1  0.41244980  0.90866561  0.62796976  1
  O  O347  1  0.42245132  0.91872647  0.95141032  1
  O  O348  1  0.90646044  0.41114808  0.29369090  1
  O  O349  1  0.90938204  0.40918087  0.63285918  1
  O  O350  1  0.91064859  0.42053104  0.97310181  1
  O  O351  1  0.90615038  0.89713667  0.28821115  1
  O  O352  1  0.90521081  0.91025711  0.63389622  1
  O  O353  1  0.92089699  0.91322131  0.96640301  1
  O  O354  1  0.09007836  0.08913146  0.19881927  1
  O  O355  1  0.09797666  0.09188645  0.53422635  1
  O  O356  1  0.09315316  0.07758664  0.87669805  1
  O  O357  1  0.08444867  0.58160812  0.20337621  1
  O  O358  1  0.09071504  0.55765079  0.55132825  1
  O  O359  1  0.08681430  0.58285223  0.86944212  1
  O  O360  1  0.58672939  0.09031782  0.19400285  1
  O  O361  1  0.58230643  0.08070290  0.52893124  1
  O  O362  1  0.58971223  0.08877421  0.87569249  1
  O  O363  1  0.58368729  0.58892810  0.20202243  1
  O  O364  1  0.58203025  0.58516988  0.54524124  1
  O  O365  1  0.58925536  0.59055005  0.87250696  1
  O  O366  1  0.13569175  0.22595933  0.06131871  1
  O  O367  1  0.13998174  0.22859377  0.39291722  1
  O  O368  1  0.14035823  0.23084441  0.72528332  1
  O  O369  1  0.13997424  0.70766290  0.05607895  1
  O  O370  1  0.13279148  0.72661381  0.38656884  1
  O  O371  1  0.14144713  0.72034065  0.73287944  1
  O  O372  1  0.63741408  0.22047943  0.05437037  1
  O  O373  1  0.64201951  0.22813014  0.39267119  1
  O  O374  1  0.63867589  0.22623989  0.72686694  1
  O  O375  1  0.64183261  0.72319429  0.06567947  1
  O  O376  1  0.63408642  0.71925370  0.39278666  1
  O  O377  1  0.63832426  0.71725272  0.72501909  1
  O  O378  1  0.27892605  0.35418295  0.11047297  1
  O  O379  1  0.28937632  0.36168414  0.44964280  1
  O  O380  1  0.28147970  0.35813939  0.77816202  1
  O  O381  1  0.30756455  0.87266894  0.10634267  1
  O  O382  1  0.28332660  0.86680374  0.44445509  1
  O  O383  1  0.27553827  0.86093927  0.77386538  1
  O  O384  1  0.77393983  0.35856215  0.10509433  1
  O  O385  1  0.77481416  0.36201931  0.44214855  1
  O  O386  1  0.77506883  0.35767810  0.77450633  1
  O  O387  1  0.78254757  0.87397356  0.11699846  1
  O  O388  1  0.76715407  0.85712345  0.44083556  1
  O  O389  1  0.76093055  0.86274720  0.76932433  1
  O  O390  1  0.36328055  0.27927432  0.27660577  1
  O  O391  1  0.36523701  0.28206480  0.60988787  1
  O  O392  1  0.35865684  0.27604561  0.93640885  1
  O  O393  1  0.36079688  0.77553909  0.28572060  1
  O  O394  1  0.35839365  0.77674723  0.61090047  1
  O  O395  1  0.37335193  0.78892460  0.94612470  1
  O  O396  1  0.85876981  0.27601876  0.27301876  1
  O  O397  1  0.86112859  0.27289519  0.60775112  1
  O  O398  1  0.85776662  0.28461675  0.94565798  1
  O  O399  1  0.86005051  0.76245697  0.26711390  1
  O  O400  1  0.85816469  0.77347988  0.60432970  1
  O  O401  1  0.86284315  0.78079642  0.94267058  1
  O  O402  1  0.22610121  0.14214466  0.22553462  1
  O  O403  1  0.23266646  0.14380542  0.55913335  1
  O  O404  1  0.22294260  0.13668464  0.89225243  1
  O  O405  1  0.21824334  0.63495677  0.22509338  1
  O  O406  1  0.21292031  0.63137114  0.56727206  1
  O  O407  1  0.22064621  0.63676474  0.88782551  1
  O  O408  1  0.72295592  0.14166554  0.22360149  1
  O  O409  1  0.71649591  0.13658917  0.55347573  1
  O  O410  1  0.72202241  0.14083315  0.89052804  1
  O  O411  1  0.71873025  0.63583712  0.21873586  1
  O  O412  1  0.71342997  0.63660607  0.55747795  1
  O  O413  1  0.72277802  0.63759816  0.88786241  1
  O  O414  1  0.48889332  0.33027525  0.02683704  1
  O  O415  1  0.49437639  0.33502207  0.36252008  1
  O  O416  1  0.49499330  0.33542568  0.69906412  1
  O  O417  1  0.50789713  0.84900896  0.02319490  1
  O  O418  1  0.49182097  0.83464577  0.36752450  1
  O  O419  1  0.49080785  0.82917530  0.69493305  1
  O  O420  1  0.98927538  0.33669902  0.03270133  1
  O  O421  1  0.98667576  0.33428716  0.36416740  1
  O  O422  1  0.98949530  0.33075701  0.69931093  1
  O  O423  1  0.99359733  0.83155157  0.03321624  1
  O  O424  1  0.98428369  0.82378872  0.36417000  1
  O  O425  1  0.98995022  0.82859212  0.69049919  1
  O  O426  1  0.17241220  0.00988023  0.13908948  1
  O  O427  1  0.17945388  0.01350503  0.46998188  1
  O  O428  1  0.17197930  0.00643628  0.80302673  1
  O  O429  1  0.16133308  0.50648906  0.13250465  1
  O  O430  1  0.17623596  0.49910400  0.47963358  1
  O  O431  1  0.16775923  0.50398771  0.80510459  1
  O  O432  1  0.66997741  0.01059342  0.13556582  1
  O  O433  1  0.66613033  0.00540254  0.46512150  1
  O  O434  1  0.66474297  0.01109792  0.80327877  1
  O  O435  1  0.65547444  0.50915241  0.12748129  1
  O  O436  1  0.65456820  0.50396265  0.47334479  1
  O  O437  1  0.66220235  0.50693867  0.80228904  1
  O  O438  1  0.01123800  0.16896132  0.30226981  1
  O  O439  1  0.01374743  0.16726531  0.63347860  1
  O  O440  1  0.00649034  0.16426985  0.97277129  1
  O  O441  1  0.00588278  0.66044238  0.30063620  1
  O  O442  1  0.01265565  0.66129361  0.64117116  1
  O  O443  1  0.00680437  0.66566594  0.96800665  1
  O  O444  1  0.51343136  0.16899155  0.30368566  1
  O  O445  1  0.50945920  0.17132511  0.63662502  1
  O  O446  1  0.50644212  0.16608698  0.96735696  1
  O  O447  1  0.50458958  0.67030064  0.30274133  1
  O  O448  1  0.50516560  0.66591844  0.63930399  1
  O  O449  1  0.51057643  0.67850434  0.97695860  1
  O  O450  1  0.32474322  0.48769953  0.19483233  1
  O  O451  1  0.34413514  0.49455768  0.53207983  1
  O  O452  1  0.33225658  0.49084775  0.86286444  1
  O  O453  1  0.34475843  1.00619558  0.19220388  1
  O  O454  1  0.34041917  0.99502233  0.53777936  1
  O  O455  1  0.33404812  0.99177920  0.86066105  1
  O  O456  1  0.82224694  0.48895981  0.19534386  1
  O  O457  1  0.82700341  0.49257291  0.53034070  1
  O  O458  1  0.82936953  0.48898843  0.86167710  1
  O  O459  1  0.85011508  1.00445586  0.19666337  1
  O  O460  1  0.83086839  0.98364674  0.53179462  1
  O  O461  1  0.82614735  0.98799347  0.86243259  1
