# generated using pymatgen
data_Na31Fe20(SO4)36
_symmetry_space_group_name_H-M   'P 1'
_cell_length_a   18.06181932
_cell_length_b   18.06042289
_cell_length_c   19.69143720
_cell_angle_alpha   107.59138161
_cell_angle_beta   107.61606623
_cell_angle_gamma   90.68058340
_symmetry_Int_Tables_number   1
_chemical_formula_structural   Na31Fe20(SO4)36
_chemical_formula_sum   'Na62 Fe40 S72 O288'
_cell_volume   5798.03172877
_cell_formula_units_Z   2
loop_
 _symmetry_equiv_pos_site_id
 _symmetry_equiv_pos_as_xyz
  1  'x, y, z'
loop_
 _atom_site_type_symbol
 _atom_site_label
 _atom_site_symmetry_multiplicity
 _atom_site_fract_x
 _atom_site_fract_y
 _atom_site_fract_z
 _atom_site_occupancy
  Na  Na0  1  0.14378191  0.36401956  0.09408605  1
  Na  Na1  1  0.13729928  0.35983727  0.40799452  1
  Na  Na2  1  0.13287468  0.36713513  0.73893925  1
  Na  Na3  1  0.13067672  0.86582054  0.08058281  1
  Na  Na4  1  0.13248213  0.86365055  0.41409978  1
  Na  Na5  1  0.13614476  0.85476345  0.74598433  1
  Na  Na6  1  0.63940043  0.36813277  0.08955431  1
  Na  Na7  1  0.63171239  0.35189209  0.40944150  1
  Na  Na8  1  0.62780162  0.36721706  0.74695620  1
  Na  Na9  1  0.63059135  0.88110659  0.09166640  1
  Na  Na10  1  0.65712095  0.86589294  0.42838313  1
  Na  Na11  1  0.62805968  0.86883483  0.74360993  1
  Na  Na12  1  0.36680868  0.14172417  0.25452384  1
  Na  Na13  1  0.36361154  0.12902260  0.58197689  1
  Na  Na14  1  0.37708017  0.12809548  0.92168107  1
  Na  Na15  1  0.36329157  0.62791601  0.25077348  1
  Na  Na16  1  0.36902026  0.63310789  0.58705003  1
  Na  Na17  1  0.35659591  0.62420204  0.90286264  1
  Na  Na18  1  0.85075445  0.13624378  0.24573949  1
  Na  Na19  1  0.84907306  0.13545614  0.55390213  1
  Na  Na20  1  0.87369316  0.13836584  0.92474137  1
  Na  Na21  1  0.86594027  0.64047732  0.25230263  1
  Na  Na22  1  0.85423196  0.66264782  0.60131111  1
  Na  Na23  1  0.86310416  0.63476032  0.91082882  1
  Na  Na24  1  1.00971151  0.47893036  0.09084137  1
  Na  Na25  1  0.99573267  0.02102306  0.06734564  1
  Na  Na26  1  0.52348056  -0.01329113  0.41705345  1
  Na  Na27  1  0.46120656  0.50528924  0.41654368  1
  Na  Na28  1  0.99706694  0.51616116  0.74688930  1
  Na  Na29  1  1.01547016  -0.04177103  0.80493236  1
  Na  Na30  1  0.98302518  0.51445777  0.41875387  1
  Na  Na31  1  0.49044324  0.50496471  0.08605916  1
  Na  Na32  1  0.96746259  0.02503700  0.42077775  1
  Na  Na33  1  0.51230028  0.49396721  0.90431992  1
  Na  Na34  1  0.00549512  0.45655431  0.24752835  1
  Na  Na35  1  -0.02374734  1.01510564  0.25619357  1
  Na  Na36  1  0.01022121  0.49121147  0.91460415  1
  Na  Na37  1  0.50056153  0.48338586  0.60258739  1
  Na  Na38  1  0.04071670  0.49048190  0.58667769  1
  Na  Na39  1  0.50155785  0.48021359  0.25656524  1
  Na  Na40  1  0.55509449  1.01420570  0.26139827  1
  Na  Na41  1  -0.00961303  1.01629429  0.59602908  1
  Na  Na42  1  0.24609291  0.24315045  0.00862786  1
  Na  Na43  1  0.75901234  0.76230134  -0.00610971  1
  Na  Na44  1  0.72449010  0.21601333  0.34501994  1
  Na  Na45  1  0.23845411  0.24208582  0.66081701  1
  Na  Na46  1  0.25150318  0.74957222  -0.00168847  1
  Na  Na47  1  0.75809664  0.25544911  0.64785051  1
  Na  Na48  1  0.75042364  0.24948671  0.00673493  1
  Na  Na49  1  0.24577572  0.73570648  0.67266140  1
  Na  Na50  1  0.25124424  0.74586527  0.33582533  1
  Na  Na51  1  0.75147942  0.75847925  0.33448444  1
  Na  Na52  1  0.25331530  0.25913120  0.48910097  1
  Na  Na53  1  0.24714410  0.24683644  0.83384273  1
  Na  Na54  1  0.24997511  0.75106268  0.16610620  1
  Na  Na55  1  0.75447652  0.25167275  0.83361724  1
  Na  Na56  1  0.24918168  0.74460190  0.50068203  1
  Na  Na57  1  0.23851930  0.73612825  0.83421729  1
  Na  Na58  1  0.73131679  0.23930850  0.17578854  1
  Na  Na59  1  0.75370248  0.77113555  0.16719465  1
  Na  Na60  1  0.24457208  0.24638090  0.18563950  1
  Na  Na61  1  0.76951895  0.76398981  0.80958877  1
  Fe  Fe62  1  0.46552723  0.80909433  0.78904254  1
  Fe  Fe63  1  0.96438673  0.81184169  0.12231089  1
  Fe  Fe64  1  0.45974316  0.30552032  0.44748666  1
  Fe  Fe65  1  0.46944539  0.80950251  0.45876707  1
  Fe  Fe66  1  0.96634654  0.81105190  0.45612035  1
  Fe  Fe67  1  0.97030337  0.30357712  0.45719494  1
  Fe  Fe68  1  0.46573534  0.80864357  0.12252936  1
  Fe  Fe69  1  0.47027848  0.29936829  0.12360985  1
  Fe  Fe70  1  0.96685520  0.30422353  0.77944325  1
  Fe  Fe71  1  0.46298353  0.30470427  0.78497211  1
  Fe  Fe72  1  0.19508380  0.03525571  0.04776191  1
  Fe  Fe73  1  0.18635177  0.03724965  0.38178768  1
  Fe  Fe74  1  0.69309430  0.53785216  0.04948875  1
  Fe  Fe75  1  0.69329279  0.53400956  0.71570093  1
  Fe  Fe76  1  0.69074420  0.03474057  0.71038232  1
  Fe  Fe77  1  0.68999365  0.03408861  0.04213540  1
  Fe  Fe78  1  0.19575556  0.53327671  0.04840463  1
  Fe  Fe79  1  0.19160700  0.03227016  0.71041834  1
  Fe  Fe80  1  0.69602147  0.53809696  0.38981096  1
  Fe  Fe81  1  0.20144120  0.52876383  0.37572962  1
  Fe  Fe82  1  0.03052561  0.20205024  0.21098308  1
  Fe  Fe83  1  0.03224921  0.69669723  0.55164711  1
  Fe  Fe84  1  0.53543972  0.18973592  0.87580000  1
  Fe  Fe85  1  0.03417686  0.19052480  0.87757115  1
  Fe  Fe86  1  0.53151879  0.69250075  0.21803560  1
  Fe  Fe87  1  0.54185464  0.69187229  0.55074649  1
  Fe  Fe88  1  0.03396902  0.69302755  0.21358616  1
  Fe  Fe89  1  0.53487115  0.18688206  0.54583986  1
  Fe  Fe90  1  0.03097103  0.69899767  0.87682062  1
  Fe  Fe91  1  0.53713483  0.69041878  0.88097622  1
  Fe  Fe92  1  0.81066202  0.96416139  0.61870313  1
  Fe  Fe93  1  0.31184217  0.96197792  0.62198052  1
  Fe  Fe94  1  0.81141729  0.46585058  0.95429136  1
  Fe  Fe95  1  0.31287943  0.96456122  0.95692623  1
  Fe  Fe96  1  0.30556510  0.96870795  0.28975480  1
  Fe  Fe97  1  0.80285542  0.46331956  0.61416566  1
  Fe  Fe98  1  0.29998442  0.47032040  0.62404665  1
  Fe  Fe99  1  0.80634818  0.96385015  0.94709818  1
  Fe  Fe100  1  0.30611686  0.46390046  0.95078176  1
  Fe  Fe101  1  0.80711253  0.46777506  0.28512694  1
  S  S102  1  0.35771755  0.13965378  0.08322624  1
  S  S103  1  0.35519137  0.14029878  0.42014394  1
  S  S104  1  0.35712357  0.13963145  0.74853778  1
  S  S105  1  0.36065939  0.63943564  0.08229059  1
  S  S106  1  0.36412181  0.64291330  0.42000465  1
  S  S107  1  0.36379875  0.63988464  0.75274725  1
  S  S108  1  0.86007184  0.13966479  0.08106793  1
  S  S109  1  0.86673570  0.14827805  0.41400126  1
  S  S110  1  0.85921830  0.14217487  0.74716545  1
  S  S111  1  0.85823393  0.64359909  0.08288207  1
  S  S112  1  0.86020667  0.64139724  0.41681047  1
  S  S113  1  0.85923214  0.63549356  0.75063705  1
  S  S114  1  0.13946262  0.36288142  0.24425190  1
  S  S115  1  0.14102215  0.35910715  0.57968443  1
  S  S116  1  0.13965957  0.35969363  0.91706179  1
  S  S117  1  0.14117687  0.85994024  0.25070375  1
  S  S118  1  0.14461427  0.85483522  0.58463991  1
  S  S119  1  0.14655962  0.86099859  0.91911815  1
  S  S120  1  0.64275936  0.36586314  0.25190717  1
  S  S121  1  0.63594325  0.36058318  0.58451590  1
  S  S122  1  0.64126088  0.36173973  0.91618187  1
  S  S123  1  0.63473789  0.85693663  0.25553190  1
  S  S124  1  0.64325277  0.85841097  0.58168245  1
  S  S125  1  0.64099119  0.85566934  0.91410002  1
  S  S126  1  0.07048517  0.16803185  0.04094132  1
  S  S127  1  0.06654283  0.17373901  0.37301986  1
  S  S128  1  0.06676564  0.17146620  0.70941341  1
  S  S129  1  0.06670174  0.66907271  0.04130554  1
  S  S130  1  0.06619889  0.66380912  0.37320552  1
  S  S131  1  0.06235635  0.66732619  0.70889797  1
  S  S132  1  0.57248618  0.17651556  0.03901457  1
  S  S133  1  0.55568094  0.16651233  0.38133374  1
  S  S134  1  0.56898265  0.17502850  0.71185799  1
  S  S135  1  0.56507780  0.66645137  0.04254227  1
  S  S136  1  0.56695991  0.66645494  0.37590073  1
  S  S137  1  0.57080424  0.66929542  0.71149542  1
  S  S138  1  0.33471307  0.43495333  0.12245338  1
  S  S139  1  0.33102695  0.43516884  0.46329960  1
  S  S140  1  0.32804777  0.42588871  0.78997862  1
  S  S141  1  0.32772885  0.93117027  0.12641613  1
  S  S142  1  0.32762939  0.92982178  0.45591303  1
  S  S143  1  0.32723651  0.92860685  0.78894910  1
  S  S144  1  0.83273946  0.44135689  0.12380367  1
  S  S145  1  0.83102539  0.43058216  0.45660012  1
  S  S146  1  0.83088977  0.43064541  0.78996852  1
  S  S147  1  0.82988854  0.93578729  0.12207680  1
  S  S148  1  0.84267136  0.93879326  0.45907641  1
  S  S149  1  0.82351187  0.93530214  0.78823246  1
  S  S150  1  0.43491656  0.33481297  0.29111780  1
  S  S151  1  0.42640951  0.32778801  0.62302282  1
  S  S152  1  0.43522026  0.33214085  0.95856777  1
  S  S153  1  0.42736789  0.82682449  0.29216922  1
  S  S154  1  0.43225243  0.82464935  0.62289943  1
  S  S155  1  0.42974267  0.82185983  0.95565196  1
  S  S156  1  0.92852762  0.33075729  0.29237321  1
  S  S157  1  0.93239570  0.33679245  0.62329690  1
  S  S158  1  0.93896421  0.33529569  0.95511143  1
  S  S159  1  0.93895006  0.83341209  0.29172636  1
  S  S160  1  0.94117522  0.84025265  0.62849724  1
  S  S161  1  0.93341915  0.82889694  0.95809633  1
  S  S162  1  0.16603062  0.06782492  0.20725910  1
  S  S163  1  0.16520766  0.05537614  0.54193632  1
  S  S164  1  0.17396750  0.06629674  0.87528252  1
  S  S165  1  0.16859996  0.57159281  0.20784442  1
  S  S166  1  0.16966559  0.56897584  0.53761380  1
  S  S167  1  0.16390775  0.56368843  0.87545146  1
  S  S168  1  0.66136063  0.06766670  0.20019446  1
  S  S169  1  0.67040784  0.06402884  0.54486566  1
  S  S170  1  0.67469678  0.07063481  0.87582549  1
  S  S171  1  0.66896408  0.57058032  0.21005331  1
  S  S172  1  0.66472731  0.56159753  0.53984971  1
  S  S173  1  0.67243140  0.56679214  0.87978030  1
  O  O174  1  0.37091048  0.21704498  0.07134961  1
  O  O175  1  0.36215547  0.22031451  0.41527150  1
  O  O176  1  0.36516910  0.21858366  0.73941099  1
  O  O177  1  0.36931866  0.71991403  0.07754083  1
  O  O178  1  0.37160907  0.72508543  0.41718367  1
  O  O179  1  0.37558495  0.71822692  0.74209403  1
  O  O180  1  0.86777489  0.21299336  0.06590264  1
  O  O181  1  0.87643417  0.23261478  0.40795920  1
  O  O182  1  0.86926467  0.22085696  0.73720423  1
  O  O183  1  0.86900501  0.72325807  0.07639561  1
  O  O184  1  0.87017072  0.71867488  0.40589247  1
  O  O185  1  0.86358442  0.71339182  0.74469439  1
  O  O186  1  0.27289137  0.13524068  0.08180569  1
  O  O187  1  0.27681886  0.12842342  0.42973081  1
  O  O188  1  0.27677657  0.13071264  0.75458914  1
  O  O189  1  0.28196393  0.63062794  0.09128566  1
  O  O190  1  0.28376633  0.63182507  0.42535817  1
  O  O191  1  0.28809641  0.63412656  0.76448373  1
  O  O192  1  0.78098256  0.12819561  0.08899253  1
  O  O193  1  0.78727056  0.13959160  0.41641350  1
  O  O194  1  0.78002334  0.13584739  0.75527277  1
  O  O195  1  0.77917208  0.63674808  0.09159905  1
  O  O196  1  0.78096293  0.63086938  0.42210560  1
  O  O197  1  0.78424994  0.62155725  0.76673360  1
  O  O198  1  0.12666478  0.28295606  0.25060070  1
  O  O199  1  0.13485587  0.28080294  0.58497338  1
  O  O200  1  0.13119631  0.28083375  0.92535857  1
  O  O201  1  0.13376631  0.78141193  0.26086705  1
  O  O202  1  0.13358149  0.77698008  0.59534093  1
  O  O203  1  0.13314339  0.78128754  0.92580781  1
  O  O204  1  0.64047707  0.29047857  0.26395923  1
  O  O205  1  0.62683221  0.28380916  0.59656016  1
  O  O206  1  0.63285772  0.28131705  0.92024884  1
  O  O207  1  0.62205345  0.77513605  0.26072881  1
  O  O208  1  0.63361528  0.78009525  0.59018375  1
  O  O209  1  0.63150137  0.77675765  0.92355999  1
  O  O210  1  0.21568128  0.37152182  0.23459799  1
  O  O211  1  0.21768539  0.37341151  0.56711127  1
  O  O212  1  0.21837425  0.36809406  0.90840930  1
  O  O213  1  0.22087109  0.86942744  0.24392555  1
  O  O214  1  0.22540761  0.86149161  0.58009561  1
  O  O215  1  0.22990735  0.86544997  0.91833120  1
  O  O216  1  0.71790633  0.37898951  0.23578430  1
  O  O217  1  0.71572804  0.36965271  0.57902059  1
  O  O218  1  0.71995695  0.37210065  0.90744495  1
  O  O219  1  0.71403760  0.86480119  0.25283051  1
  O  O220  1  0.72067632  0.87051364  0.57247887  1
  O  O221  1  0.72050485  0.86307916  0.90633151  1
  O  O222  1  0.40849643  0.13271515  0.15244307  1
  O  O223  1  0.41514356  0.12949921  0.48632826  1
  O  O224  1  0.41481187  0.13489695  0.81826269  1
  O  O225  1  0.42012314  0.62796936  0.14877317  1
  O  O226  1  0.42201719  0.63456094  0.48949025  1
  O  O227  1  0.42597815  0.63047202  0.81880687  1
  O  O228  1  0.91888585  0.13641975  0.15235643  1
  O  O229  1  0.92522514  0.14360123  0.48305667  1
  O  O230  1  0.91714024  0.13782274  0.81797353  1
  O  O231  1  0.91690818  0.63365767  0.15011772  1
  O  O232  1  0.91880483  0.63407067  0.48565802  1
  O  O233  1  0.92360443  0.62373929  0.81507030  1
  O  O234  1  0.36487867  0.07883172  0.01482103  1
  O  O235  1  0.36061143  0.08309770  0.34976154  1
  O  O236  1  0.36586682  0.08043893  0.68143021  1
  O  O237  1  0.36797173  0.58240366  0.01282248  1
  O  O238  1  0.37517060  0.58728511  0.35369137  1
  O  O239  1  0.36847995  0.58013972  0.68333847  1
  O  O240  1  0.87244015  0.07412178  0.01794072  1
  O  O241  1  0.88217617  0.09492372  0.34747178  1
  O  O242  1  0.86860428  0.08201250  0.68128448  1
  O  O243  1  0.86493756  0.58558395  0.01353530  1
  O  O244  1  0.87174351  0.58062085  0.35014942  1
  O  O245  1  0.86318798  0.57613777  0.68026667  1
  O  O246  1  0.07721698  0.37711035  0.18216674  1
  O  O247  1  0.07910514  0.36746579  0.50944322  1
  O  O248  1  0.08030103  0.36981377  0.85005915  1
  O  O249  1  0.08347378  0.86432596  0.18056001  1
  O  O250  1  0.08901628  0.85833813  0.51322697  1
  O  O251  1  0.09444474  0.87128277  0.85095700  1
  O  O252  1  0.57923275  0.37276746  0.18483946  1
  O  O253  1  0.57734859  0.36832531  0.51652615  1
  O  O254  1  0.58069011  0.37345937  0.85032699  1
  O  O255  1  0.57778254  0.86151136  0.18245776  1
  O  O256  1  0.58308419  0.86374867  0.51155268  1
  O  O257  1  0.58259732  0.86122286  0.84474836  1
  O  O258  1  0.13433223  0.42000566  0.31716273  1
  O  O259  1  0.13182523  0.41930079  0.64486231  1
  O  O260  1  0.13202482  0.41905572  0.98567245  1
  O  O261  1  0.13090608  0.91969817  0.31681562  1
  O  O262  1  0.13405308  0.91578562  0.64995140  1
  O  O263  1  0.13833350  0.91922580  0.98779183  1
  O  O264  1  0.63569019  0.42871617  0.31890608  1
  O  O265  1  0.62618705  0.42230152  0.65188710  1
  O  O266  1  0.63385562  0.41878116  0.98597170  1
  O  O267  1  0.61757329  0.91331621  0.31859822  1
  O  O268  1  0.63263990  0.91786936  0.64805659  1
  O  O269  1  0.63325931  0.91494882  0.98124613  1
  O  O270  1  0.03276683  0.18733547  0.09953969  1
  O  O271  1  0.03222847  0.20854565  0.43349439  1
  O  O272  1  0.03649877  0.20450817  0.77618632  1
  O  O273  1  0.03203821  0.69943064  0.10343631  1
  O  O274  1  0.03218742  0.69477783  0.43573048  1
  O  O275  1  0.03416605  0.70271895  0.77321650  1
  O  O276  1  0.53735358  0.20513142  0.09911919  1
  O  O277  1  0.52209283  0.20657946  0.44595700  1
  O  O278  1  0.52813438  0.20345007  0.77104454  1
  O  O279  1  0.52853004  0.69554090  0.10312457  1
  O  O280  1  0.53267780  0.69735295  0.43848321  1
  O  O281  1  0.53359513  0.69847966  0.77165193  1
  O  O282  1  0.30273613  0.46819788  0.05700640  1
  O  O283  1  0.30662416  0.47254811  0.40401982  1
  O  O284  1  0.30460268  0.45939038  0.72891040  1
  O  O285  1  0.29983123  0.97026758  0.06709758  1
  O  O286  1  0.29524709  0.96748505  0.39593777  1
  O  O287  1  0.29729209  0.96790142  0.72949373  1
  O  O288  1  0.79625209  0.47708689  0.06202821  1
  O  O289  1  0.80563067  0.47006398  0.39671493  1
  O  O290  1  0.79735266  0.46327944  0.72714499  1
  O  O291  1  0.79734990  0.96218702  0.05412561  1
  O  O292  1  0.83039371  0.97663012  0.40241576  1
  O  O293  1  0.79487134  0.97502292  0.72841460  1
  O  O294  1  0.47070685  0.30568270  0.23083939  1
  O  O295  1  0.46454987  0.30030033  0.56340076  1
  O  O296  1  0.47098779  0.30171120  0.89695229  1
  O  O297  1  0.45993822  0.79530903  0.22856682  1
  O  O298  1  0.47354611  0.79668592  0.56516718  1
  O  O299  1  0.46931818  0.79384859  0.89644664  1
  O  O300  1  0.96809037  0.30604816  0.23521150  1
  O  O301  1  0.96934728  0.31831488  0.56311514  1
  O  O302  1  0.96710208  0.30158688  0.88829928  1
  O  O303  1  0.97415897  0.79587473  0.22936271  1
  O  O304  1  0.97217152  0.80290902  0.56203687  1
  O  O305  1  0.97052464  0.80011627  0.89960104  1
  O  O306  1  0.19444834  0.03171668  0.26918513  1
  O  O307  1  0.20594451  0.01906036  0.60247941  1
  O  O308  1  0.20278624  0.02760348  0.93450777  1
  O  O309  1  0.19573381  0.54208446  0.27143940  1
  O  O310  1  0.19868476  0.53625407  0.59961196  1
  O  O311  1  0.19799007  0.53205673  0.94088200  1
  O  O312  1  0.68384106  0.03113540  0.25925770  1
  O  O313  1  0.70584355  0.03276164  0.61003634  1
  O  O314  1  0.70316941  0.02988076  0.93428747  1
  O  O315  1  0.70182515  0.53821600  0.27280045  1
  O  O316  1  0.69746363  0.52939159  0.60421659  1
  O  O317  1  0.70346156  0.52973198  0.94068254  1
  O  O318  1  0.08946341  0.08504838  0.02798624  1
  O  O319  1  0.08068474  0.09078591  0.37148240  1
  O  O320  1  0.09241946  0.09285011  0.71098800  1
  O  O321  1  0.08363987  0.58639656  0.03528458  1
  O  O322  1  0.08085863  0.58092936  0.36553756  1
  O  O323  1  0.06935048  0.58374732  0.69903817  1
  O  O324  1  0.59326614  0.09661007  0.03134539  1
  O  O325  1  0.57104073  0.08804050  0.38651193  1
  O  O326  1  0.59166493  0.09716114  0.71107412  1
  O  O327  1  0.58163751  0.58307253  0.03726888  1
  O  O328  1  0.58438571  0.58412720  0.37132038  1
  O  O329  1  0.58837009  0.58714938  0.70633461  1
  O  O330  1  0.41612998  0.41504797  0.12435887  1
  O  O331  1  0.41492375  0.41736083  0.47186998  1
  O  O332  1  0.41156875  0.40836223  0.80459674  1
  O  O333  1  0.40766027  0.91038521  0.13113148  1
  O  O334  1  0.40706166  0.90977501  0.45600934  1
  O  O335  1  0.40600664  0.90730826  0.78996502  1
  O  O336  1  0.91417923  0.43200949  0.12729532  1
  O  O337  1  0.91424619  0.41259846  0.46397003  1
  O  O338  1  0.91381315  0.41617101  0.79502638  1
  O  O339  1  0.91111786  0.91322136  0.12478318  1
  O  O340  1  0.92751415  0.91868400  0.47790964  1
  O  O341  1  0.89802282  0.90714700  0.78722870  1
  O  O342  1  0.42171376  0.41736356  0.29977879  1
  O  O343  1  0.40599642  0.40831271  0.62759048  1
  O  O344  1  0.41903098  0.41522508  0.96332742  1
  O  O345  1  0.40891377  0.90818235  0.29786501  1
  O  O346  1  0.40905677  0.90290292  0.62330756  1
  O  O347  1  0.40762026  0.90040806  0.95759350  1
  O  O348  1  0.91500835  0.41602546  0.30179415  1
  O  O349  1  0.91302395  0.41987228  0.63717948  1
  O  O350  1  0.92003241  0.41835745  0.95780826  1
  O  O351  1  0.93303811  0.91534981  0.29686438  1
  O  O352  1  0.92082274  0.92054983  0.62708930  1
  O  O353  1  0.91376964  0.91035309  0.96418940  1
  O  O354  1  0.08459159  0.08739760  0.20112699  1
  O  O355  1  0.08411505  0.06138428  0.54052887  1
  O  O356  1  0.09306245  0.08606336  0.87121096  1
  O  O357  1  0.08473995  0.58825381  0.19574625  1
  O  O358  1  0.08598533  0.58561392  0.53137088  1
  O  O359  1  0.08379508  0.58619281  0.87646669  1
  O  O360  1  0.57978924  0.08383892  0.18413493  1
  O  O361  1  0.59024157  0.08533493  0.54593004  1
  O  O362  1  0.59621899  0.09292877  0.87423752  1
  O  O363  1  0.58562802  0.58436780  0.20396042  1
  O  O364  1  0.58190909  0.57722179  0.53519772  1
  O  O365  1  0.59107019  0.58351443  0.87731363  1
  O  O366  1  0.14168145  0.22264341  0.06163882  1
  O  O367  1  0.13948178  0.22042032  0.38527758  1
  O  O368  1  0.13543232  0.22589785  0.72191207  1
  O  O369  1  0.13934578  0.71971602  0.05751135  1
  O  O370  1  0.13898047  0.71394664  0.38834867  1
  O  O371  1  0.13824766  0.71161495  0.72099251  1
  O  O372  1  0.64333329  0.23096962  0.05432985  1
  O  O373  1  0.62704454  0.21697151  0.39581547  1
  O  O374  1  0.63724964  0.23231883  0.73085030  1
  O  O375  1  0.63668926  0.71705457  0.05792953  1
  O  O376  1  0.63625531  0.71685498  0.38664930  1
  O  O377  1  0.64116310  0.72093571  0.72665176  1
  O  O378  1  0.28260607  0.36393158  0.10628078  1
  O  O379  1  0.27969731  0.36427123  0.44673545  1
  O  O380  1  0.27580813  0.35481554  0.77483049  1
  O  O381  1  0.27290261  0.86018224  0.10764749  1
  O  O382  1  0.27409328  0.85903103  0.44008602  1
  O  O383  1  0.27264138  0.85827319  0.77192291  1
  O  O384  1  0.78462940  0.36784019  0.10772994  1
  O  O385  1  0.77746547  0.36087830  0.43803266  1
  O  O386  1  0.78197810  0.35827194  0.77659162  1
  O  O387  1  0.77798624  0.86559898  0.11153361  1
  O  O388  1  0.78934470  0.86686039  0.43809879  1
  O  O389  1  0.76309497  0.87235910  0.77522005  1
  O  O390  1  0.36349148  0.28401998  0.27652550  1
  O  O391  1  0.35634901  0.27330106  0.60644866  1
  O  O392  1  0.36259977  0.28200292  0.94192892  1
  O  O393  1  0.35685402  0.77405887  0.27808325  1
  O  O394  1  0.36322175  0.76842526  0.60487404  1
  O  O395  1  0.36060866  0.76548458  0.93825864  1
  O  O396  1  0.85484813  0.28242522  0.27311478  1
  O  O397  1  0.86326463  0.28250558  0.60536558  1
  O  O398  1  0.86698470  0.28700222  0.94409844  1
  O  O399  1  0.86367823  0.78612850  0.27356267  1
  O  O400  1  0.87218701  0.79102870  0.61892685  1
  O  O401  1  0.86135376  0.77624513  0.94117586  1
  O  O402  1  0.22043725  0.13578445  0.22110444  1
  O  O403  1  0.21184766  0.13011232  0.55825066  1
  O  O404  1  0.22740668  0.13725761  0.89233411  1
  O  O405  1  0.21936350  0.64265581  0.21965088  1
  O  O406  1  0.21913141  0.64186424  0.55186227  1
  O  O407  1  0.21650954  0.63445612  0.88941785  1
  O  O408  1  0.71640799  0.14027001  0.22062481  1
  O  O409  1  0.72101754  0.13421727  0.55638918  1
  O  O410  1  0.73083033  0.14031331  0.89439065  1
  O  O411  1  0.71762473  0.64266995  0.22196904  1
  O  O412  1  0.71345343  0.63150936  0.55001238  1
  O  O413  1  0.72336227  0.63837251  0.89611482  1
  O  O414  1  0.49388830  0.33496917  0.03130810  1
  O  O415  1  0.49315801  0.33368729  0.36499272  1
  O  O416  1  0.48576942  0.33107145  0.69651255  1
  O  O417  1  0.48859882  0.82568527  0.02901011  1
  O  O418  1  0.48928871  0.82961989  0.36326406  1
  O  O419  1  0.49000388  0.82930721  0.69664739  1
  O  O420  1  1.00228098  0.34207446  0.02424017  1
  O  O421  1  0.98527994  0.33125281  0.36699300  1
  O  O422  1  0.99372793  0.33559487  0.69451842  1
  O  O423  1  0.99132734  0.83181345  0.03255654  1
  O  O424  1  0.99461061  0.82737890  0.36337235  1
  O  O425  1  1.00636703  0.84994696  0.69760233  1
  O  O426  1  0.16172628  0.00625524  0.13436835  1
  O  O427  1  0.16664225  0.00053300  0.46782500  1
  O  O428  1  0.16969328  0.00713737  0.80185688  1
  O  O429  1  0.16786056  0.50928794  0.13647414  1
  O  O430  1  0.16772877  0.50978935  0.46488256  1
  O  O431  1  0.15568450  0.50218368  0.80516714  1
  O  O432  1  0.67132083  0.01044827  0.12879140  1
  O  O433  1  0.66215357  0.00031083  0.47552807  1
  O  O434  1  0.67005349  0.01259725  0.80226149  1
  O  O435  1  0.66637409  0.50972313  0.13759330  1
  O  O436  1  0.66199420  0.49822445  0.46910036  1
  O  O437  1  0.66996664  0.50771302  0.80725424  1
  O  O438  1  0.00777278  0.16728316  0.29837764  1
  O  O439  1  0.00247677  0.16174184  0.64057809  1
  O  O440  1  0.01267663  0.17149465  0.96915241  1
  O  O441  1  0.00692874  0.66515418  0.30150938  1
  O  O442  1  0.00362448  0.67396798  0.63835570  1
  O  O443  1  0.00752238  0.66857598  0.96955354  1
  O  O444  1  0.49606463  0.16051169  0.31007985  1
  O  O445  1  0.50961421  0.17173016  0.63913716  1
  O  O446  1  0.51225337  0.17508571  0.96598519  1
  O  O447  1  0.50349815  0.66081044  0.30363071  1
  O  O448  1  0.51122859  0.66544412  0.63804500  1
  O  O449  1  0.50629498  0.66194078  0.96892620  1
  O  O450  1  0.33909389  0.49659199  0.19159833  1
  O  O451  1  0.33452610  0.49455400  0.53714408  1
  O  O452  1  0.32599459  0.48702506  0.86120862  1
  O  O453  1  0.32861660  0.98937975  0.19891705  1
  O  O454  1  0.33212190  0.98798799  0.52943975  1
  O  O455  1  0.33119399  0.98699370  0.86225273  1
  O  O456  1  0.83157184  0.49886140  0.19679362  1
  O  O457  1  0.83221896  0.49089317  0.52831190  1
  O  O458  1  0.83303968  0.49152263  0.86199322  1
  O  O459  1  0.83856805  0.99971074  0.19097006  1
  O  O460  1  0.83804935  0.99512171  0.53217430  1
  O  O461  1  0.83252877  0.99695484  0.86309381  1
