# generated using pymatgen
data_Na31Fe20(SO4)36
_symmetry_space_group_name_H-M   'P 1'
_cell_length_a   18.08868064
_cell_length_b   18.09420185
_cell_length_c   19.72232888
_cell_angle_alpha   107.60789324
_cell_angle_beta   107.56562733
_cell_angle_gamma   90.74721833
_symmetry_Int_Tables_number   1
_chemical_formula_structural   Na31Fe20(SO4)36
_chemical_formula_sum   'Na62 Fe40 S72 O288'
_cell_volume   5827.01261248
_cell_formula_units_Z   2
loop_
 _symmetry_equiv_pos_site_id
 _symmetry_equiv_pos_as_xyz
  1  'x, y, z'
loop_
 _atom_site_type_symbol
 _atom_site_label
 _atom_site_symmetry_multiplicity
 _atom_site_fract_x
 _atom_site_fract_y
 _atom_site_fract_z
 _atom_site_occupancy
  Na  Na0  1  0.13728402  0.36691560  0.08808400  1
  Na  Na1  1  0.13453513  0.37492272  0.42037995  1
  Na  Na2  1  0.13530573  0.36286183  0.74446745  1
  Na  Na3  1  0.13439753  0.86525935  0.08832743  1
  Na  Na4  1  0.13355931  0.86301070  0.41742323  1
  Na  Na5  1  0.12852888  0.86257406  0.74786217  1
  Na  Na6  1  0.63605676  0.36689055  0.08224861  1
  Na  Na7  1  0.63497090  0.37362221  0.41912145  1
  Na  Na8  1  0.62001516  0.36681266  0.74750525  1
  Na  Na9  1  0.65116008  0.86266690  0.09978821  1
  Na  Na10  1  0.63120238  0.86114828  0.40851331  1
  Na  Na11  1  0.63675108  0.87800243  0.76840789  1
  Na  Na12  1  0.36956163  0.13214385  0.25093280  1
  Na  Na13  1  0.37034352  0.13711530  0.58832737  1
  Na  Na14  1  0.37218219  0.12777568  0.91487083  1
  Na  Na15  1  0.37323822  0.64090926  0.25483397  1
  Na  Na16  1  0.36487042  0.63857238  0.58560630  1
  Na  Na17  1  0.36514320  0.63504813  0.91778217  1
  Na  Na18  1  0.85498683  0.12352442  0.22843491  1
  Na  Na19  1  0.86589600  0.13214613  0.58214036  1
  Na  Na20  1  0.84869665  0.13782074  0.92206588  1
  Na  Na21  1  0.87394838  0.64744838  0.26848482  1
  Na  Na22  1  0.86190779  0.62927997  0.57210648  1
  Na  Na23  1  0.86444771  0.63716061  0.92027871  1
  Na  Na24  1  0.98257279  0.50684263  0.10596932  1
  Na  Na25  1  0.55133008  -0.02064491  0.02411586  1
  Na  Na26  1  0.50038192  0.01526338  0.40412186  1
  Na  Na27  1  0.50500144  0.57486661  0.12319859  1
  Na  Na28  1  0.94792628  -0.00154147  0.07261789  1
  Na  Na29  1  0.98527747  0.00734339  0.75060652  1
  Na  Na30  1  0.43777203  0.49386078  0.71515478  1
  Na  Na31  1  0.99290150  0.51466426  0.74052732  1
  Na  Na32  1  0.99434672  -0.00092230  0.41812257  1
  Na  Na33  1  0.01121413  0.99182444  0.25305352  1
  Na  Na34  1  -0.02431099  1.01062340  0.92416643  1
  Na  Na35  1  0.57442686  0.50795058  0.29782917  1
  Na  Na36  1  0.01325134  0.50951298  0.55066850  1
  Na  Na37  1  0.50732921  0.97898730  0.60429731  1
  Na  Na38  1  0.50904040  0.46820982  0.90900041  1
  Na  Na39  1  0.48185474  0.54100919  0.52552536  1
  Na  Na40  1  0.00792896  0.49285079  0.92240641  1
  Na  Na41  1  -0.00025629  0.94332585  0.56844982  1
  Na  Na42  1  0.74013380  0.74310543  0.01139650  1
  Na  Na43  1  0.74984458  0.74578803  0.33529142  1
  Na  Na44  1  0.24126914  0.74349879  0.01179316  1
  Na  Na45  1  0.27275028  0.27382071  0.65613883  1
  Na  Na46  1  0.25295691  0.25100700  -0.00293893  1
  Na  Na47  1  0.25245087  0.75427351  0.66576552  1
  Na  Na48  1  0.25245719  0.75138505  0.32441160  1
  Na  Na49  1  0.72978185  0.74098136  0.66976187  1
  Na  Na50  1  0.74470553  0.24683208  0.67326579  1
  Na  Na51  1  0.75481731  0.24694561  0.32357164  1
  Na  Na52  1  0.24895731  0.75257528  0.83490915  1
  Na  Na53  1  0.25052697  0.75230568  0.49769577  1
  Na  Na54  1  0.26683984  0.27133295  0.48500648  1
  Na  Na55  1  0.26588863  0.26278713  0.82429184  1
  Na  Na56  1  0.75347008  0.24541567  0.14511883  1
  Na  Na57  1  0.74073052  0.24537749  0.84427225  1
  Na  Na58  1  0.75053333  0.24927007  0.49784007  1
  Na  Na59  1  0.24344795  0.24120540  0.18071439  1
  Na  Na60  1  0.71873604  0.71218254  0.49451700  1
  Na  Na61  1  0.74177272  0.74649741  0.84002296  1
  Fe  Fe62  1  0.46697432  0.80685538  0.79019997  1
  Fe  Fe63  1  0.96317563  0.80599729  0.11885720  1
  Fe  Fe64  1  0.96735633  0.30122846  0.45235721  1
  Fe  Fe65  1  0.96130264  0.80979044  0.78806964  1
  Fe  Fe66  1  0.46871229  0.80132377  0.45779611  1
  Fe  Fe67  1  0.46276845  0.31258341  0.44989589  1
  Fe  Fe68  1  0.46875018  0.80226003  0.12913747  1
  Fe  Fe69  1  0.46702019  0.31261861  0.12180729  1
  Fe  Fe70  1  0.96709446  0.31076205  0.12413768  1
  Fe  Fe71  1  0.96700508  0.30702850  0.78675182  1
  Fe  Fe72  1  0.69396613  0.53465297  0.05125829  1
  Fe  Fe73  1  0.69401803  0.03623324  0.71841986  1
  Fe  Fe74  1  0.19066672  0.53507486  0.37660003  1
  Fe  Fe75  1  0.19385228  0.53411853  0.70715099  1
  Fe  Fe76  1  0.19739599  0.03548583  0.38600866  1
  Fe  Fe77  1  0.19330603  0.53725156  0.05013079  1
  Fe  Fe78  1  0.19322406  0.03208754  0.05004411  1
  Fe  Fe79  1  0.19278551  0.03586111  0.72012961  1
  Fe  Fe80  1  0.68584356  0.53507224  0.71175291  1
  Fe  Fe81  1  0.68862950  0.03466165  0.37350683  1
  Fe  Fe82  1  0.04008068  0.19364807  0.21856692  1
  Fe  Fe83  1  0.03601410  0.19001092  0.55053502  1
  Fe  Fe84  1  0.53383107  0.68703586  0.87838788  1
  Fe  Fe85  1  0.53069121  0.19864245  0.87294422  1
  Fe  Fe86  1  0.53381301  0.19597669  0.54565186  1
  Fe  Fe87  1  0.03347404  0.69797640  0.21714060  1
  Fe  Fe88  1  0.03554528  0.69197534  0.88216666  1
  Fe  Fe89  1  0.02809019  0.70171091  0.53669822  1
  Fe  Fe90  1  0.03516518  0.19424285  0.88411761  1
  Fe  Fe91  1  0.53554337  0.18647363  0.20440159  1
  Fe  Fe92  1  0.80968968  0.46287467  0.29324804  1
  Fe  Fe93  1  0.31138821  0.96690681  0.62905961  1
  Fe  Fe94  1  0.80723286  0.46241720  0.95360588  1
  Fe  Fe95  1  0.31608075  0.96336517  0.96194714  1
  Fe  Fe96  1  0.80594710  0.96256961  0.28163752  1
  Fe  Fe97  1  0.30718179  0.96352114  0.28563309  1
  Fe  Fe98  1  0.31040954  0.46659373  0.95557827  1
  Fe  Fe99  1  0.80733192  0.46478145  0.61825658  1
  Fe  Fe100  1  0.31350281  0.46574953  0.28784107  1
  Fe  Fe101  1  0.80392900  0.96552890  0.61362070  1
  S  S102  1  0.35633364  0.14326976  0.08477089  1
  S  S103  1  0.36102300  0.13883714  0.41635385  1
  S  S104  1  0.35525284  0.14378409  0.75060187  1
  S  S105  1  0.35196967  0.64301201  0.08064662  1
  S  S106  1  0.35620104  0.64240663  0.41630233  1
  S  S107  1  0.35538706  0.64466096  0.75092425  1
  S  S108  1  0.87064270  0.14113561  0.08369443  1
  S  S109  1  0.86225639  0.13689680  0.41608300  1
  S  S110  1  0.86172086  0.14028162  0.75047056  1
  S  S111  1  0.86085221  0.63636598  0.08187366  1
  S  S112  1  0.86070420  0.63335045  0.41620200  1
  S  S113  1  0.86059747  0.63944167  0.75164268  1
  S  S114  1  0.14146770  0.35948332  0.25017804  1
  S  S115  1  0.13815513  0.35722994  0.58399127  1
  S  S116  1  0.14143115  0.36051148  0.91688977  1
  S  S117  1  0.13969422  0.86372145  0.25140536  1
  S  S118  1  0.14344592  0.86328702  0.58841707  1
  S  S119  1  0.14064480  0.85921511  0.91741015  1
  S  S120  1  0.64618059  0.35083254  0.24685815  1
  S  S121  1  0.64251127  0.35825392  0.58304051  1
  S  S122  1  0.64073586  0.36165573  0.91638491  1
  S  S123  1  0.64058328  0.85919495  0.25202981  1
  S  S124  1  0.63997748  0.86337109  0.58023934  1
  S  S125  1  0.64011413  0.85126229  0.91759712  1
  S  S126  1  0.07157591  0.16984030  0.04316578  1
  S  S127  1  0.06954349  0.16670041  0.37893558  1
  S  S128  1  0.06694418  0.16749282  0.71283008  1
  S  S129  1  0.06509770  0.66973966  0.04146552  1
  S  S130  1  0.07449118  0.67463137  0.37479553  1
  S  S131  1  0.06442835  0.66945014  0.70549260  1
  S  S132  1  0.56418931  0.17889780  0.04030476  1
  S  S133  1  0.56777512  0.17479800  0.37445789  1
  S  S134  1  0.56850399  0.17319123  0.70821128  1
  S  S135  1  0.56497702  0.66449087  0.03783514  1
  S  S136  1  0.56462692  0.67454800  0.38130467  1
  S  S137  1  0.56123329  0.66626413  0.70959362  1
  S  S138  1  0.32721473  0.43365107  0.12250806  1
  S  S139  1  0.32828752  0.43983668  0.45325493  1
  S  S140  1  0.32661728  0.44021391  0.79182479  1
  S  S141  1  0.32811757  0.92886785  0.12324643  1
  S  S142  1  0.33058419  0.92943536  0.46226355  1
  S  S143  1  0.32452523  0.92821418  0.79369097  1
  S  S144  1  0.82934582  0.42892042  0.12656115  1
  S  S145  1  0.83512356  0.42364275  0.45805746  1
  S  S146  1  0.83620574  0.43308207  0.79343334  1
  S  S147  1  0.83627942  0.92897151  0.12367570  1
  S  S148  1  0.83015360  0.93863774  0.45333734  1
  S  S149  1  0.82938764  0.93710884  0.78859276  1
  S  S150  1  0.43546616  0.32763159  0.28645461  1
  S  S151  1  0.43154589  0.32890935  0.61201116  1
  S  S152  1  0.43356496  0.32990675  0.95753604  1
  S  S153  1  0.42573743  0.83058551  0.29588963  1
  S  S154  1  0.43230374  0.83169598  0.62655430  1
  S  S155  1  0.43217307  0.82356650  0.96106803  1
  S  S156  1  0.92959753  0.32284777  0.28984588  1
  S  S157  1  0.93115704  0.32787696  0.62534907  1
  S  S158  1  0.93649652  0.33284748  0.95927058  1
  S  S159  1  0.93778258  0.83643660  0.29367769  1
  S  S160  1  0.92814198  0.82933408  0.62486509  1
  S  S161  1  0.93642543  0.82852956  0.95434820  1
  S  S162  1  0.17028853  0.06634463  0.21089279  1
  S  S163  1  0.17118511  0.06769479  0.54700645  1
  S  S164  1  0.16424858  0.06514612  0.87842613  1
  S  S165  1  0.16819933  0.56774146  0.20667843  1
  S  S166  1  0.16827945  0.57588837  0.54096108  1
  S  S167  1  0.16497720  0.56456999  0.87227197  1
  S  S168  1  0.66997324  0.06523824  0.20679897  1
  S  S169  1  0.67040296  0.07167067  0.54084800  1
  S  S170  1  0.66174757  0.07615858  0.87075345  1
  S  S171  1  0.68092603  0.55946294  0.21575893  1
  S  S172  1  0.67681569  0.56362887  0.55175044  1
  S  S173  1  0.67293233  0.56408804  0.87728146  1
  O  O174  1  0.36337377  0.22309882  0.07872280  1
  O  O175  1  0.36792116  0.21736164  0.40886190  1
  O  O176  1  0.35533493  0.21952409  0.73886299  1
  O  O177  1  0.36719006  0.72147082  0.07396692  1
  O  O178  1  0.36730103  0.72496681  0.41246981  1
  O  O179  1  0.36491308  0.72733410  0.75026676  1
  O  O180  1  0.88111532  0.22225362  0.07911808  1
  O  O181  1  0.87192279  0.21553271  0.40748028  1
  O  O182  1  0.87255928  0.21880115  0.74165384  1
  O  O183  1  0.87183284  0.71178747  0.06763938  1
  O  O184  1  0.87076368  0.70530298  0.39906316  1
  O  O185  1  0.86797508  0.71868668  0.74419792  1
  O  O186  1  0.27835135  0.13133411  0.09472580  1
  O  O187  1  0.28377322  0.12821305  0.42803195  1
  O  O188  1  0.28073127  0.12747005  0.76600128  1
  O  O189  1  0.26761759  0.63524163  0.07512139  1
  O  O190  1  0.27451593  0.63536524  0.41927690  1
  O  O191  1  0.27611901  0.63577196  0.75952152  1
  O  O192  1  0.79601933  0.12985540  0.09493972  1
  O  O193  1  0.78388092  0.13039104  0.42553559  1
  O  O194  1  0.78143446  0.13309446  0.75525624  1
  O  O195  1  0.78090380  0.62895326  0.08595694  1
  O  O196  1  0.78691544  0.62327800  0.43016831  1
  O  O197  1  0.78232449  0.62902614  0.76037637  1
  O  O198  1  0.13298418  0.27969590  0.25670116  1
  O  O199  1  0.12266583  0.28171900  0.59822298  1
  O  O200  1  0.13111913  0.28245092  0.92628516  1
  O  O201  1  0.13005499  0.78554719  0.25988930  1
  O  O202  1  0.13015305  0.78528267  0.59687770  1
  O  O203  1  0.13324657  0.77833180  0.92243184  1
  O  O204  1  0.63550421  0.26764790  0.24416269  1
  O  O205  1  0.63367175  0.27808217  0.58933275  1
  O  O206  1  0.62677161  0.27997174  0.91743262  1
  O  O207  1  0.63772004  0.78594213  0.26770186  1
  O  O208  1  0.63789786  0.78562800  0.58705080  1
  O  O209  1  0.63179954  0.76560346  0.91418274  1
  O  O210  1  0.21855126  0.36916095  0.23857782  1
  O  O211  1  0.21580322  0.35934891  0.57629157  1
  O  O212  1  0.22132914  0.36855271  0.91113721  1
  O  O213  1  0.21740140  0.87274762  0.24246658  1
  O  O214  1  0.22623894  0.86997971  0.58793789  1
  O  O215  1  0.21960225  0.87136669  0.91073714  1
  O  O216  1  0.72781820  0.36076266  0.24180298  1
  O  O217  1  0.72203805  0.36596284  0.57507172  1
  O  O218  1  0.72295255  0.36843533  0.91363237  1
  O  O219  1  0.71676756  0.87467740  0.23996015  1
  O  O220  1  0.71283550  0.87918950  0.56323396  1
  O  O221  1  0.71264677  0.86464779  0.90267547  1
  O  O222  1  0.41700108  0.13437372  0.15085603  1
  O  O223  1  0.42251246  0.12754474  0.48154479  1
  O  O224  1  0.41941958  0.14198266  0.81906773  1
  O  O225  1  0.40215158  0.63348439  0.14999189  1
  O  O226  1  0.41170455  0.63367040  0.48323529  1
  O  O227  1  0.41395308  0.63247057  0.81751749  1
  O  O228  1  0.93374973  0.13179591  0.15184162  1
  O  O229  1  0.92172842  0.12970761  0.48502159  1
  O  O230  1  0.91888682  0.13290125  0.81998328  1
  O  O231  1  0.91877477  0.63154666  0.15208825  1
  O  O232  1  0.92556196  0.62836090  0.48376230  1
  O  O233  1  0.92040882  0.63092412  0.81950177  1
  O  O234  1  0.36084467  0.08553658  0.01432864  1
  O  O235  1  0.36696273  0.07930913  0.34712986  1
  O  O236  1  0.36327557  0.08219198  0.68392533  1
  O  O237  1  0.36571201  0.58354368  0.01471877  1
  O  O238  1  0.36226948  0.58680625  0.34578534  1
  O  O239  1  0.36172888  0.59013301  0.68191354  1
  O  O240  1  0.88199482  0.08519179  0.01679910  1
  O  O241  1  0.87148471  0.07725047  0.34944618  1
  O  O242  1  0.87219498  0.08004942  0.68408716  1
  O  O243  1  0.87294189  0.57308426  0.01746338  1
  O  O244  1  0.86865881  0.56692511  0.34991144  1
  O  O245  1  0.87197613  0.58070320  0.68471308  1
  O  O246  1  0.08073507  0.36717304  0.18237321  1
  O  O247  1  0.07880963  0.36417515  0.51481089  1
  O  O248  1  0.08382066  0.36714893  0.84722860  1
  O  O249  1  0.07897694  0.87231446  0.18456946  1
  O  O250  1  0.09026080  0.87358316  0.52057002  1
  O  O251  1  0.08109250  0.86616152  0.84918777  1
  O  O252  1  0.58922361  0.36605032  0.18148764  1
  O  O253  1  0.58405376  0.36739270  0.51599139  1
  O  O254  1  0.58591190  0.37707350  0.85219624  1
  O  O255  1  0.57920216  0.85958876  0.18159217  1
  O  O256  1  0.57326436  0.87274304  0.51578532  1
  O  O257  1  0.57413260  0.86460710  0.85551360  1
  O  O258  1  0.13437745  0.41710036  0.31857245  1
  O  O259  1  0.12963526  0.42057709  0.64948047  1
  O  O260  1  0.13068396  0.42112388  0.98282127  1
  O  O261  1  0.13253858  0.92401449  0.31997107  1
  O  O262  1  0.13204382  0.92272733  0.65586486  1
  O  O263  1  0.13134696  0.91557048  0.98603353  1
  O  O264  1  0.63940565  0.40308395  0.31689044  1
  O  O265  1  0.63714908  0.41493434  0.65312872  1
  O  O266  1  0.63457303  0.41759186  0.98732481  1
  O  O267  1  0.62914462  0.92361555  0.31629522  1
  O  O268  1  0.63328594  0.92288124  0.64941185  1
  O  O269  1  0.63640670  0.89854346  0.99089432  1
  O  O270  1  0.04149247  0.20246146  0.10716436  1
  O  O271  1  0.03268598  0.19605725  0.43995228  1
  O  O272  1  0.03087277  0.19960561  0.77428903  1
  O  O273  1  0.03206168  0.70135800  0.10459704  1
  O  O274  1  0.04466593  0.70469977  0.43816469  1
  O  O275  1  0.02824681  0.69698351  0.76701730  1
  O  O276  1  0.51918460  0.20735888  0.09621637  1
  O  O277  1  0.52984591  0.20557926  0.43433346  1
  O  O278  1  0.53129117  0.19755823  0.76772954  1
  O  O279  1  0.52809715  0.69187470  0.09733741  1
  O  O280  1  0.52428890  0.71241728  0.43948654  1
  O  O281  1  0.52465506  0.69853754  0.77138672  1
  O  O282  1  0.29822022  0.47350718  0.06304668  1
  O  O283  1  0.29447643  0.47037972  0.38665392  1
  O  O284  1  0.29371127  0.47614623  0.73223996  1
  O  O285  1  0.30020646  0.97054958  0.06434848  1
  O  O286  1  0.30336706  0.96665783  0.40171377  1
  O  O287  1  0.29652161  0.96998003  0.73644933  1
  O  O288  1  0.80156093  0.47105611  0.06949416  1
  O  O289  1  0.80985071  0.45320559  0.39355904  1
  O  O290  1  0.80585703  0.46703843  0.73174440  1
  O  O291  1  0.81850246  0.96024926  0.06220845  1
  O  O292  1  0.79231863  0.97360427  0.39234340  1
  O  O293  1  0.79795833  0.96738790  0.72227893  1
  O  O294  1  0.47653780  0.29876571  0.22830040  1
  O  O295  1  0.47141833  0.29392330  0.55201454  1
  O  O296  1  0.47258804  0.29958629  0.89958468  1
  O  O297  1  0.46104336  0.80684398  0.23600887  1
  O  O298  1  0.46613566  0.81084191  0.56403749  1
  O  O299  1  0.46818859  0.79281001  0.90025981  1
  O  O300  1  0.97089224  0.29887744  0.23226547  1
  O  O301  1  0.96371395  0.29599214  0.56251126  1
  O  O302  1  0.97356712  0.30372406  0.89808580  1
  O  O303  1  0.96589593  0.79889042  0.22594177  1
  O  O304  1  0.96608438  0.80377915  0.56605869  1
  O  O305  1  0.97407705  0.79220337  0.89400452  1
  O  O306  1  0.20255149  0.03134751  0.27274843  1
  O  O307  1  0.19999807  0.03143841  0.60804769  1
  O  O308  1  0.19360786  0.03056176  0.93995127  1
  O  O309  1  0.19499025  0.52907955  0.26553959  1
  O  O310  1  0.18558223  0.53842859  0.60022178  1
  O  O311  1  0.19440997  0.52627548  0.93118649  1
  O  O312  1  0.70588965  0.03617044  0.27354389  1
  O  O313  1  0.70071365  0.03843227  0.60357648  1
  O  O314  1  0.68117694  0.04603506  0.93243113  1
  O  O315  1  0.71266012  0.51402574  0.26906276  1
  O  O316  1  0.71173299  0.52666143  0.61525155  1
  O  O317  1  0.70316942  0.52736397  0.93834268  1
  O  O318  1  0.08656143  0.08696640  0.03619662  1
  O  O319  1  0.08619915  0.08406023  0.37477679  1
  O  O320  1  0.08126121  0.08511988  0.70855933  1
  O  O321  1  0.08446417  0.58858821  0.03821685  1
  O  O322  1  0.09293064  0.59333470  0.36489437  1
  O  O323  1  0.07989826  0.58599677  0.69743266  1
  O  O324  1  0.58201526  0.10095266  0.03871993  1
  O  O325  1  0.58651029  0.09436839  0.37432770  1
  O  O326  1  0.58883022  0.09145121  0.69571733  1
  O  O327  1  0.58443027  0.58232246  0.03404436  1
  O  O328  1  0.59798479  0.60792107  0.40236269  1
  O  O329  1  0.58586577  0.58852374  0.71467085  1
  O  O330  1  0.40729804  0.41458986  0.12587398  1
  O  O331  1  0.40443947  0.41090509  0.44721267  1
  O  O332  1  0.40801598  0.42840229  0.79629917  1
  O  O333  1  0.40477210  0.90373022  0.12334642  1
  O  O334  1  0.41124465  0.90676532  0.46762864  1
  O  O335  1  0.40174398  0.90431057  0.79385201  1
  O  O336  1  0.91138145  0.41361240  0.12918797  1
  O  O337  1  0.91821532  0.40610616  0.47055584  1
  O  O338  1  0.91997897  0.41795643  0.79941057  1
  O  O339  1  0.92276947  0.91313401  0.14091591  1
  O  O340  1  0.91227859  0.93290073  0.45667559  1
  O  O341  1  0.91231656  0.91857183  0.79266589  1
  O  O342  1  0.41331975  0.40630403  0.28617489  1
  O  O343  1  0.40181547  0.40029376  0.60010035  1
  O  O344  1  0.41240102  0.40930233  0.95545806  1
  O  O345  1  0.41063721  0.91507062  0.31020057  1
  O  O346  1  0.41456393  0.91489781  0.63914079  1
  O  O347  1  0.41820381  0.90670985  0.96687798  1
  O  O348  1  0.90355071  0.40100257  0.29257017  1
  O  O349  1  0.91372227  0.40986246  0.63163355  1
  O  O350  1  0.92121542  0.41613820  0.96580442  1
  O  O351  1  0.91740605  0.91721809  0.29159252  1
  O  O352  1  0.91191068  0.91303366  0.63095408  1
  O  O353  1  0.92650294  0.90896975  0.95517369  1
  O  O354  1  0.08847503  0.08209436  0.20791243  1
  O  O355  1  0.08780890  0.08274312  0.53944377  1
  O  O356  1  0.08099270  0.08192669  0.87118625  1
  O  O357  1  0.08819109  0.59110057  0.20176159  1
  O  O358  1  0.08758980  0.59908315  0.52952100  1
  O  O359  1  0.08174980  0.58061567  0.86831184  1
  O  O360  1  0.59272012  0.09064506  0.21042190  1
  O  O361  1  0.58860374  0.09023584  0.53477208  1
  O  O362  1  0.58062072  0.10331155  0.85690171  1
  O  O363  1  0.60326656  0.57564515  0.22133914  1
  O  O364  1  0.60398306  0.59050290  0.56101761  1
  O  O365  1  0.59132452  0.57971729  0.87157876  1
  O  O366  1  0.14280432  0.21919945  0.05392352  1
  O  O367  1  0.14019028  0.21784596  0.39476598  1
  O  O368  1  0.13901634  0.21739642  0.72880116  1
  O  O369  1  0.13250847  0.72220307  0.05132621  1
  O  O370  1  0.14447367  0.72696108  0.38585008  1
  O  O371  1  0.13729963  0.72049591  0.72474809  1
  O  O372  1  0.63324973  0.23476604  0.06157984  1
  O  O373  1  0.63980119  0.22619859  0.39119949  1
  O  O374  1  0.63970033  0.22784332  0.72756116  1
  O  O375  1  0.63474410  0.71612798  0.05107115  1
  O  O376  1  0.62944315  0.73272565  0.39111018  1
  O  O377  1  0.63122108  0.72078496  0.72545543  1
  O  O378  1  0.27287527  0.36307584  0.10281710  1
  O  O379  1  0.27214094  0.37612701  0.44533821  1
  O  O380  1  0.27703561  0.36594220  0.77473044  1
  O  O381  1  0.26873558  0.86339374  0.10535745  1
  O  O382  1  0.27509843  0.86064121  0.44563203  1
  O  O383  1  0.26662404  0.86028046  0.77550835  1
  O  O384  1  0.77823247  0.35718823  0.10641794  1
  O  O385  1  0.78316955  0.35299826  0.44415919  1
  O  O386  1  0.78762152  0.36072841  0.78005151  1
  O  O387  1  0.78761820  0.85663376  0.11012944  1
  O  O388  1  0.78567224  0.86415119  0.43908511  1
  O  O389  1  0.77960956  0.86564375  0.77547286  1
  O  O390  1  0.36703681  0.27192635  0.26916576  1
  O  O391  1  0.36560778  0.26895718  0.59676837  1
  O  O392  1  0.36245874  0.27695295  0.94180472  1
  O  O393  1  0.35421466  0.78025703  0.27993968  1
  O  O394  1  0.36019096  0.77902637  0.60733379  1
  O  O395  1  0.35733833  0.77546188  0.94253896  1
  O  O396  1  0.86214834  0.26476707  0.27098694  1
  O  O397  1  0.86046378  0.27694367  0.61284296  1
  O  O398  1  0.86486899  0.28230924  0.94138201  1
  O  O399  1  0.86940626  0.78751185  0.28668707  1
  O  O400  1  0.85668973  0.77922747  0.60979889  1
  O  O401  1  0.86337203  0.77934695  0.93755857  1
  O  O402  1  0.22058054  0.13670075  0.22387175  1
  O  O403  1  0.22127328  0.13953703  0.56286124  1
  O  O404  1  0.21450982  0.13664788  0.89263655  1
  O  O405  1  0.22365224  0.63496069  0.22084041  1
  O  O406  1  0.22518170  0.64509879  0.56084134  1
  O  O407  1  0.21469480  0.63781665  0.89049399  1
  O  O408  1  0.72385131  0.13271829  0.21635211  1
  O  O409  1  0.72295713  0.14256539  0.55581248  1
  O  O410  1  0.71761511  0.14166156  0.87865993  1
  O  O411  1  0.73398912  0.62976090  0.23390599  1
  O  O412  1  0.73482350  0.63173525  0.56899819  1
  O  O413  1  0.72539882  0.63609190  0.89579867  1
  O  O414  1  0.48998013  0.33881280  0.03313406  1
  O  O415  1  0.49338679  0.33348411  0.36084044  1
  O  O416  1  0.48917992  0.34348190  0.68608656  1
  O  O417  1  0.48911626  0.82279393  0.03277489  1
  O  O418  1  0.48537015  0.82875470  0.36842400  1
  O  O419  1  0.49127065  0.82721998  0.69581215  1
  O  O420  1  0.99540906  0.33444800  0.03151908  1
  O  O421  1  0.98894495  0.32820514  0.36310964  1
  O  O422  1  0.99296094  0.33077248  0.69697398  1
  O  O423  1  0.99260319  0.82890801  0.02825395  1
  O  O424  1  1.00386674  0.84875769  0.36217336  1
  O  O425  1  0.98731549  0.83389784  0.69924401  1
  O  O426  1  0.16646420  0.00572879  0.13804929  1
  O  O427  1  0.16997480  0.00815601  0.47452271  1
  O  O428  1  0.16193437  0.00529160  0.80607611  1
  O  O429  1  0.16121451  0.50647262  0.13270850  1
  O  O430  1  0.17028768  0.51608167  0.47026580  1
  O  O431  1  0.16038490  0.50874076  0.79761242  1
  O  O432  1  0.65914638  0.00064062  0.13762226  1
  O  O433  1  0.66657651  0.01159048  0.46842493  1
  O  O434  1  0.65725965  0.01197510  0.79796726  1
  O  O435  1  0.67167445  0.50643504  0.13742022  1
  O  O436  1  0.66947976  0.50345761  0.48115231  1
  O  O437  1  0.67475226  0.50632376  0.80549067  1
  O  O438  1  0.01012468  0.16261081  0.30610220  1
  O  O439  1  0.00786050  0.16642015  0.64069126  1
  O  O440  1  0.00882279  0.16734328  0.97176537  1
  O  O441  1  0.01143879  0.67494311  0.30454818  1
  O  O442  1  0.00729955  0.67001892  0.63339423  1
  O  O443  1  0.00252730  0.66162175  0.96858980  1
  O  O444  1  0.51026327  0.17086025  0.30131884  1
  O  O445  1  0.50989713  0.17481539  0.63669558  1
  O  O446  1  0.50938548  0.17863195  0.96457899  1
  O  O447  1  0.50654730  0.65116191  0.30624688  1
  O  O448  1  0.50139059  0.65591493  0.63778020  1
  O  O449  1  0.50527355  0.65715120  0.96313198  1
  O  O450  1  0.32800051  0.49134628  0.19493446  1
  O  O451  1  0.34425121  0.50633200  0.52164294  1
  O  O452  1  0.32512403  0.49574661  0.86593615  1
  O  O453  1  0.33360588  0.98896624  0.19655105  1
  O  O454  1  0.33586717  0.98950498  0.53534232  1
  O  O455  1  0.32937013  0.98622976  0.86804902  1
  O  O456  1  0.83233851  0.48408826  0.20155434  1
  O  O457  1  0.83510423  0.48637480  0.52791886  1
  O  O458  1  0.83926640  0.49240433  0.86638680  1
  O  O459  1  0.83356591  0.98930556  0.19498356  1
  O  O460  1  0.82981648  0.99559117  0.52754119  1
  O  O461  1  0.83489520  1.00032515  0.85738390  1
