# generated using pymatgen
data_Na31Fe20(SO4)36
_symmetry_space_group_name_H-M   'P 1'
_cell_length_a   18.10070258
_cell_length_b   18.09618414
_cell_length_c   19.72827071
_cell_angle_alpha   107.55077177
_cell_angle_beta   107.59066383
_cell_angle_gamma   90.75376201
_symmetry_Int_Tables_number   1
_chemical_formula_structural   Na31Fe20(SO4)36
_chemical_formula_sum   'Na62 Fe40 S72 O288'
_cell_volume   5834.36499365
_cell_formula_units_Z   2
loop_
 _symmetry_equiv_pos_site_id
 _symmetry_equiv_pos_as_xyz
  1  'x, y, z'
loop_
 _atom_site_type_symbol
 _atom_site_label
 _atom_site_symmetry_multiplicity
 _atom_site_fract_x
 _atom_site_fract_y
 _atom_site_fract_z
 _atom_site_occupancy
  Na  Na0  1  0.13770225  0.34561834  0.07206901  1
  Na  Na1  1  0.13546895  0.34135415  0.38183335  1
  Na  Na2  1  0.14914892  0.36618458  0.76387901  1
  Na  Na3  1  0.20804551  0.91257774  0.14628094  1
  Na  Na4  1  0.13025482  0.84467402  0.40579309  1
  Na  Na5  1  0.14880664  0.87044295  0.77132063  1
  Na  Na6  1  0.62994640  0.36271814  0.08215737  1
  Na  Na7  1  0.62834947  0.36054189  0.40238114  1
  Na  Na8  1  0.63246807  0.36421779  0.74917751  1
  Na  Na9  1  0.62737876  0.87244998  0.08238518  1
  Na  Na10  1  0.62811011  0.86988653  0.41137281  1
  Na  Na11  1  0.62837251  0.86646156  0.74532577  1
  Na  Na12  1  0.35055592  0.12887792  0.23940404  1
  Na  Na13  1  0.35791793  0.13830486  0.58128477  1
  Na  Na14  1  0.33226195  0.17551985  0.94586623  1
  Na  Na15  1  0.36199151  0.63275390  0.24093405  1
  Na  Na16  1  0.35539103  0.62899948  0.56810342  1
  Na  Na17  1  0.36999773  0.63576726  0.92261764  1
  Na  Na18  1  0.87701524  0.12996185  0.25180017  1
  Na  Na19  1  0.87119639  0.13060271  0.58577394  1
  Na  Na20  1  0.87223784  0.13004275  0.91840834  1
  Na  Na21  1  0.87092517  0.63435402  0.25572897  1
  Na  Na22  1  0.86418266  0.63147827  0.57994187  1
  Na  Na23  1  0.86989041  0.62994936  0.91538235  1
  Na  Na24  1  1.01524236  -0.04099334  0.45477293  1
  Na  Na25  1  1.02698488  0.48794525  0.40694515  1
  Na  Na26  1  1.01514291  -0.00479086  0.71880365  1
  Na  Na27  1  1.01731202  0.49248105  0.06272673  1
  Na  Na28  1  0.48957112  0.51293030  0.41050470  1
  Na  Na29  1  0.48319211  0.50917997  0.75112543  1
  Na  Na30  1  0.47952727  0.01252918  0.76476033  1
  Na  Na31  1  1.00229196  0.49046132  0.77186673  1
  Na  Na32  1  1.00645854  0.05088566  0.12337056  1
  Na  Na33  1  0.50875724  0.47910041  0.57751619  1
  Na  Na34  1  0.48482488  1.05237328  0.21439266  1
  Na  Na35  1  0.41929102  1.01589409  1.01214504  1
  Na  Na36  1  0.48855053  1.01718081  0.54630228  1
  Na  Na37  1  0.49907789  0.42790554  0.20582421  1
  Na  Na38  1  0.03652188  0.49660170  0.24777454  1
  Na  Na39  1  0.08912741  0.99111701  0.97186169  1
  Na  Na40  1  0.01115128  0.49161662  0.58204604  1
  Na  Na41  1  0.50932960  0.49195859  0.93142523  1
  Na  Na42  1  0.74242579  0.24472647  0.00406680  1
  Na  Na43  1  0.76462528  0.76028736  0.33093090  1
  Na  Na44  1  0.24257093  0.24252333  0.67968579  1
  Na  Na45  1  0.74365956  0.24441734  0.66946871  1
  Na  Na46  1  0.26204701  0.76808761  0.30918694  1
  Na  Na47  1  0.75456751  0.75042428  -0.00205326  1
  Na  Na48  1  0.74317968  0.23724846  0.33905652  1
  Na  Na49  1  0.24475425  0.74887829  0.01856255  1
  Na  Na50  1  0.75706372  0.75522981  0.65918794  1
  Na  Na51  1  0.25091099  0.75480757  0.66346681  1
  Na  Na52  1  0.75616757  0.75338009  0.16425555  1
  Na  Na53  1  0.24434293  0.74559062  0.49349849  1
  Na  Na54  1  0.74293688  0.24159373  0.83819092  1
  Na  Na55  1  0.22901985  0.23712695  0.18603718  1
  Na  Na56  1  0.74851261  0.24819224  0.50356395  1
  Na  Na57  1  0.72470114  0.23273169  0.17070347  1
  Na  Na58  1  0.76600940  0.76231606  0.49177751  1
  Na  Na59  1  0.75317971  0.75549912  0.82551702  1
  Na  Na60  1  0.25800953  0.25723285  0.48332032  1
  Na  Na61  1  0.25269044  0.74689875  0.83695273  1
  Fe  Fe62  1  0.96786767  0.81300157  0.12361451  1
  Fe  Fe63  1  0.96820421  0.81074598  0.79416749  1
  Fe  Fe64  1  0.46566600  0.80614503  0.44509225  1
  Fe  Fe65  1  0.96690462  0.30582443  0.78626621  1
  Fe  Fe66  1  0.97183915  0.29993090  0.44901917  1
  Fe  Fe67  1  0.46394311  0.81407125  0.79312650  1
  Fe  Fe68  1  0.46224984  0.31052290  0.78699420  1
  Fe  Fe69  1  0.46395829  0.81218787  0.12230433  1
  Fe  Fe70  1  0.44746018  0.29906589  0.42844579  1
  Fe  Fe71  1  0.96470462  0.30796691  0.12223942  1
  Fe  Fe72  1  0.69032231  0.03652478  0.71048462  1
  Fe  Fe73  1  0.68431796  0.03638331  0.37332486  1
  Fe  Fe74  1  0.19448724  0.03078908  0.37693309  1
  Fe  Fe75  1  0.69366772  0.53346575  0.71426128  1
  Fe  Fe76  1  0.69943969  0.53401464  0.05245538  1
  Fe  Fe77  1  0.19315076  0.53727633  0.71568529  1
  Fe  Fe78  1  0.68472224  0.03276212  0.04243977  1
  Fe  Fe79  1  0.18939257  0.54284861  0.04627290  1
  Fe  Fe80  1  0.19750670  0.03490915  0.71812922  1
  Fe  Fe81  1  0.69031408  0.53304971  0.37847787  1
  Fe  Fe82  1  0.53020004  0.19701264  0.54223632  1
  Fe  Fe83  1  0.03448915  0.69330380  0.88430708  1
  Fe  Fe84  1  0.52902707  0.19963886  0.88938497  1
  Fe  Fe85  1  0.53577204  0.69281425  0.54723359  1
  Fe  Fe86  1  0.03818186  0.18683493  0.54817975  1
  Fe  Fe87  1  0.03360211  0.69520505  0.21743846  1
  Fe  Fe88  1  0.53997784  0.68741270  0.88008994  1
  Fe  Fe89  1  0.04034078  0.19046430  0.88003264  1
  Fe  Fe90  1  0.03032772  0.69703388  0.54239277  1
  Fe  Fe91  1  0.53434872  0.68980347  0.21288674  1
  Fe  Fe92  1  0.31221939  0.45905755  0.95881078  1
  Fe  Fe93  1  0.80963762  0.96438057  0.28901574  1
  Fe  Fe94  1  0.29657495  0.47285213  0.28537578  1
  Fe  Fe95  1  0.80633325  0.96367115  0.61832619  1
  Fe  Fe96  1  0.80754623  0.96799015  0.95505365  1
  Fe  Fe97  1  0.80798374  0.46390376  0.95206598  1
  Fe  Fe98  1  0.30796101  0.96168160  0.62079188  1
  Fe  Fe99  1  0.30202300  0.46743769  0.61275116  1
  Fe  Fe100  1  0.81144663  0.46737372  0.28887156  1
  Fe  Fe101  1  0.80878261  0.46399341  0.61843853  1
  S  S102  1  0.35305409  0.14768725  0.08959205  1
  S  S103  1  0.35969208  0.13708650  0.42124247  1
  S  S104  1  0.36168088  0.13992531  0.74666113  1
  S  S105  1  0.36337551  0.63778844  0.07912778  1
  S  S106  1  0.36242218  0.64047097  0.41635381  1
  S  S107  1  0.36176873  0.63920178  0.74824607  1
  S  S108  1  0.85105989  0.14112136  0.08265560  1
  S  S109  1  0.86011243  0.14005029  0.41724293  1
  S  S110  1  0.85945980  0.14076230  0.74711155  1
  S  S111  1  0.86263456  0.63950350  0.08095386  1
  S  S112  1  0.85601400  0.63758439  0.42118447  1
  S  S113  1  0.86029682  0.63843907  0.75076878  1
  S  S114  1  0.13701228  0.36621061  0.24382604  1
  S  S115  1  0.14091515  0.36038222  0.58615713  1
  S  S116  1  0.13444858  0.36633722  0.91724887  1
  S  S117  1  0.13745185  0.86092548  0.25496462  1
  S  S118  1  0.14159327  0.86092884  0.58359340  1
  S  S119  1  0.14727980  0.84798848  0.92045384  1
  S  S120  1  0.65000715  0.35926416  0.25065973  1
  S  S121  1  0.64040921  0.36052809  0.58263905  1
  S  S122  1  0.63990549  0.36174536  0.91500174  1
  S  S123  1  0.64295319  0.85460228  0.25045859  1
  S  S124  1  0.63882308  0.86000743  0.58265411  1
  S  S125  1  0.64354483  0.85607334  0.91272057  1
  S  S126  1  0.05493745  0.17118112  0.04204507  1
  S  S127  1  0.06999856  0.16672918  0.38343639  1
  S  S128  1  0.07058884  0.17406081  0.70959031  1
  S  S129  1  0.06711484  0.67411354  0.04403316  1
  S  S130  1  0.05985079  0.66357013  0.37583701  1
  S  S131  1  0.06543304  0.67091550  0.70843566  1
  S  S132  1  0.57111037  0.16641905  0.03729520  1
  S  S133  1  0.56524140  0.17711329  0.37789497  1
  S  S134  1  0.56635868  0.17310712  0.70774472  1
  S  S135  1  0.57425935  0.66735755  0.04215899  1
  S  S136  1  0.57125538  0.66893916  0.37810858  1
  S  S137  1  0.56571347  0.66224847  0.70552435  1
  S  S138  1  0.31745690  0.43579504  0.11857028  1
  S  S139  1  0.32714950  0.43254410  0.45377046  1
  S  S140  1  0.33211365  0.43754816  0.79021192  1
  S  S141  1  0.35423987  0.93110764  0.11809823  1
  S  S142  1  0.32557931  0.92734419  0.45714721  1
  S  S143  1  0.33248006  0.93634586  0.79297512  1
  S  S144  1  0.83269759  0.43386774  0.12439391  1
  S  S145  1  0.83394033  0.42729576  0.45929001  1
  S  S146  1  0.82813147  0.43059842  0.78790022  1
  S  S147  1  0.82466772  0.93132785  0.12140814  1
  S  S148  1  0.82230010  0.93562591  0.45509921  1
  S  S149  1  0.82340675  0.93045838  0.78720057  1
  S  S150  1  0.43052555  0.34494370  0.29772120  1
  S  S151  1  0.43359751  0.33514151  0.62475379  1
  S  S152  1  0.43657883  0.34010624  0.95784917  1
  S  S153  1  0.43636760  0.82634388  0.28730481  1
  S  S154  1  0.43214747  0.82509138  0.62405378  1
  S  S155  1  0.43932466  0.82054762  0.95018439  1
  S  S156  1  0.93152708  0.33212154  0.29124222  1
  S  S157  1  0.93532048  0.33331427  0.62556248  1
  S  S158  1  0.92806373  0.32871422  0.95399384  1
  S  S159  1  0.93102816  0.82797858  0.28952182  1
  S  S160  1  0.93162219  0.82689132  0.62834523  1
  S  S161  1  0.92513271  0.82412204  0.95551011  1
  S  S162  1  0.16476965  0.07829383  0.22556594  1
  S  S163  1  0.17442916  0.06626733  0.54552588  1
  S  S164  1  0.15261749  0.06554995  0.86424300  1
  S  S165  1  0.16946117  0.57171995  0.20615347  1
  S  S166  1  0.16602556  0.56526227  0.54417742  1
  S  S167  1  0.17227695  0.56980638  0.87624326  1
  S  S168  1  0.67720524  0.06732547  0.21325196  1
  S  S169  1  0.67133380  0.07007630  0.54220557  1
  S  S170  1  0.66752834  0.06950449  0.87135506  1
  S  S171  1  0.67494651  0.57126332  0.21096164  1
  S  S172  1  0.66877404  0.56438635  0.54314207  1
  S  S173  1  0.67027590  0.56281684  0.87481070  1
  O  O174  1  0.37451866  0.22454879  0.08442341  1
  O  O175  1  0.36407826  0.22266791  0.42933611  1
  O  O176  1  0.37206684  0.21736158  0.73508974  1
  O  O177  1  0.38064330  0.71224371  0.06557442  1
  O  O178  1  0.37417768  0.71771657  0.40597763  1
  O  O179  1  0.37283141  0.71933155  0.74426690  1
  O  O180  1  0.85999795  0.22062618  0.07627750  1
  O  O181  1  0.87336022  0.21870256  0.40903311  1
  O  O182  1  0.86910741  0.21744120  0.73392398  1
  O  O183  1  0.87153167  0.71778338  0.07202121  1
  O  O184  1  0.85570277  0.71649720  0.41617453  1
  O  O185  1  0.86750760  0.71919126  0.74684513  1
  O  O186  1  0.29048192  0.15183084  0.12415454  1
  O  O187  1  0.28241533  0.12224009  0.43398197  1
  O  O188  1  0.28123280  0.13183821  0.74965160  1
  O  O189  1  0.28328770  0.63686340  0.08488893  1
  O  O190  1  0.29152214  0.63436250  0.43512344  1
  O  O191  1  0.28383620  0.63161137  0.75853554  1
  O  O192  1  0.77003563  0.13052179  0.08668118  1
  O  O193  1  0.77831673  0.13552927  0.42079621  1
  O  O194  1  0.77748089  0.13346271  0.75013024  1
  O  O195  1  0.78280179  0.63158404  0.08810995  1
  O  O196  1  0.78054841  0.61897895  0.43437779  1
  O  O197  1  0.78301650  0.62801343  0.76268931  1
  O  O198  1  0.13264662  0.28746985  0.24770762  1
  O  O199  1  0.13278384  0.28304119  0.59678098  1
  O  O200  1  0.12317052  0.28873442  0.92609408  1
  O  O201  1  0.12256905  0.78446887  0.26820662  1
  O  O202  1  0.12811647  0.78074937  0.58884542  1
  O  O203  1  0.13441976  0.76292829  0.91483544  1
  O  O204  1  0.64819250  0.28674445  0.26860174  1
  O  O205  1  0.63191273  0.28124057  0.59040267  1
  O  O206  1  0.63055585  0.28142265  0.91927657  1
  O  O207  1  0.63437987  0.77807719  0.26389888  1
  O  O208  1  0.62874791  0.78220729  0.59359523  1
  O  O209  1  0.63922184  0.77532212  0.91800734  1
  O  O210  1  0.21778008  0.38176622  0.23641365  1
  O  O211  1  0.21930541  0.37020954  0.57729649  1
  O  O212  1  0.21239630  0.37677936  0.90852547  1
  O  O213  1  0.21422658  0.86327246  0.24576752  1
  O  O214  1  0.22531880  0.86473347  0.58310234  1
  O  O215  1  0.21293842  0.85709460  0.89396332  1
  O  O216  1  0.72987010  0.37459573  0.24464850  1
  O  O217  1  0.72101283  0.36974436  0.57775494  1
  O  O218  1  0.71819192  0.36985472  0.90473290  1
  O  O219  1  0.72469528  0.86253970  0.24739050  1
  O  O220  1  0.71862271  0.86586554  0.57539212  1
  O  O221  1  0.72224693  0.86986822  0.90516201  1
  O  O222  1  0.42035113  0.11707984  0.13414726  1
  O  O223  1  0.42118640  0.12611207  0.48847024  1
  O  O224  1  0.41957345  0.13371568  0.81574042  1
  O  O225  1  0.41955207  0.63062620  0.14884577  1
  O  O226  1  0.42975242  0.62697738  0.47727574  1
  O  O227  1  0.42175650  0.62399940  0.81229730  1
  O  O228  1  0.90830399  0.12953000  0.14754148  1
  O  O229  1  0.91477197  0.13379732  0.48794523  1
  O  O230  1  0.91429510  0.13796924  0.81807369  1
  O  O231  1  0.92034410  0.63069871  0.14875697  1
  O  O232  1  0.91894825  0.62940561  0.48674819  1
  O  O233  1  0.92203161  0.62555726  0.81457564  1
  O  O234  1  0.32582140  0.09370668  0.01059536  1
  O  O235  1  0.36683083  0.08905999  0.35138969  1
  O  O236  1  0.37336079  0.07876288  0.68089345  1
  O  O237  1  0.36948578  0.57383579  0.01300986  1
  O  O238  1  0.36253912  0.57988804  0.34430180  1
  O  O239  1  0.36630775  0.58230429  0.67724633  1
  O  O240  1  0.85702041  0.08323894  0.01163725  1
  O  O241  1  0.86918425  0.07993383  0.35142540  1
  O  O242  1  0.86979037  0.07837978  0.68248197  1
  O  O243  1  0.86924872  0.57950561  0.01271381  1
  O  O244  1  0.86379900  0.58154753  0.35127746  1
  O  O245  1  0.86349561  0.58237958  0.67932428  1
  O  O246  1  0.07944960  0.37610264  0.17429956  1
  O  O247  1  0.08050741  0.36838460  0.51878074  1
  O  O248  1  0.07569236  0.37267606  0.84678958  1
  O  O249  1  0.07700707  0.87029441  0.18925307  1
  O  O250  1  0.09032415  0.87222537  0.51544312  1
  O  O251  1  0.07621016  0.86854636  0.86722035  1
  O  O252  1  0.59282757  0.35856470  0.18006881  1
  O  O253  1  0.58283904  0.37088351  0.51626042  1
  O  O254  1  0.58003401  0.37380650  0.84944257  1
  O  O255  1  0.58850896  0.85535406  0.17798921  1
  O  O256  1  0.58100765  0.86754509  0.51427747  1
  O  O257  1  0.58424730  0.86207989  0.84410830  1
  O  O258  1  0.12582097  0.42418023  0.30956999  1
  O  O259  1  0.13290486  0.42108627  0.65384375  1
  O  O260  1  0.12333856  0.42632057  0.98295957  1
  O  O261  1  0.13330053  0.92183248  0.32555570  1
  O  O262  1  0.13362316  0.91867714  0.65243160  1
  O  O263  1  0.15694992  0.89522330  0.99772421  1
  O  O264  1  0.63600069  0.42374477  0.31424989  1
  O  O265  1  0.63196494  0.41877540  0.65178506  1
  O  O266  1  0.63501140  0.41956813  0.98502225  1
  O  O267  1  0.63145621  0.91719535  0.31382567  1
  O  O268  1  0.63165364  0.92054030  0.64971362  1
  O  O269  1  0.63434183  0.91194081  0.98089389  1
  O  O270  1  0.01381543  0.21001755  0.09563131  1
  O  O271  1  0.03765608  0.19805113  0.45015487  1
  O  O272  1  0.03180833  0.20171650  0.76931985  1
  O  O273  1  0.03303216  0.70522146  0.10650197  1
  O  O274  1  0.02506432  0.69709704  0.43584480  1
  O  O275  1  0.02804651  0.70079907  0.76842872  1
  O  O276  1  0.55571460  0.18680268  0.10750646  1
  O  O277  1  0.52766909  0.20798793  0.43983787  1
  O  O278  1  0.53237666  0.20313263  0.76952514  1
  O  O279  1  0.54042797  0.69476154  0.10372954  1
  O  O280  1  0.53676524  0.70474289  0.43985523  1
  O  O281  1  0.53297806  0.69268177  0.76803251  1
  O  O282  1  0.28304152  0.47816051  0.06131671  1
  O  O283  1  0.30408965  0.46788900  0.39305878  1
  O  O284  1  0.30274446  0.47295443  0.72818529  1
  O  O285  1  0.33769421  0.94409752  0.04613401  1
  O  O286  1  0.29308955  0.96616565  0.40064481  1
  O  O287  1  0.30178683  0.97188150  0.72931443  1
  O  O288  1  0.80256758  0.47126704  0.06329636  1
  O  O289  1  0.80348231  0.46137059  0.39780407  1
  O  O290  1  0.79864212  0.46763561  0.72690802  1
  O  O291  1  0.79230292  0.96863721  0.06086732  1
  O  O292  1  0.78860486  0.97582957  0.39703512  1
  O  O293  1  0.79539558  0.96953109  0.72746698  1
  O  O294  1  0.46335980  0.32395148  0.23754656  1
  O  O295  1  0.47405486  0.30774482  0.56784548  1
  O  O296  1  0.46794892  0.30301112  0.89110164  1
  O  O297  1  0.47476545  0.79036442  0.22668283  1
  O  O298  1  0.46831211  0.79719626  0.56273194  1
  O  O299  1  0.48093152  0.78342471  0.89197263  1
  O  O300  1  0.96468934  0.31088308  0.22971260  1
  O  O301  1  0.96984758  0.30258570  0.56446476  1
  O  O302  1  0.96130690  0.29879975  0.89133987  1
  O  O303  1  0.96000329  0.79479247  0.22303007  1
  O  O304  1  0.96738735  0.79810534  0.56943253  1
  O  O305  1  0.96294587  0.79150960  0.89555128  1
  O  O306  1  0.19604187  0.03303541  0.28203048  1
  O  O307  1  0.20386550  0.02708918  0.60424038  1
  O  O308  1  0.17174671  0.03416132  0.92568056  1
  O  O309  1  0.20193168  0.53772186  0.26765774  1
  O  O310  1  0.20034916  0.53448773  0.61050553  1
  O  O311  1  0.20062095  0.53377741  0.93648393  1
  O  O312  1  0.70897304  0.02306659  0.26935867  1
  O  O313  1  0.70050725  0.03061483  0.60146073  1
  O  O314  1  0.69469991  0.02984888  0.92934994  1
  O  O315  1  0.70579157  0.53747806  0.27357044  1
  O  O316  1  0.69999673  0.52927928  0.60518532  1
  O  O317  1  0.70158457  0.52873893  0.93677488  1
  O  O318  1  0.05664129  0.09032143  0.04286707  1
  O  O319  1  0.09891919  0.08987488  0.38614504  1
  O  O320  1  0.09113863  0.09379062  0.70326360  1
  O  O321  1  0.08415009  0.59217956  0.04066564  1
  O  O322  1  0.06877115  0.58060636  0.36696000  1
  O  O323  1  0.08181028  0.58822389  0.70352719  1
  O  O324  1  0.58759289  0.08238940  0.01331663  1
  O  O325  1  0.58823862  0.09803880  0.37737566  1
  O  O326  1  0.58248877  0.09048752  0.69878555  1
  O  O327  1  0.59689055  0.58675901  0.03653747  1
  O  O328  1  0.58543832  0.58756268  0.37871101  1
  O  O329  1  0.58134958  0.57879149  0.69999807  1
  O  O330  1  0.39619094  0.42585689  0.11616544  1
  O  O331  1  0.40958200  0.41189437  0.46516172  1
  O  O332  1  0.41645106  0.42487814  0.79817918  1
  O  O333  1  0.44226952  0.92318186  0.14729745  1
  O  O334  1  0.40587242  0.90730749  0.45704898  1
  O  O335  1  0.41316346  0.91591778  0.79077834  1
  O  O336  1  0.91390225  0.41633859  0.12764353  1
  O  O337  1  0.91588895  0.40941349  0.46585633  1
  O  O338  1  0.90840449  0.41131962  0.79086626  1
  O  O339  1  0.90340207  0.91105672  0.12067499  1
  O  O340  1  0.89873412  0.91436529  0.45300026  1
  O  O341  1  0.90203333  0.90787381  0.79017609  1
  O  O342  1  0.39867371  0.42411148  0.30281544  1
  O  O343  1  0.41624046  0.41785005  0.62956881  1
  O  O344  1  0.41979282  0.42109654  0.95455460  1
  O  O345  1  0.41789191  0.90328422  0.28763069  1
  O  O346  1  0.41646049  0.90770065  0.63350022  1
  O  O347  1  0.42593540  0.89642511  0.94205232  1
  O  O348  1  0.91537297  0.41640332  0.30628026  1
  O  O349  1  0.92083879  0.41711067  0.63313160  1
  O  O350  1  0.90909677  0.41047366  0.95864605  1
  O  O351  1  0.90428165  0.90529733  0.28801338  1
  O  O352  1  0.90834084  0.90698560  0.63112358  1
  O  O353  1  0.90381062  0.90252252  0.95381248  1
  O  O354  1  0.09354182  0.10952205  0.23583682  1
  O  O355  1  0.09157748  0.07994238  0.53859858  1
  O  O356  1  0.06628768  0.07914740  0.84343878  1
  O  O357  1  0.08800696  0.58954529  0.20525816  1
  O  O358  1  0.08531653  0.58514303  0.54377523  1
  O  O359  1  0.09118760  0.58958234  0.87103896  1
  O  O360  1  0.60531881  0.09464139  0.22305284  1
  O  O361  1  0.59329285  0.09411386  0.54377583  1
  O  O362  1  0.58838420  0.09389537  0.86574482  1
  O  O363  1  0.59532643  0.59139631  0.20762227  1
  O  O364  1  0.58576268  0.57895771  0.53731058  1
  O  O365  1  0.58720893  0.57761596  0.86906549  1
  O  O366  1  0.13199418  0.21365415  0.06137464  1
  O  O367  1  0.13611414  0.22356585  0.39750926  1
  O  O368  1  0.13859926  0.22881944  0.72520307  1
  O  O369  1  0.13668405  0.72330051  0.05478245  1
  O  O370  1  0.13462491  0.70995093  0.39127199  1
  O  O371  1  0.13848940  0.72080246  0.72565594  1
  O  O372  1  0.63993640  0.21896448  0.04298800  1
  O  O373  1  0.63697251  0.23120301  0.39832474  1
  O  O374  1  0.63919059  0.22405983  0.72412332  1
  O  O375  1  0.64253627  0.72147682  0.05386395  1
  O  O376  1  0.64438813  0.71654275  0.39197508  1
  O  O377  1  0.63822668  0.71097881  0.71874086  1
  O  O378  1  0.26763404  0.36503562  0.10208329  1
  O  O379  1  0.27329096  0.36435277  0.43961113  1
  O  O380  1  0.28464530  0.36338251  0.77185143  1
  O  O381  1  0.31164053  0.85618545  0.11088811  1
  O  O382  1  0.27454029  0.85604143  0.44359014  1
  O  O383  1  0.28177363  0.86259718  0.77295128  1
  O  O384  1  0.77963565  0.36375105  0.10710660  1
  O  O385  1  0.78228203  0.35730889  0.44733494  1
  O  O386  1  0.77526845  0.35994036  0.77172664  1
  O  O387  1  0.77118667  0.86028698  0.10518693  1
  O  O388  1  0.76695201  0.86591184  0.43909858  1
  O  O389  1  0.76722997  0.86046542  0.76806444  1
  O  O390  1  0.37015670  0.28757528  0.29597545  1
  O  O391  1  0.36170305  0.28396307  0.60691642  1
  O  O392  1  0.36347640  0.29536817  0.94462242  1
  O  O393  1  0.36980032  0.76979119  0.27439056  1
  O  O394  1  0.35993945  0.77307865  0.60560909  1
  O  O395  1  0.36812273  0.76768112  0.93157124  1
  O  O396  1  0.86167670  0.27964016  0.27680626  1
  O  O397  1  0.86244655  0.28454922  0.61086979  1
  O  O398  1  0.85746019  0.27706856  0.94051833  1
  O  O399  1  0.86367081  0.77251660  0.27855669  1
  O  O400  1  0.86087476  0.77344953  0.61397232  1
  O  O401  1  0.85432078  0.76973213  0.93794919  1
  O  O402  1  0.22707601  0.13982405  0.24128693  1
  O  O403  1  0.22372438  0.14036486  0.56617978  1
  O  O404  1  0.20015786  0.13687040  0.87518350  1
  O  O405  1  0.21930876  0.64149338  0.21650050  1
  O  O406  1  0.21727041  0.63632367  0.55760420  1
  O  O407  1  0.22664197  0.63794989  0.88972018  1
  O  O408  1  0.73733564  0.13286265  0.22973228  1
  O  O409  1  0.72715994  0.13938973  0.55965094  1
  O  O410  1  0.72445197  0.13785006  0.88800976  1
  O  O411  1  0.72844076  0.64038997  0.22309519  1
  O  O412  1  0.71774658  0.63747422  0.55997060  1
  O  O413  1  0.71934031  0.63483852  0.88887107  1
  O  O414  1  0.49915520  0.34567969  0.02614291  1
  O  O415  1  0.49498747  0.36045122  0.37302602  1
  O  O416  1  0.49008127  0.33936706  0.70003864  1
  O  O417  1  0.49376472  0.82385585  0.02519003  1
  O  O418  1  0.49763573  0.82864473  0.36091214  1
  O  O419  1  0.49049135  0.82296383  0.69562710  1
  O  O420  1  0.98858225  0.33468414  0.02628507  1
  O  O421  1  0.99422545  0.33174135  0.36248415  1
  O  O422  1  0.99414699  0.33554731  0.69855028  1
  O  O423  1  0.98304682  0.82933052  0.02813327  1
  O  O424  1  0.99492810  0.83841630  0.35885114  1
  O  O425  1  0.99060951  0.83546390  0.70365704  1
  O  O426  1  0.14678489  0.01907830  0.15031462  1
  O  O427  1  0.17636168  0.01007296  0.47288743  1
  O  O428  1  0.15606632  0.00276381  0.79302798  1
  O  O429  1  0.15929884  0.51050226  0.13216414  1
  O  O430  1  0.16029888  0.50213917  0.47565146  1
  O  O431  1  0.16534202  0.50895650  0.80209501  1
  O  O432  1  0.66553334  0.01090316  0.13652589  1
  O  O433  1  0.66454068  0.01234880  0.46849126  1
  O  O434  1  0.66210864  0.01047240  0.79705757  1
  O  O435  1  0.67185132  0.50902853  0.13968955  1
  O  O436  1  0.66884316  0.50543625  0.47183633  1
  O  O437  1  0.66782051  0.50348038  0.80240973  1
  O  O438  1  0.00436199  0.15951934  0.31745404  1
  O  O439  1  0.00931090  0.17110705  0.63710241  1
  O  O440  1  0.00606842  0.16971239  0.96403229  1
  O  O441  1  0.00380703  0.66748412  0.30259145  1
  O  O442  1  0.00771326  0.66921004  0.63564667  1
  O  O443  1  0.00476039  0.66807019  0.97146598  1
  O  O444  1  0.50626296  0.17475993  0.30802390  1
  O  O445  1  0.50766300  0.17358911  0.63567757  1
  O  O446  1  0.50307652  0.17274544  0.97275984  1
  O  O447  1  0.51240837  0.66445178  0.30538516  1
  O  O448  1  0.50613810  0.65988724  0.63326426  1
  O  O449  1  0.51282057  0.65955935  0.96861216  1
  O  O450  1  0.32052550  0.49241155  0.19538047  1
  O  O451  1  0.33055056  0.49399919  0.52650847  1
  O  O452  1  0.32923930  0.49447276  0.86115767  1
  O  O453  1  0.33884856  0.99555087  0.17705766  1
  O  O454  1  0.33725240  0.98540547  0.53406443  1
  O  O455  1  0.33601402  0.99441279  0.86279869  1
  O  O456  1  0.83619299  0.49314751  0.19694864  1
  O  O457  1  0.83711341  0.48911915  0.53171461  1
  O  O458  1  0.83008118  0.48987042  0.85981443  1
  O  O459  1  0.82900016  0.98919442  0.19438886  1
  O  O460  1  0.82720372  0.99254021  0.53032159  1
  O  O461  1  0.82555644  0.98881650  0.85958039  1
