# generated using pymatgen
data_Na31Fe20(SO4)36
_symmetry_space_group_name_H-M   'P 1'
_cell_length_a   18.08724191
_cell_length_b   18.07652356
_cell_length_c   19.71536268
_cell_angle_alpha   107.55801118
_cell_angle_beta   107.59066589
_cell_angle_gamma   90.72710255
_symmetry_Int_Tables_number   1
_chemical_formula_structural   Na31Fe20(SO4)36
_chemical_formula_sum   'Na62 Fe40 S72 O288'
_cell_volume   5819.96468798
_cell_formula_units_Z   2
loop_
 _symmetry_equiv_pos_site_id
 _symmetry_equiv_pos_as_xyz
  1  'x, y, z'
loop_
 _atom_site_type_symbol
 _atom_site_label
 _atom_site_symmetry_multiplicity
 _atom_site_fract_x
 _atom_site_fract_y
 _atom_site_fract_z
 _atom_site_occupancy
  Na  Na0  1  0.13414183  0.36131777  0.07837088  1
  Na  Na1  1  0.13931324  0.37452424  0.42882400  1
  Na  Na2  1  0.13420914  0.36613201  0.74779813  1
  Na  Na3  1  0.13218291  0.86667767  0.07891078  1
  Na  Na4  1  0.13668342  0.86806868  0.41916840  1
  Na  Na5  1  0.13437016  0.86711669  0.75201103  1
  Na  Na6  1  0.63132041  0.36653738  0.07885544  1
  Na  Na7  1  0.63025377  0.35755158  0.41312893  1
  Na  Na8  1  0.63425792  0.37823372  0.75655548  1
  Na  Na9  1  0.61440208  0.84243481  0.06090196  1
  Na  Na10  1  0.64211384  0.86060963  0.42884180  1
  Na  Na11  1  0.67150088  0.84445707  0.77112762  1
  Na  Na12  1  0.37025614  0.13254727  0.25076154  1
  Na  Na13  1  0.37432848  0.13378583  0.58340702  1
  Na  Na14  1  0.38586801  0.13540535  0.92121623  1
  Na  Na15  1  0.36696333  0.63518860  0.25107248  1
  Na  Na16  1  0.36636113  0.62762768  0.58552559  1
  Na  Na17  1  0.37651448  0.63909292  0.92521091  1
  Na  Na18  1  0.86877333  0.13328565  0.25533005  1
  Na  Na19  1  0.86595753  0.13238132  0.58579932  1
  Na  Na20  1  0.86170336  0.13154908  0.91940685  1
  Na  Na21  1  0.86359885  0.63697106  0.25308117  1
  Na  Na22  1  0.83367269  0.64742215  0.56725506  1
  Na  Na23  1  0.84312916  0.63688715  0.88519766  1
  Na  Na24  1  0.49483767  0.02814456  0.76377913  1
  Na  Na25  1  0.49185009  0.52410731  0.07252449  1
  Na  Na26  1  0.97779328  0.50501019  0.09051629  1
  Na  Na27  1  0.98890616  0.01141288  0.75035453  1
  Na  Na28  1  0.99198139  0.51943308  0.71531941  1
  Na  Na29  1  0.95833677  0.00699874  0.06968850  1
  Na  Na30  1  0.50548577  0.48152214  0.42079086  1
  Na  Na31  1  0.49056739  -0.00009162  0.43185130  1
  Na  Na32  1  0.99037206  0.01215846  0.41629889  1
  Na  Na33  1  0.01248122  0.98766794  0.58427953  1
  Na  Na34  1  -0.00910562  0.49392127  0.28540870  1
  Na  Na35  1  0.00189915  0.99060426  0.91654101  1
  Na  Na36  1  0.48777947  0.54600513  0.77626665  1
  Na  Na37  1  0.01162799  0.98868945  0.24513221  1
  Na  Na38  1  0.00764831  0.50183917  0.91054335  1
  Na  Na39  1  0.52366285  0.47571635  0.59828971  1
  Na  Na40  1  0.55392221  0.49502892  0.26542488  1
  Na  Na41  1  0.52018967  0.96510299  0.20110039  1
  Na  Na42  1  0.73487598  0.72742905  0.35241110  1
  Na  Na43  1  0.25277028  0.75048575  0.33048291  1
  Na  Na44  1  0.26316102  0.76049889  -0.00402910  1
  Na  Na45  1  0.73707194  0.24224359  0.00629474  1
  Na  Na46  1  0.24925161  0.74639643  0.66478766  1
  Na  Na47  1  0.26755386  0.26769832  0.66175238  1
  Na  Na48  1  0.74803972  0.76410000  -0.02830155  1
  Na  Na49  1  0.74357005  0.25089509  0.67147709  1
  Na  Na50  1  0.74495216  0.24239678  0.33622769  1
  Na  Na51  1  0.26921193  0.26354470  0.32835724  1
  Na  Na52  1  0.24682352  0.74808082  0.50147142  1
  Na  Na53  1  0.26464468  0.76099544  0.16013007  1
  Na  Na54  1  0.74281856  0.24425641  0.50280472  1
  Na  Na55  1  0.74355497  0.24172388  0.17201644  1
  Na  Na56  1  0.74789337  0.74631945  0.16583089  1
  Na  Na57  1  0.26041954  0.75986149  0.82981281  1
  Na  Na58  1  0.28164053  0.28114661  0.49996886  1
  Na  Na59  1  0.73297411  0.23798583  0.84026399  1
  Na  Na60  1  0.25196851  0.24966582  0.83956875  1
  Na  Na61  1  0.26034149  0.26158350  0.15534826  1
  Fe  Fe62  1  0.47289736  0.30544302  0.79304465  1
  Fe  Fe63  1  0.96460843  0.80544473  0.44732718  1
  Fe  Fe64  1  0.46737292  0.80511320  0.79643264  1
  Fe  Fe65  1  0.96285632  0.31253548  0.46000932  1
  Fe  Fe66  1  0.96436382  0.80563789  0.10986519  1
  Fe  Fe67  1  0.46629432  0.30471315  0.11677667  1
  Fe  Fe68  1  0.96253955  0.30554783  0.78560976  1
  Fe  Fe69  1  0.96341150  0.80683434  0.77816763  1
  Fe  Fe70  1  0.46817043  0.81159317  0.46428104  1
  Fe  Fe71  1  0.96250170  0.31013020  0.12348767  1
  Fe  Fe72  1  0.19448893  0.03671068  0.72066793  1
  Fe  Fe73  1  0.68692917  0.53816822  0.04119725  1
  Fe  Fe74  1  0.69475882  0.02943405  0.37684743  1
  Fe  Fe75  1  0.19319483  0.03576441  0.38498755  1
  Fe  Fe76  1  0.69232767  0.02853874  0.71502582  1
  Fe  Fe77  1  0.69589894  0.02970780  0.03719500  1
  Fe  Fe78  1  0.20057666  0.53132712  0.70702541  1
  Fe  Fe79  1  0.19024368  0.04069997  0.05177417  1
  Fe  Fe80  1  0.19580472  0.53517901  0.38230313  1
  Fe  Fe81  1  0.19272569  0.53270400  0.04794442  1
  Fe  Fe82  1  0.53448249  0.18411420  0.20600819  1
  Fe  Fe83  1  0.53000142  0.70004278  0.21650981  1
  Fe  Fe84  1  0.53517495  0.19321939  0.54039947  1
  Fe  Fe85  1  0.03420239  0.19613781  0.22033564  1
  Fe  Fe86  1  0.03382349  0.19465926  0.55284681  1
  Fe  Fe87  1  0.53923256  0.68647074  0.55209326  1
  Fe  Fe88  1  0.03662252  0.69348212  0.21112521  1
  Fe  Fe89  1  0.03271785  0.19493193  0.88601727  1
  Fe  Fe90  1  0.03342780  0.69291536  0.54563925  1
  Fe  Fe91  1  0.03749307  0.69211913  0.87641555  1
  Fe  Fe92  1  0.30657550  0.96644504  0.28672959  1
  Fe  Fe93  1  0.80477185  0.47066659  0.94505593  1
  Fe  Fe94  1  0.30631516  0.46340800  0.95363447  1
  Fe  Fe95  1  0.79998954  0.46929244  0.29630000  1
  Fe  Fe96  1  0.80771471  0.95669558  0.61670198  1
  Fe  Fe97  1  0.80920208  0.96013643  0.28244425  1
  Fe  Fe98  1  0.30499786  0.97055263  0.95611397  1
  Fe  Fe99  1  0.30746583  0.96706344  0.62290304  1
  Fe  Fe100  1  0.79022497  0.47129029  0.62008281  1
  Fe  Fe101  1  0.31246022  0.46608733  0.28732733  1
  S  S102  1  0.35627812  0.14279667  0.08343116  1
  S  S103  1  0.35740601  0.13877185  0.41914127  1
  S  S104  1  0.35642798  0.14079164  0.74917073  1
  S  S105  1  0.35523877  0.63998509  0.08721606  1
  S  S106  1  0.35896139  0.64499843  0.41755008  1
  S  S107  1  0.35561559  0.64561370  0.75260212  1
  S  S108  1  0.86106793  0.14403099  0.08917960  1
  S  S109  1  0.86274813  0.13645413  0.41678739  1
  S  S110  1  0.85918512  0.13830020  0.74992588  1
  S  S111  1  0.86202136  0.64062223  0.08334158  1
  S  S112  1  0.86264823  0.64067360  0.41457912  1
  S  S113  1  0.86729362  0.63732992  0.74049659  1
  S  S114  1  0.13874176  0.35930758  0.25058560  1
  S  S115  1  0.13934749  0.35597845  0.58592632  1
  S  S116  1  0.13613151  0.36025981  0.91730464  1
  S  S117  1  0.13956856  0.86110926  0.24803463  1
  S  S118  1  0.13785382  0.86364932  0.58217633  1
  S  S119  1  0.13536621  0.86566514  0.91745431  1
  S  S120  1  0.64065837  0.35287110  0.24803007  1
  S  S121  1  0.64071377  0.35246787  0.57892982  1
  S  S122  1  0.64792918  0.36011157  0.91701340  1
  S  S123  1  0.65020680  0.85453030  0.25499034  1
  S  S124  1  0.64192004  0.85711259  0.58688680  1
  S  S125  1  0.63409691  0.86169270  0.91772182  1
  S  S126  1  0.06244944  0.17097088  0.04679086  1
  S  S127  1  0.06953756  0.16818017  0.38092292  1
  S  S128  1  0.06476071  0.16798949  0.71282363  1
  S  S129  1  0.06844231  0.66826092  0.04006790  1
  S  S130  1  0.07097960  0.67442159  0.37353609  1
  S  S131  1  0.07671634  0.67592587  0.70947892  1
  S  S132  1  0.57482690  0.17069807  0.04387678  1
  S  S133  1  0.56813280  0.15525016  0.36703956  1
  S  S134  1  0.57089874  0.16989431  0.70572652  1
  S  S135  1  0.56403475  0.66562390  0.04667716  1
  S  S136  1  0.55964547  0.67184666  0.37947339  1
  S  S137  1  0.55420614  0.66893929  0.70895304  1
  S  S138  1  0.32871825  0.43167779  0.12535559  1
  S  S139  1  0.33148419  0.44117860  0.45420407  1
  S  S140  1  0.32830321  0.43037583  0.79386181  1
  S  S141  1  0.32227193  0.93534034  0.12297984  1
  S  S142  1  0.32589131  0.93107629  0.45782878  1
  S  S143  1  0.32586235  0.93241236  0.79077277  1
  S  S144  1  0.83421983  0.43604500  0.13125894  1
  S  S145  1  0.82151254  0.42292892  0.45844434  1
  S  S146  1  0.83842892  0.43500295  0.78931518  1
  S  S147  1  0.83230998  0.93340263  0.12357302  1
  S  S148  1  0.83555995  0.93281050  0.45714808  1
  S  S149  1  0.84566762  0.93851681  0.79169805  1
  S  S150  1  0.43574920  0.32668864  0.28686115  1
  S  S151  1  0.44254958  0.32567644  0.62743326  1
  S  S152  1  0.43323944  0.33180020  0.95902345  1
  S  S153  1  0.43456356  0.83520054  0.29883973  1
  S  S154  1  0.42613546  0.83183664  0.63071112  1
  S  S155  1  0.42484243  0.83808004  0.96021502  1
  S  S156  1  0.92845674  0.32793941  0.29419845  1
  S  S157  1  0.92566400  0.32696039  0.62453018  1
  S  S158  1  0.92915919  0.33236621  0.95878376  1
  S  S159  1  0.93909507  0.83129395  0.28782344  1
  S  S160  1  0.93764288  0.83440938  0.62128407  1
  S  S161  1  0.93787159  0.82804235  0.95327740  1
  S  S162  1  0.16352312  0.06852492  0.21105562  1
  S  S163  1  0.16456236  0.06770199  0.54511700  1
  S  S164  1  0.16286006  0.06962988  0.87553748  1
  S  S165  1  0.16714047  0.56546930  0.20837960  1
  S  S166  1  0.16530395  0.57057514  0.53865550  1
  S  S167  1  0.17078983  0.56724686  0.87385511  1
  S  S168  1  0.67785323  0.06381156  0.20627916  1
  S  S169  1  0.67423906  0.06674264  0.54239446  1
  S  S170  1  0.67750857  0.06806481  0.87895798  1
  S  S171  1  0.67027865  0.56606112  0.20807883  1
  S  S172  1  0.65757412  0.55514874  0.53745589  1
  S  S173  1  0.67263467  0.56704405  0.87936979  1
  O  O174  1  0.36682159  0.22352101  0.08123477  1
  O  O175  1  0.36254734  0.21809278  0.41572327  1
  O  O176  1  0.36805354  0.22149243  0.74641449  1
  O  O177  1  0.35873862  0.71827440  0.08105911  1
  O  O178  1  0.36807069  0.72549381  0.41204769  1
  O  O179  1  0.36392287  0.72977411  0.75016447  1
  O  O180  1  0.86575426  0.22618974  0.08665181  1
  O  O181  1  0.87299705  0.21383229  0.40655951  1
  O  O182  1  0.86779904  0.21677402  0.74017421  1
  O  O183  1  0.87049988  0.72023544  0.07688463  1
  O  O184  1  0.87664105  0.71542876  0.39707303  1
  O  O185  1  0.88415488  0.71121585  0.72587476  1
  O  O186  1  0.27841848  0.13407984  0.09525910  1
  O  O187  1  0.28340652  0.12450785  0.43584535  1
  O  O188  1  0.27561293  0.13279463  0.75581918  1
  O  O189  1  0.27699282  0.62475078  0.09704644  1
  O  O190  1  0.27817626  0.63596837  0.42246019  1
  O  O191  1  0.27189980  0.63650158  0.75187297  1
  O  O192  1  0.78077275  0.12914701  0.09384595  1
  O  O193  1  0.78244094  0.12779784  0.42192952  1
  O  O194  1  0.78020812  0.12851760  0.75645321  1
  O  O195  1  0.78542440  0.63008789  0.09442858  1
  O  O196  1  0.78379105  0.63491291  0.41789504  1
  O  O197  1  0.79823512  0.63617029  0.76118296  1
  O  O198  1  0.13018309  0.28210387  0.26315456  1
  O  O199  1  0.12475380  0.28146880  0.60287407  1
  O  O200  1  0.12455007  0.28422112  0.92939973  1
  O  O201  1  0.13168764  0.78142331  0.25489005  1
  O  O202  1  0.12991028  0.78424341  0.58865406  1
  O  O203  1  0.12917866  0.78849113  0.92989801  1
  O  O204  1  0.63343583  0.27003177  0.24909136  1
  O  O205  1  0.63715712  0.26645346  0.57388512  1
  O  O206  1  0.64255320  0.28139952  0.92227253  1
  O  O207  1  0.63759451  0.77590687  0.26253215  1
  O  O208  1  0.62901510  0.77728665  0.58900716  1
  O  O209  1  0.61917676  0.79168493  0.93607165  1
  O  O210  1  0.21853758  0.36757026  0.24448706  1
  O  O211  1  0.21659343  0.35790638  0.57706561  1
  O  O212  1  0.21526309  0.36790454  0.91060080  1
  O  O213  1  0.21873865  0.87079294  0.24072620  1
  O  O214  1  0.21545826  0.87340037  0.57173405  1
  O  O215  1  0.21268948  0.87502954  0.90664557  1
  O  O216  1  0.72054614  0.36530984  0.24256498  1
  O  O217  1  0.72515487  0.36762972  0.57999911  1
  O  O218  1  0.72532231  0.37337073  0.90456315  1
  O  O219  1  0.73281383  0.86199255  0.25306499  1
  O  O220  1  0.71692147  0.86719591  0.57138524  1
  O  O221  1  0.70887681  0.86594484  0.90427752  1
  O  O222  1  0.41623919  0.12844376  0.14759637  1
  O  O223  1  0.42312406  0.12430688  0.48028309  1
  O  O224  1  0.41399180  0.12445372  0.81127948  1
  O  O225  1  0.41552646  0.63154328  0.15457030  1
  O  O226  1  0.41604700  0.63569489  0.48498713  1
  O  O227  1  0.40791506  0.63824155  0.82246874  1
  O  O228  1  0.91835503  0.13666461  0.15941560  1
  O  O229  1  0.92004031  0.12916591  0.48657774  1
  O  O230  1  0.91874038  0.13359215  0.81941771  1
  O  O231  1  0.92341220  0.63251165  0.15142091  1
  O  O232  1  0.91969707  0.64138162  0.48728722  1
  O  O233  1  0.93639335  0.62135480  0.79892668  1
  O  O234  1  0.35761777  0.08756306  0.01124006  1
  O  O235  1  0.35793981  0.08182291  0.34620970  1
  O  O236  1  0.35854370  0.08474109  0.67600260  1
  O  O237  1  0.36381041  0.58055504  0.01922495  1
  O  O238  1  0.36558527  0.58759763  0.34801962  1
  O  O239  1  0.36764085  0.59138367  0.68651647  1
  O  O240  1  0.87523593  0.09009315  0.02388425  1
  O  O241  1  0.87399998  0.07518275  0.35117407  1
  O  O242  1  0.87039159  0.07836872  0.68370188  1
  O  O243  1  0.87230770  0.58206584  0.01627816  1
  O  O244  1  0.87591452  0.57626194  0.35168354  1
  O  O245  1  0.86346806  0.57301791  0.66769553  1
  O  O246  1  0.08126148  0.36164529  0.17902056  1
  O  O247  1  0.07956677  0.35807057  0.51539164  1
  O  O248  1  0.07807815  0.36644228  0.84746978  1
  O  O249  1  0.08049724  0.87035602  0.18053896  1
  O  O250  1  0.07720111  0.87401939  0.51555176  1
  O  O251  1  0.07422114  0.87230984  0.84987433  1
  O  O252  1  0.58299776  0.36363368  0.17963657  1
  O  O253  1  0.58624548  0.36434330  0.51289024  1
  O  O254  1  0.58623257  0.36998216  0.85195708  1
  O  O255  1  0.59650538  0.86505403  0.18743139  1
  O  O256  1  0.57942003  0.87326421  0.52438900  1
  O  O257  1  0.57080220  0.86970356  0.85030332  1
  O  O258  1  0.12603315  0.42107130  0.31445461  1
  O  O259  1  0.13163566  0.42066241  0.65058172  1
  O  O260  1  0.12602930  0.42317059  0.98258484  1
  O  O261  1  0.13052178  0.91922538  0.31641301  1
  O  O262  1  0.13036785  0.92218987  0.65107045  1
  O  O263  1  0.12681515  0.92708434  0.98417957  1
  O  O264  1  0.62915229  0.40665008  0.31494962  1
  O  O265  1  0.63041879  0.40058588  0.64888939  1
  O  O266  1  0.64487116  0.41780015  0.98816504  1
  O  O267  1  0.64303331  0.91328259  0.32430433  1
  O  O268  1  0.64265656  0.91301328  0.66019298  1
  O  O269  1  0.63130576  0.93038121  0.98522358  1
  O  O270  1  0.02550281  0.20021691  0.10743182  1
  O  O271  1  0.03421998  0.19475192  0.44242914  1
  O  O272  1  0.02816898  0.19758747  0.77363111  1
  O  O273  1  0.03158173  0.70102045  0.10067032  1
  O  O274  1  0.03811520  0.70548183  0.43646911  1
  O  O275  1  0.04676469  0.71079026  0.77455364  1
  O  O276  1  0.53350165  0.19549058  0.10329189  1
  O  O277  1  0.53187769  0.17365486  0.42686380  1
  O  O278  1  0.52994554  0.19940554  0.76123346  1
  O  O279  1  0.53270397  0.68564227  0.11141507  1
  O  O280  1  0.52436751  0.70692290  0.44141428  1
  O  O281  1  0.51749126  0.70859237  0.76872536  1
  O  O282  1  0.29675188  0.46600760  0.06259931  1
  O  O283  1  0.29521896  0.47333792  0.38746648  1
  O  O284  1  0.29939969  0.46945037  0.73639520  1
  O  O285  1  0.28844800  0.97367731  0.06315850  1
  O  O286  1  0.29486825  0.96503076  0.39481102  1
  O  O287  1  0.29607658  0.96983534  0.72921527  1
  O  O288  1  0.81257822  0.47182735  0.07034044  1
  O  O289  1  0.80024704  0.46030228  0.39976159  1
  O  O290  1  0.81412831  0.46802094  0.72689329  1
  O  O291  1  0.80113302  0.97181222  0.06577923  1
  O  O292  1  0.80585200  0.97137838  0.39806655  1
  O  O293  1  0.80612067  0.96698303  0.72542371  1
  O  O294  1  0.47006795  0.29572225  0.22370546  1
  O  O295  1  0.48095222  0.28864852  0.56941178  1
  O  O296  1  0.47065059  0.31527452  0.90044830  1
  O  O297  1  0.47256671  0.80694546  0.24101838  1
  O  O298  1  0.46502976  0.80473397  0.57200049  1
  O  O299  1  0.45256491  0.81507555  0.89303856  1
  O  O300  1  0.96924036  0.30211546  0.23558707  1
  O  O301  1  0.96104812  0.29592543  0.56251499  1
  O  O302  1  0.96557351  0.30054486  0.89790425  1
  O  O303  1  0.97567453  0.80295666  0.22693363  1
  O  O304  1  0.97085508  0.80300474  0.55780208  1
  O  O305  1  0.96667274  0.78785769  0.88804641  1
  O  O306  1  0.19364565  0.03245761  0.27229911  1
  O  O307  1  0.19467270  0.03121438  0.60547064  1
  O  O308  1  0.19580169  0.03794783  0.93911446  1
  O  O309  1  0.19766249  0.53019427  0.26957681  1
  O  O310  1  0.18874839  0.53376770  0.59751246  1
  O  O311  1  0.19869553  0.53015496  0.93493812  1
  O  O312  1  0.70576541  0.02349178  0.26524416  1
  O  O313  1  0.70026275  0.02995416  0.60309269  1
  O  O314  1  0.70823514  0.03778089  0.94445661  1
  O  O315  1  0.69667668  0.52632507  0.26569110  1
  O  O316  1  0.69511057  0.52474070  0.60324456  1
  O  O317  1  0.71080725  0.53362512  0.94550355  1
  O  O318  1  0.07777667  0.08789383  0.03993399  1
  O  O319  1  0.08246832  0.08309833  0.37040218  1
  O  O320  1  0.08024288  0.08484463  0.70662062  1
  O  O321  1  0.08400968  0.58627316  0.03800541  1
  O  O322  1  0.09059295  0.59365174  0.36799699  1
  O  O323  1  0.09611480  0.59603848  0.70894728  1
  O  O324  1  0.60949076  0.09688023  0.05042995  1
  O  O325  1  0.58623874  0.07167348  0.35052493  1
  O  O326  1  0.59290300  0.09063978  0.70749566  1
  O  O327  1  0.58249790  0.58161203  0.03493493  1
  O  O328  1  0.56662040  0.58965485  0.37376539  1
  O  O329  1  0.55552856  0.58673665  0.70592197  1
  O  O330  1  0.40925178  0.41277398  0.12946999  1
  O  O331  1  0.41109230  0.42596854  0.45516743  1
  O  O332  1  0.40613795  0.40590012  0.79407959  1
  O  O333  1  0.40027388  0.91678878  0.12514122  1
  O  O334  1  0.40749417  0.91521054  0.46380000  1
  O  O335  1  0.40501149  0.91113061  0.79339826  1
  O  O336  1  0.91978206  0.42075729  0.14439681  1
  O  O337  1  0.90440480  0.40705178  0.47426821  1
  O  O338  1  0.92095494  0.41422498  0.79909768  1
  O  O339  1  0.91498750  0.91661097  0.12423857  1
  O  O340  1  0.91916633  0.91910581  0.46144489  1
  O  O341  1  0.92640693  0.91908003  0.78600455  1
  O  O342  1  0.41351020  0.40729474  0.28803129  1
  O  O343  1  0.42798889  0.40432266  0.62554458  1
  O  O344  1  0.41086626  0.41364353  0.97584127  1
  O  O345  1  0.41385464  0.91693815  0.30347414  1
  O  O346  1  0.41108615  0.91532264  0.63947973  1
  O  O347  1  0.40067712  0.91837673  0.96827538  1
  O  O348  1  0.90437217  0.40650350  0.29617609  1
  O  O349  1  0.90352307  0.40646330  0.62856480  1
  O  O350  1  0.91290435  0.41432531  0.96200791  1
  O  O351  1  0.92334636  0.91454756  0.29450523  1
  O  O352  1  0.92541753  0.91892001  0.62757156  1
  O  O353  1  0.93241827  0.91016793  0.95729217  1
  O  O354  1  0.08026992  0.08351739  0.20568211  1
  O  O355  1  0.08067133  0.08151745  0.53961062  1
  O  O356  1  0.07933150  0.08367749  0.87185985  1
  O  O357  1  0.08492861  0.58342396  0.20258396  1
  O  O358  1  0.08514995  0.59356773  0.52913937  1
  O  O359  1  0.08722825  0.58214388  0.86697007  1
  O  O360  1  0.59578589  0.07901144  0.19985974  1
  O  O361  1  0.59353093  0.08867554  0.53388852  1
  O  O362  1  0.59642422  0.08140947  0.86712235  1
  O  O363  1  0.58835686  0.58433424  0.20432647  1
  O  O364  1  0.57773116  0.57529007  0.54352676  1
  O  O365  1  0.59402792  0.58082437  0.88055265  1
  O  O366  1  0.13407315  0.22130999  0.06329042  1
  O  O367  1  0.14209366  0.21682213  0.39665444  1
  O  O368  1  0.13619279  0.21840288  0.72910609  1
  O  O369  1  0.14059540  0.71847777  0.05616885  1
  O  O370  1  0.14090571  0.72712796  0.38654118  1
  O  O371  1  0.14598514  0.72808953  0.71984069  1
  O  O372  1  0.64072094  0.23222911  0.06411590  1
  O  O373  1  0.64003654  0.20897929  0.38772406  1
  O  O374  1  0.64192457  0.22369392  0.72196568  1
  O  O375  1  0.63772303  0.71649992  0.06692793  1
  O  O376  1  0.63328703  0.71971288  0.39617686  1
  O  O377  1  0.62978695  0.71094588  0.72426439  1
  O  O378  1  0.27483879  0.36354444  0.11253468  1
  O  O379  1  0.27942421  0.36755568  0.43504434  1
  O  O380  1  0.27208323  0.36121707  0.77895958  1
  O  O381  1  0.26786777  0.86444066  0.10582364  1
  O  O382  1  0.27477576  0.85892726  0.44156480  1
  O  O383  1  0.27016893  0.86297916  0.77290588  1
  O  O384  1  0.78373819  0.36337713  0.11253928  1
  O  O385  1  0.76968593  0.34950547  0.43772248  1
  O  O386  1  0.78545400  0.36581322  0.77585560  1
  O  O387  1  0.78377891  0.86135134  0.11013625  1
  O  O388  1  0.78715318  0.86011277  0.44037074  1
  O  O389  1  0.80146748  0.86837640  0.78678462  1
  O  O390  1  0.36378079  0.27345155  0.26942686  1
  O  O391  1  0.36892680  0.27410680  0.60979365  1
  O  O392  1  0.36485670  0.27462867  0.93890087  1
  O  O393  1  0.36220316  0.78276767  0.28154264  1
  O  O394  1  0.35198778  0.78132069  0.60914304  1
  O  O395  1  0.35486931  0.78186045  0.94293643  1
  O  O396  1  0.86028790  0.27088991  0.27576318  1
  O  O397  1  0.85759269  0.27162103  0.61061078  1
  O  O398  1  0.85902839  0.28077035  0.94502857  1
  O  O399  1  0.86809549  0.78002075  0.27094932  1
  O  O400  1  0.86515959  0.78906364  0.60844037  1
  O  O401  1  0.86518809  0.78441893  0.94528070  1
  O  O402  1  0.21322790  0.14062256  0.22644770  1
  O  O403  1  0.21283446  0.13986972  0.55982403  1
  O  O404  1  0.20915417  0.14011613  0.88346352  1
  O  O405  1  0.21790362  0.63720060  0.22334183  1
  O  O406  1  0.22102855  0.63997729  0.55436654  1
  O  O407  1  0.22022942  0.64068943  0.89264849  1
  O  O408  1  0.72981269  0.13740528  0.22994712  1
  O  O409  1  0.72991084  0.13603633  0.55993467  1
  O  O410  1  0.72952016  0.14117030  0.89672002  1
  O  O411  1  0.72334213  0.63804249  0.22751897  1
  O  O412  1  0.70475855  0.62451009  0.54459199  1
  O  O413  1  0.72397353  0.63924425  0.89704660  1
  O  O414  1  0.49311002  0.32899172  0.03029212  1
  O  O415  1  0.49436512  0.33221047  0.35786293  1
  O  O416  1  0.49632059  0.32777266  0.70285203  1
  O  O417  1  0.48597003  0.83897682  0.02767860  1
  O  O418  1  0.49123884  0.84183701  0.37465488  1
  O  O419  1  0.48054193  0.82963560  0.70363538  1
  O  O420  1  0.98880516  0.33766323  0.03258448  1
  O  O421  1  0.98727437  0.33255869  0.36745154  1
  O  O422  1  0.98846472  0.33002898  0.69557486  1
  O  O423  1  0.99923861  0.82666385  0.02506789  1
  O  O424  1  0.99770231  0.83410477  0.36107854  1
  O  O425  1  0.99970666  0.83514660  0.69170610  1
  O  O426  1  0.16126352  0.00975377  0.13843416  1
  O  O427  1  0.16098495  0.00825249  0.47151872  1
  O  O428  1  0.15764048  0.00620487  0.80352955  1
  O  O429  1  0.16395995  0.50539710  0.13596899  1
  O  O430  1  0.16336309  0.51076848  0.46558163  1
  O  O431  1  0.17054566  0.50977586  0.80169885  1
  O  O432  1  0.68219167  0.00945112  0.13451877  1
  O  O433  1  0.67231216  0.00688372  0.47007893  1
  O  O434  1  0.68801898  0.00808946  0.81192175  1
  O  O435  1  0.66761226  0.51041676  0.13345394  1
  O  O436  1  0.64329561  0.49115657  0.46674164  1
  O  O437  1  0.67573153  0.50745626  0.81120891  1
  O  O438  1  0.00943706  0.16904741  0.30963200  1
  O  O439  1  0.00536066  0.16557596  0.64016016  1
  O  O440  1  0.00358707  0.17006578  0.97422371  1
  O  O441  1  0.00919013  0.67088904  0.30183545  1
  O  O442  1  0.01358546  0.67125247  0.63911304  1
  O  O443  1  0.01018261  0.66302724  0.96628031  1
  O  O444  1  0.51027013  0.16125335  0.29655618  1
  O  O445  1  0.51610861  0.16143569  0.62846246  1
  O  O446  1  0.51774911  0.15938857  0.97130842  1
  O  O447  1  0.50367744  0.67561387  0.30619050  1
  O  O448  1  0.49892860  0.67168159  0.63452698  1
  O  O449  1  0.50507478  0.67062114  0.98022118  1
  O  O450  1  0.33175071  0.49406006  0.19709430  1
  O  O451  1  0.32798801  0.49903384  0.52211335  1
  O  O452  1  0.33500913  0.48843261  0.86952784  1
  O  O453  1  0.32266024  0.99356619  0.19615339  1
  O  O454  1  0.32462367  0.99064252  0.52844538  1
  O  O455  1  0.32638726  0.99280983  0.86144399  1
  O  O456  1  0.83289675  0.49384381  0.20337024  1
  O  O457  1  0.81336787  0.47971412  0.52887863  1
  O  O458  1  0.84373847  0.49737070  0.86139990  1
  O  O459  1  0.84217829  0.99110776  0.19996705  1
  O  O460  1  0.83796076  0.99008732  0.53098272  1
  O  O461  1  0.86096398  1.00366085  0.86135994  1
