# generated using pymatgen
data_Na31Fe20(SO4)36
_symmetry_space_group_name_H-M   'P 1'
_cell_length_a   18.07301444
_cell_length_b   18.06736284
_cell_length_c   19.69588589
_cell_angle_alpha   107.54582489
_cell_angle_beta   107.57092102
_cell_angle_gamma   90.75066732
_symmetry_Int_Tables_number   1
_chemical_formula_structural   Na31Fe20(SO4)36
_chemical_formula_sum   'Na62 Fe40 S72 O288'
_cell_volume   5807.54997934
_cell_formula_units_Z   2
loop_
 _symmetry_equiv_pos_site_id
 _symmetry_equiv_pos_as_xyz
  1  'x, y, z'
loop_
 _atom_site_type_symbol
 _atom_site_label
 _atom_site_symmetry_multiplicity
 _atom_site_fract_x
 _atom_site_fract_y
 _atom_site_fract_z
 _atom_site_occupancy
  Na  Na0  1  0.13758699  0.37435088  0.08733373  1
  Na  Na1  1  0.13768846  0.35567584  0.41086937  1
  Na  Na2  1  0.14115282  0.37383412  0.74793993  1
  Na  Na3  1  0.12787469  0.86254531  0.08386955  1
  Na  Na4  1  0.13380333  0.85894501  0.41351883  1
  Na  Na5  1  0.13081646  0.86310863  0.75046611  1
  Na  Na6  1  0.63184466  0.36621639  0.08474704  1
  Na  Na7  1  0.65524782  0.37184116  0.43977852  1
  Na  Na8  1  0.62481722  0.35747024  0.73163694  1
  Na  Na9  1  0.62146579  0.84334469  0.06432100  1
  Na  Na10  1  0.64063988  0.87637316  0.42935315  1
  Na  Na11  1  0.63822612  0.86542754  0.75179340  1
  Na  Na12  1  0.36162379  0.13509396  0.25289395  1
  Na  Na13  1  0.36514749  0.14933225  0.59124719  1
  Na  Na14  1  0.36513441  0.12784255  0.91301004  1
  Na  Na15  1  0.35713692  0.62896614  0.23034785  1
  Na  Na16  1  0.36760232  0.63403771  0.58625885  1
  Na  Na17  1  0.37545462  0.65309659  0.92948611  1
  Na  Na18  1  0.86496836  0.13060559  0.24890045  1
  Na  Na19  1  0.85649310  0.13430181  0.57779447  1
  Na  Na20  1  0.86410417  0.13289981  0.91317169  1
  Na  Na21  1  0.86472307  0.63493683  0.24661973  1
  Na  Na22  1  0.86177338  0.62733307  0.58336168  1
  Na  Na23  1  0.87414148  0.63831681  0.93037010  1
  Na  Na24  1  0.49207619  0.04954524  0.42291353  1
  Na  Na25  1  0.96903372  0.51402416  0.74345587  1
  Na  Na26  1  0.49153498  0.54334939  0.75041357  1
  Na  Na27  1  0.99087020  0.50806856  0.41317290  1
  Na  Na28  1  0.47867877  0.50789207  0.09874705  1
  Na  Na29  1  0.49313826  -0.00094449  0.76608842  1
  Na  Na30  1  0.50494878  -0.01241968  0.07795676  1
  Na  Na31  1  0.95619509  0.01032502  0.71254158  1
  Na  Na32  1  0.99151646  0.00570710  0.42554446  1
  Na  Na33  1  0.00502200  0.98548514  0.92580929  1
  Na  Na34  1  0.49066118  0.52152052  0.91179068  1
  Na  Na35  1  0.52192188  0.49052025  0.56303873  1
  Na  Na36  1  0.06142244  0.50161330  0.94408118  1
  Na  Na37  1  0.50980946  0.95672908  0.24208010  1
  Na  Na38  1  0.02930415  0.48447653  0.59420520  1
  Na  Na39  1  0.51006994  1.00897975  0.58237994  1
  Na  Na40  1  0.00894798  0.96020470  0.22045624  1
  Na  Na41  1  0.01650127  0.49994225  0.22482268  1
  Na  Na42  1  0.75384439  0.75727216  0.33247745  1
  Na  Na43  1  0.24023897  0.73341263  0.67722703  1
  Na  Na44  1  0.75041581  0.75679802  0.66394143  1
  Na  Na45  1  0.74153017  0.24337679  0.34865171  1
  Na  Na46  1  0.75745309  0.25554735  -0.00485853  1
  Na  Na47  1  0.75513935  0.27031966  0.63869584  1
  Na  Na48  1  0.74856519  0.74632314  -0.00330656  1
  Na  Na49  1  0.25437562  0.25345468  -0.00393780  1
  Na  Na50  1  0.25044449  0.73246601  0.03110684  1
  Na  Na51  1  0.26235971  0.75647444  0.31646042  1
  Na  Na52  1  0.75905134  0.75456949  0.16036307  1
  Na  Na53  1  0.74492118  0.24430360  0.17052182  1
  Na  Na54  1  0.23897690  0.73389915  0.84397702  1
  Na  Na55  1  0.75279720  0.25891701  0.81975312  1
  Na  Na56  1  0.74319844  0.74457324  0.83761243  1
  Na  Na57  1  0.25300205  0.25439096  0.49647916  1
  Na  Na58  1  0.25017161  0.74959061  0.49966895  1
  Na  Na59  1  0.75760896  0.76045958  0.50029594  1
  Na  Na60  1  0.25761945  0.25837584  0.81917162  1
  Na  Na61  1  0.24035637  0.24287350  0.17711824  1
  Fe  Fe62  1  0.46444121  0.30713026  0.78619299  1
  Fe  Fe63  1  0.47012199  0.80205148  0.78896759  1
  Fe  Fe64  1  0.46555386  0.80930885  0.45223419  1
  Fe  Fe65  1  0.96728455  0.30898788  0.78319184  1
  Fe  Fe66  1  0.46430958  0.30025102  0.45547668  1
  Fe  Fe67  1  0.96644414  0.30280337  0.11759166  1
  Fe  Fe68  1  0.96045758  0.80865261  0.78630055  1
  Fe  Fe69  1  0.96274648  0.81304664  0.45824684  1
  Fe  Fe70  1  0.96590645  0.30715640  0.45177883  1
  Fe  Fe71  1  0.46420327  0.31107348  0.12640301  1
  Fe  Fe72  1  0.19243702  0.53481057  0.38073897  1
  Fe  Fe73  1  0.19021128  0.03390060  0.38246035  1
  Fe  Fe74  1  0.19309700  0.03397394  0.05027413  1
  Fe  Fe75  1  0.70087391  0.53029643  0.70939384  1
  Fe  Fe76  1  0.68937196  0.53497970  0.37741356  1
  Fe  Fe77  1  0.68945328  0.03403584  0.04439657  1
  Fe  Fe78  1  0.18719373  0.03471686  0.71318452  1
  Fe  Fe79  1  0.69478073  0.03741412  0.38644779  1
  Fe  Fe80  1  0.69318921  0.53066738  0.04452918  1
  Fe  Fe81  1  0.69812084  0.03441732  0.71194919  1
  Fe  Fe82  1  0.53435248  0.69043026  0.53995987  1
  Fe  Fe83  1  0.03362001  0.69147382  0.54912928  1
  Fe  Fe84  1  0.03629108  0.18611882  0.21341959  1
  Fe  Fe85  1  0.03363901  0.19000723  0.87769237  1
  Fe  Fe86  1  0.53463537  0.70347143  0.21096898  1
  Fe  Fe87  1  0.53445275  0.19205686  0.88243109  1
  Fe  Fe88  1  0.53220507  0.19307478  0.21458280  1
  Fe  Fe89  1  0.03813148  0.19292512  0.55005805  1
  Fe  Fe90  1  0.03375604  0.69303853  0.88664599  1
  Fe  Fe91  1  0.03488001  0.69781808  0.20764659  1
  Fe  Fe92  1  0.30491353  0.96398899  0.95115259  1
  Fe  Fe93  1  0.30533857  0.96493230  0.62065153  1
  Fe  Fe94  1  0.80944845  0.96533367  0.28694299  1
  Fe  Fe95  1  0.81183997  0.96317321  0.95644650  1
  Fe  Fe96  1  0.81100673  0.46314698  0.95242643  1
  Fe  Fe97  1  0.30796235  0.96499099  0.28447608  1
  Fe  Fe98  1  0.30111356  0.46973039  0.62594165  1
  Fe  Fe99  1  0.80695356  0.46431908  0.28439666  1
  Fe  Fe100  1  0.30844091  0.46540522  0.28891211  1
  Fe  Fe101  1  0.29681292  0.47214969  0.95500232  1
  S  S102  1  0.35691325  0.14192265  0.08203221  1
  S  S103  1  0.35344458  0.13916239  0.41790172  1
  S  S104  1  0.35949753  0.13717818  0.75236696  1
  S  S105  1  0.37069345  0.63780808  0.08164943  1
  S  S106  1  0.35876693  0.64166681  0.41552398  1
  S  S107  1  0.35809489  0.64347258  0.75037995  1
  S  S108  1  0.85888681  0.14008325  0.08334083  1
  S  S109  1  0.86112444  0.14037891  0.41608074  1
  S  S110  1  0.85835463  0.14776522  0.75046773  1
  S  S111  1  0.85918992  0.63583635  0.08716448  1
  S  S112  1  0.85975876  0.64005135  0.41441392  1
  S  S113  1  0.85765580  0.64507438  0.75442647  1
  S  S114  1  0.13739457  0.35932164  0.24947000  1
  S  S115  1  0.14073866  0.35465321  0.57750066  1
  S  S116  1  0.14165334  0.35135628  0.91371446  1
  S  S117  1  0.14653111  0.86074015  0.25492730  1
  S  S118  1  0.14042418  0.85742429  0.58481726  1
  S  S119  1  0.13727653  0.85977336  0.91491235  1
  S  S120  1  0.64243281  0.35760966  0.25124195  1
  S  S121  1  0.63491885  0.36319997  0.58231069  1
  S  S122  1  0.64208961  0.35603536  0.91649134  1
  S  S123  1  0.64606738  0.86222976  0.25099320  1
  S  S124  1  0.63776100  0.86062555  0.58699265  1
  S  S125  1  0.64080004  0.86232665  0.91444308  1
  S  S126  1  0.06731097  0.16944467  0.04153563  1
  S  S127  1  0.06315054  0.16387356  0.37416096  1
  S  S128  1  0.06430151  0.16721061  0.70844192  1
  S  S129  1  0.07058890  0.67490422  0.04883441  1
  S  S130  1  0.06416268  0.66842621  0.37537909  1
  S  S131  1  0.05676086  0.66828972  0.71026468  1
  S  S132  1  0.56584232  0.17054896  0.04463429  1
  S  S133  1  0.56407916  0.16797752  0.37085741  1
  S  S134  1  0.56248267  0.16552981  0.71228603  1
  S  S135  1  0.57577609  0.66373181  0.04161498  1
  S  S136  1  0.57333642  0.67955736  0.37642659  1
  S  S137  1  0.57080801  0.66969202  0.70482812  1
  S  S138  1  0.32940205  0.42910958  0.12495274  1
  S  S139  1  0.32691618  0.43101014  0.45907206  1
  S  S140  1  0.33210005  0.43195150  0.79547009  1
  S  S141  1  0.33306058  0.94009393  0.12357989  1
  S  S142  1  0.32982530  0.93352103  0.45994292  1
  S  S143  1  0.32557530  0.92898941  0.78586342  1
  S  S144  1  0.82967088  0.42697545  0.12388940  1
  S  S145  1  0.83993240  0.43689943  0.45574917  1
  S  S146  1  0.83359580  0.43418652  0.79183459  1
  S  S147  1  0.82285574  0.93119482  0.12060269  1
  S  S148  1  0.83325550  0.93900800  0.45974794  1
  S  S149  1  0.83246906  0.93861410  0.79323464  1
  S  S150  1  0.42819620  0.32460380  0.29009212  1
  S  S151  1  0.42783546  0.33848727  0.62796465  1
  S  S152  1  0.43129773  0.32794636  0.95907720  1
  S  S153  1  0.43927100  0.83750175  0.29779530  1
  S  S154  1  0.43120279  0.83169920  0.62503166  1
  S  S155  1  0.42968256  0.83708457  0.95517504  1
  S  S156  1  0.93275958  0.32719403  0.28745685  1
  S  S157  1  0.94199798  0.33216472  0.62359006  1
  S  S158  1  0.93421521  0.32731460  0.95613498  1
  S  S159  1  0.93643049  0.83153335  0.29403792  1
  S  S160  1  0.93056342  0.82490928  0.62146580  1
  S  S161  1  0.93410373  0.83007314  0.95855940  1
  S  S162  1  0.16631321  0.06321372  0.20761046  1
  S  S163  1  0.17011719  0.06549561  0.54226374  1
  S  S164  1  0.16746682  0.06457386  0.87604740  1
  S  S165  1  0.17096206  0.56775843  0.21372267  1
  S  S166  1  0.16667810  0.56585033  0.53987473  1
  S  S167  1  0.16751984  0.56499773  0.87268714  1
  S  S168  1  0.66961436  0.06743837  0.20887598  1
  S  S169  1  0.66623802  0.06846756  0.54639152  1
  S  S170  1  0.67368117  0.07031223  0.87720768  1
  S  S171  1  0.67081617  0.56750152  0.21048784  1
  S  S172  1  0.67065058  0.57393152  0.53972933  1
  S  S173  1  0.67054465  0.55810999  0.87254510  1
  O  O174  1  0.36834624  0.22131464  0.07551358  1
  O  O175  1  0.36520398  0.21878157  0.41311599  1
  O  O176  1  0.36994646  0.21791376  0.75033359  1
  O  O177  1  0.38615407  0.70907304  0.06523646  1
  O  O178  1  0.36822977  0.72176123  0.40920042  1
  O  O179  1  0.37485258  0.71861511  0.73535832  1
  O  O180  1  0.86805001  0.21867227  0.07346573  1
  O  O181  1  0.87113336  0.21871535  0.40669139  1
  O  O182  1  0.86610067  0.23070665  0.75053457  1
  O  O183  1  0.85734043  0.71290223  0.07727981  1
  O  O184  1  0.86989527  0.72063410  0.40950610  1
  O  O185  1  0.86162172  0.72697806  0.75015348  1
  O  O186  1  0.27779980  0.13489194  0.09099507  1
  O  O187  1  0.27095821  0.12956561  0.41892877  1
  O  O188  1  0.28159051  0.12706327  0.76267103  1
  O  O189  1  0.29491714  0.63248086  0.09315246  1
  O  O190  1  0.28104243  0.63316011  0.42670549  1
  O  O191  1  0.27810823  0.64230113  0.75344870  1
  O  O192  1  0.77965161  0.13235385  0.09148981  1
  O  O193  1  0.78128048  0.13225716  0.42158263  1
  O  O194  1  0.78042193  0.13582473  0.76011020  1
  O  O195  1  0.78439679  0.61825033  0.10214569  1
  O  O196  1  0.78013860  0.63121742  0.42037380  1
  O  O197  1  0.77806353  0.63194652  0.76066637  1
  O  O198  1  0.12649328  0.27899192  0.25316514  1
  O  O199  1  0.13520409  0.27256030  0.57848332  1
  O  O200  1  0.13302750  0.26836002  0.91414319  1
  O  O201  1  0.13421122  0.78290768  0.26453770  1
  O  O202  1  0.13310332  0.77873299  0.59455433  1
  O  O203  1  0.12951202  0.77997466  0.92070432  1
  O  O204  1  0.63361503  0.27617068  0.25451705  1
  O  O205  1  0.62362024  0.29276243  0.60169049  1
  O  O206  1  0.63252468  0.27822416  0.92738848  1
  O  O207  1  0.63528288  0.78415484  0.26066539  1
  O  O208  1  0.62111139  0.78268496  0.59609679  1
  O  O209  1  0.63599316  0.78559301  0.92408147  1
  O  O210  1  0.21575933  0.36958224  0.24124219  1
  O  O211  1  0.21923825  0.37023228  0.57061685  1
  O  O212  1  0.22232870  0.36348775  0.91002731  1
  O  O213  1  0.22927692  0.86832346  0.25520610  1
  O  O214  1  0.21871937  0.86725173  0.57514880  1
  O  O215  1  0.21437577  0.86943111  0.90365971  1
  O  O216  1  0.72017402  0.36660456  0.23981361  1
  O  O217  1  0.71087536  0.37163707  0.57162669  1
  O  O218  1  0.72253534  0.36340836  0.91062642  1
  O  O219  1  0.72820963  0.86778996  0.24784292  1
  O  O220  1  0.71376307  0.86230411  0.57567220  1
  O  O221  1  0.71932837  0.87586717  0.90431161  1
  O  O222  1  0.41617785  0.13158422  0.14849072  1
  O  O223  1  0.40790712  0.12680027  0.48449199  1
  O  O224  1  0.42021135  0.12318223  0.81723145  1
  O  O225  1  0.43239829  0.63055761  0.15141055  1
  O  O226  1  0.41876707  0.63408271  0.48334053  1
  O  O227  1  0.41521785  0.63396973  0.81743254  1
  O  O228  1  0.91728960  0.13457880  0.15252226  1
  O  O229  1  0.91933137  0.13171372  0.48411930  1
  O  O230  1  0.91808287  0.13611315  0.81784979  1
  O  O231  1  0.92312605  0.63172595  0.15439574  1
  O  O232  1  0.91798688  0.62888809  0.48126520  1
  O  O233  1  0.91550709  0.63774193  0.82408378  1
  O  O234  1  0.36139539  0.08366681  0.01217589  1
  O  O235  1  0.36322930  0.08132855  0.34857803  1
  O  O236  1  0.36472918  0.08088587  0.68171614  1
  O  O237  1  0.37933610  0.56883885  0.01826421  1
  O  O238  1  0.36406024  0.58359658  0.34645848  1
  O  O239  1  0.36556913  0.58050432  0.68206520  1
  O  O240  1  0.86713797  0.08085580  0.01610980  1
  O  O241  1  0.87053309  0.08061609  0.34846725  1
  O  O242  1  0.86681334  0.09440539  0.68192645  1
  O  O243  1  0.86666339  0.57638221  0.01904881  1
  O  O244  1  0.86915911  0.58302189  0.34556583  1
  O  O245  1  0.87020239  0.59036510  0.68850109  1
  O  O246  1  0.07753780  0.37067878  0.18247997  1
  O  O247  1  0.08166107  0.36293479  0.50758806  1
  O  O248  1  0.08502433  0.36159303  0.84489279  1
  O  O249  1  0.09256097  0.87108246  0.18764050  1
  O  O250  1  0.08125964  0.86268436  0.51584842  1
  O  O251  1  0.07613000  0.87083821  0.84919281  1
  O  O252  1  0.58213721  0.36783881  0.18514009  1
  O  O253  1  0.57278898  0.36686497  0.51180086  1
  O  O254  1  0.58463423  0.36229284  0.84744260  1
  O  O255  1  0.59119241  0.87197294  0.18343381  1
  O  O256  1  0.57623865  0.87382556  0.52248335  1
  O  O257  1  0.58161394  0.86851700  0.84506171  1
  O  O258  1  0.12895851  0.41667672  0.31811967  1
  O  O259  1  0.12801411  0.40955206  0.64327296  1
  O  O260  1  0.12998313  0.40449788  0.98093061  1
  O  O261  1  0.13570102  0.92025430  0.32297464  1
  O  O262  1  0.13254464  0.91678806  0.65232411  1
  O  O263  1  0.13044190  0.91799584  0.98418503  1
  O  O264  1  0.63929036  0.41356779  0.32238350  1
  O  O265  1  0.62370500  0.43198728  0.64459022  1
  O  O266  1  0.63411571  0.41572516  0.98428508  1
  O  O267  1  0.63730954  0.92177475  0.31942162  1
  O  O268  1  0.63467229  0.92066118  0.65735067  1
  O  O269  1  0.63117381  0.92290213  0.98117093  1
  O  O270  1  0.03045826  0.19683638  0.10272749  1
  O  O271  1  0.02589029  0.19462254  0.43423832  1
  O  O272  1  0.02477270  0.19900673  0.76729171  1
  O  O273  1  0.03206472  0.70724697  0.10658194  1
  O  O274  1  0.02952230  0.69644291  0.43803163  1
  O  O275  1  0.02126112  0.70552357  0.77132676  1
  O  O276  1  0.52825384  0.20160898  0.10456232  1
  O  O277  1  0.52683411  0.19418955  0.42996576  1
  O  O278  1  0.53012488  0.19957743  0.77756589  1
  O  O279  1  0.55776828  0.69530151  0.11237298  1
  O  O280  1  0.53316821  0.70728514  0.43594670  1
  O  O281  1  0.53432787  0.69779094  0.76414647  1
  O  O282  1  0.30422015  0.46201247  0.06315270  1
  O  O283  1  0.29831092  0.46923736  0.39803287  1
  O  O284  1  0.30835050  0.46571470  0.73423607  1
  O  O285  1  0.29318216  0.97399901  0.06099999  1
  O  O286  1  0.30118627  0.97140679  0.40037719  1
  O  O287  1  0.29414334  0.96736127  0.72542309  1
  O  O288  1  0.79940683  0.45907927  0.06051947  1
  O  O289  1  0.80759349  0.46968409  0.39081389  1
  O  O290  1  0.80557992  0.47189782  0.73338332  1
  O  O291  1  0.79137223  0.97172289  0.06174462  1
  O  O292  1  0.80035305  0.97156848  0.39443423  1
  O  O293  1  0.80557977  0.97753215  0.73579430  1
  O  O294  1  0.47124956  0.29823082  0.23228535  1
  O  O295  1  0.46102738  0.31746032  0.56607366  1
  O  O296  1  0.47109347  0.29964617  0.90010717  1
  O  O297  1  0.47596944  0.81068519  0.23826233  1
  O  O298  1  0.46348391  0.80261506  0.56141025  1
  O  O299  1  0.45984486  0.81230704  0.89093093  1
  O  O300  1  0.96753780  0.29626748  0.22543526  1
  O  O301  1  0.97554009  0.29380468  0.56040413  1
  O  O302  1  0.97370145  0.29905310  0.89725539  1
  O  O303  1  0.97355110  0.80277252  0.23571463  1
  O  O304  1  0.97025966  0.79156248  0.56193283  1
  O  O305  1  0.96830585  0.79801826  0.89452243  1
  O  O306  1  0.19931762  0.02725442  0.26864039  1
  O  O307  1  0.19871468  0.03066398  0.60513052  1
  O  O308  1  0.19816933  0.02818905  0.93718612  1
  O  O309  1  0.20025614  0.53199077  0.27812831  1
  O  O310  1  0.19574176  0.52961606  0.59868485  1
  O  O311  1  0.19258460  0.52790531  0.93389477  1
  O  O312  1  0.69997566  0.03165609  0.27003322  1
  O  O313  1  0.69558061  0.03130523  0.60563100  1
  O  O314  1  0.70388131  0.03647006  0.93977766  1
  O  O315  1  0.69990166  0.52846948  0.27075945  1
  O  O316  1  0.69797135  0.54368538  0.60302726  1
  O  O317  1  0.70733972  0.52365686  0.93534365  1
  O  O318  1  0.08791459  0.08852609  0.03611822  1
  O  O319  1  0.07849446  0.08125413  0.36960363  1
  O  O320  1  0.08024374  0.08579270  0.70796988  1
  O  O321  1  0.09447488  0.59851705  0.05013545  1
  O  O322  1  0.07777829  0.58406378  0.36570670  1
  O  O323  1  0.06366844  0.58650590  0.70589261  1
  O  O324  1  0.58515673  0.09042346  0.04326918  1
  O  O325  1  0.58457940  0.08580828  0.36566206  1
  O  O326  1  0.58587551  0.08584644  0.71361355  1
  O  O327  1  0.59017366  0.57844799  0.03123039  1
  O  O328  1  0.59397316  0.60016199  0.37289672  1
  O  O329  1  0.58939943  0.58757772  0.69951848  1
  O  O330  1  0.41332231  0.41303895  0.13537953  1
  O  O331  1  0.40785051  0.41204887  0.46419383  1
  O  O332  1  0.41562875  0.41225640  0.80747612  1
  O  O333  1  0.41592083  0.93922414  0.12941433  1
  O  O334  1  0.41255202  0.91777888  0.46758914  1
  O  O335  1  0.40577233  0.91090509  0.78735794  1
  O  O336  1  0.91117540  0.40843478  0.13028014  1
  O  O337  1  0.92215914  0.41766769  0.45675789  1
  O  O338  1  0.91531563  0.41474546  0.79483915  1
  O  O339  1  0.90054134  0.91178915  0.12118582  1
  O  O340  1  0.91301206  0.91709947  0.45748784  1
  O  O341  1  0.91487739  0.91968256  0.79806277  1
  O  O342  1  0.40598401  0.40340309  0.29226806  1
  O  O343  1  0.41208440  0.42257710  0.64469874  1
  O  O344  1  0.41128654  0.40836848  0.96473954  1
  O  O345  1  0.41939217  0.91993411  0.30195226  1
  O  O346  1  0.41633629  0.91559717  0.63424900  1
  O  O347  1  0.40744474  0.91986410  0.96380054  1
  O  O348  1  0.91631631  0.40962664  0.29321081  1
  O  O349  1  0.93572151  0.41398483  0.62705158  1
  O  O350  1  0.91519110  0.40771593  0.96115318  1
  O  O351  1  0.91880775  0.91433397  0.29889870  1
  O  O352  1  0.90760550  0.90029443  0.61679998  1
  O  O353  1  0.91340251  0.91022990  0.95602658  1
  O  O354  1  0.08482060  0.07922524  0.20645143  1
  O  O355  1  0.08943628  0.08674833  0.53793670  1
  O  O356  1  0.08606949  0.08213781  0.87268662  1
  O  O357  1  0.09464261  0.59729513  0.21840716  1
  O  O358  1  0.08357844  0.58315477  0.53510820  1
  O  O359  1  0.08467940  0.58547501  0.86872180  1
  O  O360  1  0.58806142  0.08604761  0.20363348  1
  O  O361  1  0.58325039  0.07933638  0.53651022  1
  O  O362  1  0.59161061  0.08730115  0.87144848  1
  O  O363  1  0.59054815  0.58694060  0.20519658  1
  O  O364  1  0.58597668  0.58607606  0.52638638  1
  O  O365  1  0.58794860  0.56427887  0.86652795  1
  O  O366  1  0.13669515  0.22400627  0.05813644  1
  O  O367  1  0.13453846  0.21433714  0.38965109  1
  O  O368  1  0.13618419  0.21740029  0.72497249  1
  O  O369  1  0.13625678  0.73113965  0.05831854  1
  O  O370  1  0.13795762  0.71781378  0.39422414  1
  O  O371  1  0.13187721  0.71578634  0.72764797  1
  O  O372  1  0.63682893  0.22323023  0.06035018  1
  O  O373  1  0.63323847  0.22068933  0.38388743  1
  O  O374  1  0.63108448  0.21891354  0.72460517  1
  O  O375  1  0.64865488  0.70962905  0.04879375  1
  O  O376  1  0.64390984  0.73505340  0.39681908  1
  O  O377  1  0.64235725  0.72180174  0.72031858  1
  O  O378  1  0.27905595  0.35635277  0.10941891  1
  O  O379  1  0.27326411  0.36117332  0.44163027  1
  O  O380  1  0.27917976  0.36209331  0.78060196  1
  O  O381  1  0.29067654  0.86414634  0.10809206  1
  O  O382  1  0.27886854  0.86053997  0.44149976  1
  O  O383  1  0.27260660  0.85832806  0.76933554  1
  O  O384  1  0.77753617  0.35670999  0.11107912  1
  O  O385  1  0.78974289  0.36490514  0.44016121  1
  O  O386  1  0.78057158  0.36282470  0.77497381  1
  O  O387  1  0.76688855  0.86200877  0.10353996  1
  O  O388  1  0.78166870  0.86685183  0.44411098  1
  O  O389  1  0.78053815  0.86676264  0.77625295  1
  O  O390  1  0.35908437  0.26765300  0.26770215  1
  O  O391  1  0.35664910  0.28587843  0.61052469  1
  O  O392  1  0.36129626  0.27202354  0.93947393  1
  O  O393  1  0.37027773  0.78484455  0.28468729  1
  O  O394  1  0.35879316  0.78167862  0.60952873  1
  O  O395  1  0.35928648  0.78457150  0.94113023  1
  O  O396  1  0.86105860  0.27650522  0.27253858  1
  O  O397  1  0.86835628  0.28587474  0.60960620  1
  O  O398  1  0.86265447  0.27351862  0.93712645  1
  O  O399  1  0.86367397  0.78069822  0.27810778  1
  O  O400  1  0.86293059  0.76811088  0.60704372  1
  O  O401  1  0.86144374  0.77883410  0.94217777  1
  O  O402  1  0.21550070  0.13449142  0.22008070  1
  O  O403  1  0.22413465  0.13211239  0.55324178  1
  O  O404  1  0.22002639  0.13507805  0.89152902  1
  O  O405  1  0.22852893  0.63359133  0.22840342  1
  O  O406  1  0.21654098  0.63840197  0.55412112  1
  O  O407  1  0.22026360  0.63858956  0.89597497  1
  O  O408  1  0.72251438  0.13877150  0.22530939  1
  O  O409  1  0.71622955  0.14102527  0.56287707  1
  O  O410  1  0.72461112  0.14215639  0.89228227  1
  O  O411  1  0.72552996  0.63794187  0.22959507  1
  O  O412  1  0.71829436  0.64781450  0.55336764  1
  O  O413  1  0.71665844  0.63403544  0.89058936  1
  O  O414  1  0.48942319  0.32992975  0.03270004  1
  O  O415  1  0.48483172  0.32635494  0.36301097  1
  O  O416  1  0.48808966  0.33179241  0.69751141  1
  O  O417  1  0.49181425  0.84269665  0.02515605  1
  O  O418  1  0.49875734  0.84458231  0.37268954  1
  O  O419  1  0.49151521  0.83125736  0.69602689  1
  O  O420  1  0.99148105  0.32768657  0.02926111  1
  O  O421  1  0.99298081  0.32802293  0.35876565  1
  O  O422  1  1.00053903  0.32944023  0.69554295  1
  O  O423  1  0.99330320  0.83596080  0.02883293  1
  O  O424  1  0.99305254  0.83573895  0.36931731  1
  O  O425  1  0.98950581  0.83250601  0.69630888  1
  O  O426  1  0.16158296  0.00359823  0.13428531  1
  O  O427  1  0.16253913  0.00170719  0.47014762  1
  O  O428  1  0.16440767  0.00542063  0.80315961  1
  O  O429  1  0.15923046  0.50482781  0.14408388  1
  O  O430  1  0.16091351  0.50838026  0.46448600  1
  O  O431  1  0.16502735  0.50946518  0.80092007  1
  O  O432  1  0.66510199  0.00846250  0.13546736  1
  O  O433  1  0.66979683  0.01132866  0.47291749  1
  O  O434  1  0.67307953  0.01044769  0.80581564  1
  O  O435  1  0.67038485  0.50781021  0.13870187  1
  O  O436  1  0.67601345  0.51355662  0.47011169  1
  O  O437  1  0.67557885  0.50267718  0.80077608  1
  O  O438  1  0.00452500  0.16205410  0.30099907  1
  O  O439  1  0.00678824  0.16325977  0.63464601  1
  O  O440  1  0.00700426  0.16540692  0.96898616  1
  O  O441  1  0.00639981  0.67163009  0.30465211  1
  O  O442  1  0.00210939  0.67093275  0.63647335  1
  O  O443  1  0.00920979  0.66586558  0.97276231  1
  O  O444  1  0.50359514  0.16117849  0.29636237  1
  O  O445  1  0.49912249  0.15528443  0.64230409  1
  O  O446  1  0.50781103  0.16648333  0.97082247  1
  O  O447  1  0.51550401  0.67915933  0.30445467  1
  O  O448  1  0.51194938  0.66519562  0.63037686  1
  O  O449  1  0.51068977  0.66295695  0.97570442  1
  O  O450  1  0.32768130  0.48800081  0.19637325  1
  O  O451  1  0.32848862  0.49120219  0.53133266  1
  O  O452  1  0.33452721  0.49329843  0.86773703  1
  O  O453  1  0.32737635  0.99633609  0.19559699  1
  O  O454  1  0.33020855  0.99109274  0.53287192  1
  O  O455  1  0.32701686  0.98842748  0.85779544  1
  O  O456  1  0.83255630  0.48882219  0.19551880  1
  O  O457  1  0.84513283  0.49705259  0.52554612  1
  O  O458  1  0.83915821  0.49089088  0.86711720  1
  O  O459  1  0.82601663  0.98986308  0.19490986  1
  O  O460  1  0.83917268  0.99933561  0.52932678  1
  O  O461  1  0.83759077  0.99493888  0.86881847  1
