# generated using pymatgen
data_Na31Fe20(SO4)36
_symmetry_space_group_name_H-M   'P 1'
_cell_length_a   18.06274237
_cell_length_b   18.07025260
_cell_length_c   19.70429379
_cell_angle_alpha   107.56575341
_cell_angle_beta   107.54543841
_cell_angle_gamma   90.75342959
_symmetry_Int_Tables_number   1
_chemical_formula_structural   Na31Fe20(SO4)36
_chemical_formula_sum   'Na62 Fe40 S72 O288'
_cell_volume   5807.82118698
_cell_formula_units_Z   2
loop_
 _symmetry_equiv_pos_site_id
 _symmetry_equiv_pos_as_xyz
  1  'x, y, z'
loop_
 _atom_site_type_symbol
 _atom_site_label
 _atom_site_symmetry_multiplicity
 _atom_site_fract_x
 _atom_site_fract_y
 _atom_site_fract_z
 _atom_site_occupancy
  Na  Na0  1  0.14207218  0.37163988  0.08890643  1
  Na  Na1  1  0.14387030  0.36855499  0.42105730  1
  Na  Na2  1  0.13222110  0.36504827  0.74725368  1
  Na  Na3  1  0.13580741  0.86231556  0.08312713  1
  Na  Na4  1  0.13563185  0.87280667  0.42325711  1
  Na  Na5  1  0.13475181  0.85655525  0.74766928  1
  Na  Na6  1  0.64107420  0.34713361  0.08375218  1
  Na  Na7  1  0.63944830  0.35847099  0.42149699  1
  Na  Na8  1  0.63008870  0.35851844  0.74274848  1
  Na  Na9  1  0.63624131  0.87447726  0.09772846  1
  Na  Na10  1  0.62383708  0.86433744  0.40588638  1
  Na  Na11  1  0.63225707  0.87042340  0.74930162  1
  Na  Na12  1  0.37198147  0.13403633  0.25343370  1
  Na  Na13  1  0.36453680  0.12997470  0.58138924  1
  Na  Na14  1  0.36952708  0.13793647  0.92414864  1
  Na  Na15  1  0.36676558  0.62932618  0.23840414  1
  Na  Na16  1  0.35807227  0.63174481  0.57167865  1
  Na  Na17  1  0.36326951  0.64283476  0.92745109  1
  Na  Na18  1  0.85397217  0.13081313  0.23983454  1
  Na  Na19  1  0.84593436  0.13541472  0.56910046  1
  Na  Na20  1  0.86621528  0.14288750  0.92534584  1
  Na  Na21  1  0.86909453  0.63144615  0.25053760  1
  Na  Na22  1  0.87404886  0.63394038  0.58847913  1
  Na  Na23  1  0.86443963  0.63172544  0.91452742  1
  Na  Na24  1  1.01062448  -0.02035098  0.75799818  1
  Na  Na25  1  0.49312514  0.01656320  0.08167189  1
  Na  Na26  1  0.47969935  0.51575734  0.09770861  1
  Na  Na27  1  0.99545541  0.52158070  0.73631513  1
  Na  Na28  1  1.03973769  0.48591982  0.37004057  1
  Na  Na29  1  0.48343798  0.51259044  0.41362448  1
  Na  Na30  1  0.96622330  0.01861098  0.35772028  1
  Na  Na31  1  0.48342832  0.51074697  0.75602358  1
  Na  Na32  1  1.00407132  0.50486591  0.09727163  1
  Na  Na33  1  0.51038530  1.00051616  0.89384201  1
  Na  Na34  1  0.48597741  1.01008366  0.58465499  1
  Na  Na35  1  0.01313018  0.99723076  0.57222095  1
  Na  Na36  1  0.51437323  0.48370886  0.58635287  1
  Na  Na37  1  0.50606763  0.98201024  0.26884635  1
  Na  Na38  1  0.00369047  0.96646929  0.92484867  1
  Na  Na39  1  0.50661716  0.48639420  0.92772465  1
  Na  Na40  1  0.51485586  0.45987312  0.24293702  1
  Na  Na41  1  0.05832157  0.49919205  0.93617895  1
  Na  Na42  1  0.74281948  0.24670528  0.66022027  1
  Na  Na43  1  0.25607511  0.25253026  0.32945581  1
  Na  Na44  1  0.76813841  0.76271941  0.66290735  1
  Na  Na45  1  0.25198256  0.74475969  0.32936382  1
  Na  Na46  1  0.73762515  0.74939922  0.32340329  1
  Na  Na47  1  0.75235866  0.75587141  -0.00327625  1
  Na  Na48  1  0.25500927  0.75896745  0.65994705  1
  Na  Na49  1  0.75022225  0.24979816  0.33290172  1
  Na  Na50  1  0.25011685  0.24742934  0.66481607  1
  Na  Na51  1  0.26434345  0.26121368  -0.00262358  1
  Na  Na52  1  0.76483014  0.76254081  0.82573290  1
  Na  Na53  1  0.75721133  0.76788899  0.16576126  1
  Na  Na54  1  0.24886891  0.74288993  0.15576567  1
  Na  Na55  1  0.75395978  0.75578953  0.49278486  1
  Na  Na56  1  0.25477376  0.24957106  0.49746570  1
  Na  Na57  1  0.25647788  0.76065393  0.49572005  1
  Na  Na58  1  0.24047326  0.74253247  0.84559394  1
  Na  Na59  1  0.26116770  0.25717537  0.16113104  1
  Na  Na60  1  0.25842108  0.25259981  0.83094308  1
  Na  Na61  1  0.73948955  0.24323826  0.84395437  1
  Fe  Fe62  1  0.46829885  0.79808036  0.12116765  1
  Fe  Fe63  1  0.47110803  0.29718457  0.45644617  1
  Fe  Fe64  1  0.96537900  0.30767174  0.78591737  1
  Fe  Fe65  1  0.96275776  0.31201552  0.45211730  1
  Fe  Fe66  1  0.96188441  0.30985180  0.12066989  1
  Fe  Fe67  1  0.46507710  0.80640046  0.78271363  1
  Fe  Fe68  1  0.46899457  0.80565764  0.45290016  1
  Fe  Fe69  1  0.96082168  0.80903775  0.44933387  1
  Fe  Fe70  1  0.46445180  0.30593154  0.78697162  1
  Fe  Fe71  1  0.96203500  0.81533987  0.12534308  1
  Fe  Fe72  1  0.19475426  0.03138264  0.04836863  1
  Fe  Fe73  1  0.18834047  0.53651733  0.70977211  1
  Fe  Fe74  1  0.69592547  0.03645165  0.38073121  1
  Fe  Fe75  1  0.19366963  0.03364675  0.37924752  1
  Fe  Fe76  1  0.68834509  0.03700857  0.71090593  1
  Fe  Fe77  1  0.20132001  0.03028331  0.71094594  1
  Fe  Fe78  1  0.69492685  0.53337728  0.05498031  1
  Fe  Fe79  1  0.69281843  0.53229444  0.38137269  1
  Fe  Fe80  1  0.69386758  0.03855319  0.05061164  1
  Fe  Fe81  1  0.69545278  0.53397781  0.72004377  1
  Fe  Fe82  1  0.03441804  0.18751962  0.20922231  1
  Fe  Fe83  1  0.03666535  0.69416530  0.21526510  1
  Fe  Fe84  1  0.53413987  0.19357742  0.88227047  1
  Fe  Fe85  1  0.03102277  0.19430646  0.54432743  1
  Fe  Fe86  1  0.53594717  0.69474192  0.88413163  1
  Fe  Fe87  1  0.53834811  0.69114428  0.54949441  1
  Fe  Fe88  1  0.03424602  0.18973749  0.87782145  1
  Fe  Fe89  1  0.53146745  0.20074586  0.21151970  1
  Fe  Fe90  1  0.03376859  0.69156475  0.54403579  1
  Fe  Fe91  1  0.03068070  0.69988299  0.88047783  1
  Fe  Fe92  1  0.80797408  0.97006048  0.95638146  1
  Fe  Fe93  1  0.80688982  0.46286749  0.61729372  1
  Fe  Fe94  1  0.29593785  0.47104139  0.28671270  1
  Fe  Fe95  1  0.30985991  0.96075155  0.95397196  1
  Fe  Fe96  1  0.29900755  0.46964056  0.95864863  1
  Fe  Fe97  1  0.80916428  0.96703670  0.62128820  1
  Fe  Fe98  1  0.31013269  0.96527829  0.28848829  1
  Fe  Fe99  1  0.80933486  0.46460049  0.95568414  1
  Fe  Fe100  1  0.81213300  0.46295379  0.28665720  1
  Fe  Fe101  1  0.30196240  0.46717402  0.61612920  1
  S  S102  1  0.35851064  0.13699321  0.08270676  1
  S  S103  1  0.35948679  0.13837968  0.41785368  1
  S  S104  1  0.36017223  0.14135951  0.75005632  1
  S  S105  1  0.36363704  0.63762437  0.07980788  1
  S  S106  1  0.36313391  0.63967616  0.41894240  1
  S  S107  1  0.35972177  0.64036218  0.75007754  1
  S  S108  1  0.86077615  0.14239468  0.08337966  1
  S  S109  1  0.85836025  0.14626898  0.41802209  1
  S  S110  1  0.85821147  0.14410681  0.74986120  1
  S  S111  1  0.85630653  0.64094517  0.08653452  1
  S  S112  1  0.85737157  0.64119721  0.41575318  1
  S  S113  1  0.85863571  0.63782386  0.75147939  1
  S  S114  1  0.13675468  0.35489347  0.24844841  1
  S  S115  1  0.13866966  0.35877195  0.58189234  1
  S  S116  1  0.14084023  0.35213257  0.91357662  1
  S  S117  1  0.14148997  0.86101529  0.24914512  1
  S  S118  1  0.13682712  0.86119788  0.58436245  1
  S  S119  1  0.13925530  0.86298268  0.91426432  1
  S  S120  1  0.64789060  0.35855611  0.25399521  1
  S  S121  1  0.63941871  0.36375007  0.58748167  1
  S  S122  1  0.63893238  0.36230016  0.91746778  1
  S  S123  1  0.63367294  0.86224622  0.25258423  1
  S  S124  1  0.64368238  0.85651652  0.58575816  1
  S  S125  1  0.64018110  0.86183940  0.91473921  1
  S  S126  1  0.07058203  0.16756403  0.03974560  1
  S  S127  1  0.06877660  0.17392590  0.37630926  1
  S  S128  1  0.06799357  0.16689773  0.70795555  1
  S  S129  1  0.05535383  0.67344055  0.04409439  1
  S  S130  1  0.06759114  0.67898264  0.38030353  1
  S  S131  1  0.06662266  0.66855670  0.70817649  1
  S  S132  1  0.56539041  0.16084875  0.03781916  1
  S  S133  1  0.57071359  0.17227562  0.37283252  1
  S  S134  1  0.56366179  0.17141086  0.71117628  1
  S  S135  1  0.57319434  0.66912726  0.04138992  1
  S  S136  1  0.56523717  0.66207460  0.37589803  1
  S  S137  1  0.56796748  0.66683999  0.71193571  1
  S  S138  1  0.32985428  0.43430139  0.12567544  1
  S  S139  1  0.33630398  0.42983766  0.45899095  1
  S  S140  1  0.32599389  0.43409653  0.79139635  1
  S  S141  1  0.33341793  0.92811611  0.12535842  1
  S  S142  1  0.33076255  0.93151694  0.45694474  1
  S  S143  1  0.33008819  0.93092264  0.79229973  1
  S  S144  1  0.83297948  0.43379908  0.12521944  1
  S  S145  1  0.83180766  0.43584533  0.45828756  1
  S  S146  1  0.83056434  0.43037592  0.79263138  1
  S  S147  1  0.82454164  0.93501515  0.12283379  1
  S  S148  1  0.82697945  0.93425204  0.45768845  1
  S  S149  1  0.83264153  0.94215607  0.79269446  1
  S  S150  1  0.43288532  0.33188260  0.29492208  1
  S  S151  1  0.42845265  0.33583049  0.62778873  1
  S  S152  1  0.43683361  0.33523531  0.96094259  1
  S  S153  1  0.42510794  0.82775313  0.28984409  1
  S  S154  1  0.43903144  0.83009805  0.62216515  1
  S  S155  1  0.43676632  0.82987965  0.95724298  1
  S  S156  1  0.93484302  0.32694908  0.29202804  1
  S  S157  1  0.93195395  0.32979677  0.62612297  1
  S  S158  1  0.93561862  0.33298859  0.95763362  1
  S  S159  1  0.93037807  0.82634594  0.28720731  1
  S  S160  1  0.93489551  0.83248882  0.62304170  1
  S  S161  1  0.92956989  0.82861415  0.95883173  1
  S  S162  1  0.17507185  0.06821977  0.21107397  1
  S  S163  1  0.16290814  0.06987499  0.53854650  1
  S  S164  1  0.17421421  0.06765266  0.87587255  1
  S  S165  1  0.16799402  0.56720912  0.20666412  1
  S  S166  1  0.16925131  0.56787835  0.54271875  1
  S  S167  1  0.16552329  0.56666626  0.87058392  1
  S  S168  1  0.66386994  0.07192254  0.20827380  1
  S  S169  1  0.66461060  0.05813760  0.54409619  1
  S  S170  1  0.67202079  0.06925751  0.87485425  1
  S  S171  1  0.66688422  0.55559972  0.21133999  1
  S  S172  1  0.67237424  0.56771267  0.54577834  1
  S  S173  1  0.66726914  0.56529784  0.87835188  1
  O  O174  1  0.36324681  0.21147167  0.06914238  1
  O  O175  1  0.36858819  0.21852613  0.40982251  1
  O  O176  1  0.36562950  0.22510719  0.74877894  1
  O  O177  1  0.37975564  0.71182164  0.06348373  1
  O  O178  1  0.37541118  0.71866666  0.41077699  1
  O  O179  1  0.36907654  0.71847464  0.74049667  1
  O  O180  1  0.87267132  0.22018793  0.07407664  1
  O  O181  1  0.86725116  0.22931701  0.41866139  1
  O  O182  1  0.86902015  0.22353731  0.74263728  1
  O  O183  1  0.86144149  0.72176437  0.08203562  1
  O  O184  1  0.86214075  0.72007124  0.40567279  1
  O  O185  1  0.86212586  0.71444593  0.74175858  1
  O  O186  1  0.28003558  0.12415183  0.09226422  1
  O  O187  1  0.27615716  0.13049626  0.41967382  1
  O  O188  1  0.27951407  0.13062611  0.75680419  1
  O  O189  1  0.28523812  0.63426924  0.08547518  1
  O  O190  1  0.28896725  0.63430086  0.43323616  1
  O  O191  1  0.28151108  0.63145562  0.75889261  1
  O  O192  1  0.78230486  0.13185979  0.09038685  1
  O  O193  1  0.78116699  0.13301638  0.42763262  1
  O  O194  1  0.77814202  0.13617574  0.75574732  1
  O  O195  1  0.78056619  0.63023264  0.10110329  1
  O  O196  1  0.77837677  0.63042598  0.42388875  1
  O  O197  1  0.78177621  0.62490128  0.76479734  1
  O  O198  1  0.13168214  0.27308607  0.25275304  1
  O  O199  1  0.13024355  0.27971403  0.59090649  1
  O  O200  1  0.13408433  0.26968544  0.91478356  1
  O  O201  1  0.13450994  0.78148502  0.25674093  1
  O  O202  1  0.12324314  0.78359095  0.59538830  1
  O  O203  1  0.12753354  0.78201516  0.91592112  1
  O  O204  1  0.63229005  0.27947331  0.25957964  1
  O  O205  1  0.63024994  0.29056650  0.60160303  1
  O  O206  1  0.62976640  0.28293219  0.92288018  1
  O  O207  1  0.62069798  0.79047690  0.26926765  1
  O  O208  1  0.63497554  0.77949986  0.59876640  1
  O  O209  1  0.63119288  0.78127832  0.91975132  1
  O  O210  1  0.21610220  0.36734959  0.24083916  1
  O  O211  1  0.21782735  0.36721981  0.57277091  1
  O  O212  1  0.22077871  0.36486924  0.90780496  1
  O  O213  1  0.21905532  0.87055247  0.23813941  1
  O  O214  1  0.21304590  0.86552304  0.57386942  1
  O  O215  1  0.22069306  0.87100393  0.90971782  1
  O  O216  1  0.73117130  0.36572087  0.25699167  1
  O  O217  1  0.71740463  0.37546433  0.57830741  1
  O  O218  1  0.71779622  0.37280765  0.90906154  1
  O  O219  1  0.70801826  0.86740413  0.23760906  1
  O  O220  1  0.72518769  0.86391323  0.58231584  1
  O  O221  1  0.71820754  0.87028008  0.90419777  1
  O  O222  1  0.41814270  0.13329784  0.15250646  1
  O  O223  1  0.41356838  0.13136221  0.48589861  1
  O  O224  1  0.41702146  0.13521168  0.82042915  1
  O  O225  1  0.42325971  0.62921144  0.14581231  1
  O  O226  1  0.42704216  0.62707703  0.48338783  1
  O  O227  1  0.41985348  0.63236575  0.81813163  1
  O  O228  1  0.91938421  0.13533411  0.15227410  1
  O  O229  1  0.91888701  0.13495085  0.48483945  1
  O  O230  1  0.91566532  0.13733172  0.81963470  1
  O  O231  1  0.91994501  0.62800823  0.14865167  1
  O  O232  1  0.91631184  0.63749241  0.48550233  1
  O  O233  1  0.92035345  0.63024026  0.81833505  1
  O  O234  1  0.36953842  0.07301095  0.01808981  1
  O  O235  1  0.36681340  0.08126477  0.34815339  1
  O  O236  1  0.36913905  0.08805266  0.68255777  1
  O  O237  1  0.37056485  0.57342639  0.01144514  1
  O  O238  1  0.36809129  0.58024241  0.34929139  1
  O  O239  1  0.36883862  0.57998691  0.68289732  1
  O  O240  1  0.87009727  0.08268079  0.01596649  1
  O  O241  1  0.86650881  0.09410339  0.34838821  1
  O  O242  1  0.86814733  0.08559397  0.68291872  1
  O  O243  1  0.85795445  0.58514949  0.01378308  1
  O  O244  1  0.86797754  0.58243282  0.34926325  1
  O  O245  1  0.86671459  0.57653011  0.68386719  1
  O  O246  1  0.07805311  0.36030618  0.17855961  1
  O  O247  1  0.08000181  0.36569461  0.51397015  1
  O  O248  1  0.08335365  0.36184870  0.84465392  1
  O  O249  1  0.08083323  0.86961121  0.18295391  1
  O  O250  1  0.07498118  0.87334399  0.51933969  1
  O  O251  1  0.08332733  0.87998406  0.85092239  1
  O  O252  1  0.59506393  0.37008090  0.18652904  1
  O  O253  1  0.57915204  0.37111460  0.51901063  1
  O  O254  1  0.57941234  0.37341078  0.85042007  1
  O  O255  1  0.56978117  0.87064736  0.18528598  1
  O  O256  1  0.58825338  0.85940379  0.51396411  1
  O  O257  1  0.57966387  0.87182824  0.84795100  1
  O  O258  1  0.12747060  0.41011479  0.31578838  1
  O  O259  1  0.13314969  0.41736270  0.65060875  1
  O  O260  1  0.12914823  0.40615523  0.98032050  1
  O  O261  1  0.13553026  0.91865878  0.31904684  1
  O  O262  1  0.13157652  0.92173002  0.65402645  1
  O  O263  1  0.13317215  0.91840012  0.98631507  1
  O  O264  1  0.63538130  0.41686559  0.32239081  1
  O  O265  1  0.62894425  0.42907972  0.65291061  1
  O  O266  1  0.63067282  0.42067486  0.98594451  1
  O  O267  1  0.62745565  0.92936885  0.31807664  1
  O  O268  1  0.63182335  0.91777632  0.65009138  1
  O  O269  1  0.63339571  0.91920710  0.98367694  1
  O  O270  1  0.03373881  0.19481227  0.10010170  1
  O  O271  1  0.02951215  0.20423490  0.43551306  1
  O  O272  1  0.02965944  0.19628284  0.76768239  1
  O  O273  1  0.01915176  0.71162283  0.10471016  1
  O  O274  1  0.02740943  0.71176707  0.43995084  1
  O  O275  1  0.03025831  0.68922694  0.76799795  1
  O  O276  1  0.52995717  0.18338704  0.09807408  1
  O  O277  1  0.53597652  0.20228634  0.43375094  1
  O  O278  1  0.53161255  0.20314037  0.77680312  1
  O  O279  1  0.54437003  0.70476642  0.10422388  1
  O  O280  1  0.53792628  0.69882510  0.44372482  1
  O  O281  1  0.53067806  0.69915133  0.77206453  1
  O  O282  1  0.29606564  0.46479717  0.06239259  1
  O  O283  1  0.31301572  0.46150636  0.39629746  1
  O  O284  1  0.29765599  0.46972706  0.72964619  1
  O  O285  1  0.30065131  0.96350209  0.06341126  1
  O  O286  1  0.29877495  0.96483516  0.39257850  1
  O  O287  1  0.30120102  0.96778069  0.73378867  1
  O  O288  1  0.80035740  0.47094160  0.06375180  1
  O  O289  1  0.80287800  0.47637099  0.40014857  1
  O  O290  1  0.80012632  0.46607280  0.73106756  1
  O  O291  1  0.79335851  0.96870248  0.05794103  1
  O  O292  1  0.79769648  0.97067227  0.39895121  1
  O  O293  1  0.79587846  0.97707890  0.73119114  1
  O  O294  1  0.47010444  0.30399250  0.23576105  1
  O  O295  1  0.46178363  0.31071204  0.56669506  1
  O  O296  1  0.46859361  0.30435214  0.89509467  1
  O  O297  1  0.45238985  0.80044729  0.22468187  1
  O  O298  1  0.47460944  0.79066954  0.56082320  1
  O  O299  1  0.47307839  0.80082204  0.89525653  1
  O  O300  1  0.96941449  0.29621959  0.22963696  1
  O  O301  1  0.96950418  0.30246972  0.56568002  1
  O  O302  1  0.97403348  0.30412739  0.89761084  1
  O  O303  1  0.97130630  0.79236842  0.22915602  1
  O  O304  1  0.96277531  0.80005016  0.55621629  1
  O  O305  1  0.96650650  0.80001702  0.89954605  1
  O  O306  1  0.20384961  0.03013907  0.27110844  1
  O  O307  1  0.18351398  0.03706250  0.60070985  1
  O  O308  1  0.20257753  0.03176698  0.93725996  1
  O  O309  1  0.19978977  0.53586390  0.27002168  1
  O  O310  1  0.20155820  0.53300154  0.60696936  1
  O  O311  1  0.19102576  0.52644345  0.92755697  1
  O  O312  1  0.68719706  0.03762021  0.26894012  1
  O  O313  1  0.70694146  0.02225218  0.60587993  1
  O  O314  1  0.70131574  0.03263780  0.93612600  1
  O  O315  1  0.70927911  0.52372950  0.27433745  1
  O  O316  1  0.70395541  0.53553485  0.60937236  1
  O  O317  1  0.69689570  0.53252870  0.94148109  1
  O  O318  1  0.08864681  0.08537474  0.03093927  1
  O  O319  1  0.08783224  0.09333989  0.37425754  1
  O  O320  1  0.08702798  0.08576299  0.70383416  1
  O  O321  1  0.06140894  0.59191652  0.04268043  1
  O  O322  1  0.08956766  0.60291518  0.38302306  1
  O  O323  1  0.08289305  0.58466565  0.69434079  1
  O  O324  1  0.58011196  0.07513996  0.02367811  1
  O  O325  1  0.58847723  0.09036258  0.36731974  1
  O  O326  1  0.58637865  0.09119653  0.70906008  1
  O  O327  1  0.58819723  0.58609396  0.03790273  1
  O  O328  1  0.58456046  0.58050299  0.37756619  1
  O  O329  1  0.58343204  0.58455387  0.70963935  1
  O  O330  1  0.41316893  0.42621976  0.13552271  1
  O  O331  1  0.41957750  0.41220058  0.47272498  1
  O  O332  1  0.40995232  0.42003529  0.80016351  1
  O  O333  1  0.41494711  0.91154204  0.12767031  1
  O  O334  1  0.41029846  0.90746193  0.45874968  1
  O  O335  1  0.41119191  0.90969041  0.79596794  1
  O  O336  1  0.91410163  0.41741514  0.12485178  1
  O  O337  1  0.91141480  0.41541475  0.45967150  1
  O  O338  1  0.91297578  0.41511033  0.79895588  1
  O  O339  1  0.90189699  0.90900091  0.12075755  1
  O  O340  1  0.90872681  0.91429039  0.46212335  1
  O  O341  1  0.91465409  0.93340903  0.79746250  1
  O  O342  1  0.41341192  0.41356941  0.29909269  1
  O  O343  1  0.41115235  0.41996336  0.63853990  1
  O  O344  1  0.41421816  0.41592203  0.96222499  1
  O  O345  1  0.41228737  0.91243137  0.30227894  1
  O  O346  1  0.43056738  0.91017390  0.62443156  1
  O  O347  1  0.42188925  0.91314103  0.96507630  1
  O  O348  1  0.91464015  0.40756563  0.29345636  1
  O  O349  1  0.91403842  0.41196386  0.63356443  1
  O  O350  1  0.91977248  0.41610527  0.96507643  1
  O  O351  1  0.90720006  0.90139577  0.28148373  1
  O  O352  1  0.91317074  0.91384532  0.62588241  1
  O  O353  1  0.90687926  0.90803902  0.95819252  1
  O  O354  1  0.09651884  0.09053716  0.20885462  1
  O  O355  1  0.07871470  0.08634604  0.52346648  1
  O  O356  1  0.09160464  0.08497408  0.86846202  1
  O  O357  1  0.09001309  0.59590270  0.21068978  1
  O  O358  1  0.09092802  0.59161114  0.54296080  1
  O  O359  1  0.08459425  0.58873284  0.86834732  1
  O  O360  1  0.58109149  0.09155188  0.19637667  1
  O  O361  1  0.58483871  0.06280156  0.54516435  1
  O  O362  1  0.59133205  0.08870593  0.87207501  1
  O  O363  1  0.58482893  0.55647973  0.20820326  1
  O  O364  1  0.58877149  0.58109184  0.53989580  1
  O  O365  1  0.58391793  0.58126572  0.87022543  1
  O  O366  1  0.14139904  0.22067385  0.05613818  1
  O  O367  1  0.14021363  0.22688777  0.39418823  1
  O  O368  1  0.13882669  0.22068899  0.72519822  1
  O  O369  1  0.13025328  0.71921668  0.06045091  1
  O  O370  1  0.13627259  0.73514082  0.39609487  1
  O  O371  1  0.14025938  0.71979768  0.72855076  1
  O  O372  1  0.63615166  0.21020444  0.05189129  1
  O  O373  1  0.64115398  0.22286608  0.38484269  1
  O  O374  1  0.63460682  0.22467461  0.72711495  1
  O  O375  1  0.64475085  0.71542361  0.04729720  1
  O  O376  1  0.63739973  0.71062114  0.38684061  1
  O  O377  1  0.64031141  0.71670779  0.72776508  1
  O  O378  1  0.28332820  0.35859905  0.11064338  1
  O  O379  1  0.28346233  0.35876651  0.44410883  1
  O  O380  1  0.27606377  0.36006678  0.77202442  1
  O  O381  1  0.28216912  0.85855128  0.11314135  1
  O  O382  1  0.27601083  0.86167181  0.44152754  1
  O  O383  1  0.27787103  0.85983321  0.77823754  1
  O  O384  1  0.78280680  0.36395981  0.11184798  1
  O  O385  1  0.77711363  0.36693533  0.44152168  1
  O  O386  1  0.77925991  0.35861624  0.77659582  1
  O  O387  1  0.76870154  0.86506463  0.10582017  1
  O  O388  1  0.77527335  0.86256372  0.44365455  1
  O  O389  1  0.78503090  0.86680003  0.77504524  1
  O  O390  1  0.36095811  0.27923456  0.27810423  1
  O  O391  1  0.35686586  0.28469872  0.61367795  1
  O  O392  1  0.36540348  0.28206337  0.94464547  1
  O  O393  1  0.35216507  0.77949335  0.27770719  1
  O  O394  1  0.36464555  0.78146529  0.60656040  1
  O  O395  1  0.36386595  0.77981143  0.93780350  1
  O  O396  1  0.86807914  0.27425317  0.28321949  1
  O  O397  1  0.86219997  0.27764558  0.61154434  1
  O  O398  1  0.86337589  0.28195496  0.93843611  1
  O  O399  1  0.86223590  0.76974083  0.27229514  1
  O  O400  1  0.86474873  0.78005923  0.61111662  1
  O  O401  1  0.85842852  0.77514239  0.94356599  1
  O  O402  1  0.23098838  0.13683218  0.22671060  1
  O  O403  1  0.21535381  0.14179929  0.55568760  1
  O  O404  1  0.22678185  0.13871022  0.89243235  1
  O  O405  1  0.22211361  0.63485128  0.21547839  1
  O  O406  1  0.22444015  0.63721597  0.55876743  1
  O  O407  1  0.22001872  0.63470623  0.88481439  1
  O  O408  1  0.71773460  0.14072498  0.22220276  1
  O  O409  1  0.71076745  0.13375108  0.56215770  1
  O  O410  1  0.72473715  0.13864427  0.88890018  1
  O  O411  1  0.70825464  0.63245917  0.22534367  1
  O  O412  1  0.72067667  0.64049696  0.55930768  1
  O  O413  1  0.71705310  0.63711797  0.89183767  1
  O  O414  1  0.49827629  0.33966125  0.02979697  1
  O  O415  1  0.49025432  0.33561181  0.36936375  1
  O  O416  1  0.48839473  0.33739359  0.70047646  1
  O  O417  1  0.49512165  0.82836176  0.02840079  1
  O  O418  1  0.48713422  0.82398146  0.35886918  1
  O  O419  1  0.49563185  0.82578494  0.69473291  1
  O  O420  1  0.99328810  0.33318677  0.03020197  1
  O  O421  1  0.99843609  0.33697815  0.36507158  1
  O  O422  1  0.99339319  0.33228169  0.69837357  1
  O  O423  1  0.98768083  0.83583581  0.03305839  1
  O  O424  1  0.98887464  0.83534061  0.36258020  1
  O  O425  1  0.99807439  0.84049368  0.69255757  1
  O  O426  1  0.17106675  0.00799268  0.13835233  1
  O  O427  1  0.16819952  0.01003064  0.46918225  1
  O  O428  1  0.17180701  0.00814067  0.80331627  1
  O  O429  1  0.15027278  0.50488169  0.13404641  1
  O  O430  1  0.16279947  0.50559333  0.47291809  1
  O  O431  1  0.15602218  0.50778174  0.79423639  1
  O  O432  1  0.66165457  0.01071219  0.13511910  1
  O  O433  1  0.66863220  0.00454517  0.47099700  1
  O  O434  1  0.66751691  0.00861476  0.80211883  1
  O  O435  1  0.67189269  0.49952965  0.13928005  1
  O  O436  1  0.67206812  0.50703411  0.47507085  1
  O  O437  1  0.66660315  0.50426598  0.80724112  1
  O  O438  1  0.01085410  0.16998683  0.30319128  1
  O  O439  1  0.00954887  0.16369110  0.63464752  1
  O  O440  1  0.01060719  0.16710751  0.96758767  1
  O  O441  1  0.00826866  0.67453618  0.30690335  1
  O  O442  1  0.00951543  0.67423761  0.63769521  1
  O  O443  1  0.00091387  0.67377499  0.96962195  1
  O  O444  1  0.50921237  0.16878921  0.29976939  1
  O  O445  1  0.50165081  0.16623349  0.64214265  1
  O  O446  1  0.50430127  0.16119121  0.96551448  1
  O  O447  1  0.50216064  0.65507745  0.30763360  1
  O  O448  1  0.50987970  0.66204128  0.63812417  1
  O  O449  1  0.51026991  0.66228517  0.96787011  1
  O  O450  1  0.32286147  0.49126666  0.19654074  1
  O  O451  1  0.33339927  0.49111187  0.52938694  1
  O  O452  1  0.32281327  0.49098361  0.86231243  1
  O  O453  1  0.33909364  0.99005508  0.19825740  1
  O  O454  1  0.33786875  0.99347772  0.52701904  1
  O  O455  1  0.33750980  0.98945610  0.86775239  1
  O  O456  1  0.83890213  0.49438000  0.19830709  1
  O  O457  1  0.83691756  0.49405831  0.53284806  1
  O  O458  1  0.83032643  0.48987995  0.86448223  1
  O  O459  1  0.83095621  0.99563285  0.19260288  1
  O  O460  1  0.83388673  0.99301551  0.53275248  1
  O  O461  1  0.83022080  0.99753843  0.86563208  1
