# generated using pymatgen
data_Na31Fe20(SO4)36
_symmetry_space_group_name_H-M   'P 1'
_cell_length_a   18.09589022
_cell_length_b   18.08459564
_cell_length_c   19.72996947
_cell_angle_alpha   107.56274653
_cell_angle_beta   107.59657669
_cell_angle_gamma   90.76066841
_symmetry_Int_Tables_number   1
_chemical_formula_structural   Na31Fe20(SO4)36
_chemical_formula_sum   'Na62 Fe40 S72 O288'
_cell_volume   5828.83949829
_cell_formula_units_Z   2
loop_
 _symmetry_equiv_pos_site_id
 _symmetry_equiv_pos_as_xyz
  1  'x, y, z'
loop_
 _atom_site_type_symbol
 _atom_site_label
 _atom_site_symmetry_multiplicity
 _atom_site_fract_x
 _atom_site_fract_y
 _atom_site_fract_z
 _atom_site_occupancy
  Na  Na0  1  0.14135876  0.36203944  0.08487123  1
  Na  Na1  1  0.15484828  0.36905382  0.44203942  1
  Na  Na2  1  0.12723377  0.35780790  0.73393667  1
  Na  Na3  1  0.13953549  0.86456657  0.08794526  1
  Na  Na4  1  0.14953271  0.87633786  0.42066022  1
  Na  Na5  1  0.13893186  0.86796908  0.75862713  1
  Na  Na6  1  0.62816960  0.35493712  0.08050875  1
  Na  Na7  1  0.63505996  0.36782321  0.42040088  1
  Na  Na8  1  0.62702747  0.36326541  0.74831187  1
  Na  Na9  1  0.63515306  0.87134576  0.08207257  1
  Na  Na10  1  0.62587453  0.87729784  0.41659465  1
  Na  Na11  1  0.63098060  0.85946088  0.74045897  1
  Na  Na12  1  0.37669005  0.11912720  0.25324147  1
  Na  Na13  1  0.35377339  0.12936772  0.55776291  1
  Na  Na14  1  0.37064266  0.13818105  0.92249318  1
  Na  Na15  1  0.36299619  0.64259369  0.25518474  1
  Na  Na16  1  0.35939164  0.63263354  0.58331119  1
  Na  Na17  1  0.35558539  0.63547157  0.91233157  1
  Na  Na18  1  0.86594146  0.12600339  0.24458841  1
  Na  Na19  1  0.88210899  0.12362558  0.58682438  1
  Na  Na20  1  0.86769307  0.13282845  0.91825524  1
  Na  Na21  1  0.86607121  0.63375107  0.25019199  1
  Na  Na22  1  0.86359833  0.63482684  0.58447272  1
  Na  Na23  1  0.86722117  0.63557560  0.91350510  1
  Na  Na24  1  0.49537589  0.01452991  0.08986299  1
  Na  Na25  1  1.01601909  0.07832215  0.46247214  1
  Na  Na26  1  0.49464826  0.02780474  0.72834558  1
  Na  Na27  1  0.97641028  0.00261300  0.08651972  1
  Na  Na28  1  0.99599261  0.50805036  0.08653402  1
  Na  Na29  1  0.48839983  0.50747449  0.08100324  1
  Na  Na30  1  0.48732894  0.51122496  0.41365588  1
  Na  Na31  1  0.99685422  0.54425437  0.75356828  1
  Na  Na32  1  0.43452968  0.49064780  0.72235423  1
  Na  Na33  1  0.49639908  0.49220084  0.58031993  1
  Na  Na34  1  0.06278291  0.99581446  0.27762102  1
  Na  Na35  1  0.02354037  0.49610720  0.56634105  1
  Na  Na36  1  0.51058347  0.45703464  0.23765099  1
  Na  Na37  1  0.01045923  0.49871358  0.91249290  1
  Na  Na38  1  0.50165818  0.44211259  0.89465157  1
  Na  Na39  1  0.53933325  0.99180493  0.91893368  1
  Na  Na40  1  0.01045033  0.48499946  0.26770628  1
  Na  Na41  1  0.01757638  0.98653004  0.89916106  1
  Na  Na42  1  0.26508791  0.26140389  -0.00226943  1
  Na  Na43  1  0.75046630  0.74922813  0.33581073  1
  Na  Na44  1  0.25957749  0.26412647  0.63894486  1
  Na  Na45  1  0.73996052  0.23408615  0.00806655  1
  Na  Na46  1  0.24018722  0.22394998  0.35860949  1
  Na  Na47  1  0.25007291  0.75649393  -0.01237200  1
  Na  Na48  1  0.74698069  0.24693125  0.67020866  1
  Na  Na49  1  0.75660715  0.75513503  -0.00879200  1
  Na  Na50  1  0.24235883  0.74506056  0.67834192  1
  Na  Na51  1  0.74305858  0.24179921  0.33464317  1
  Na  Na52  1  0.75494866  0.75591264  0.16098675  1
  Na  Na53  1  0.26471400  0.25921834  0.81999228  1
  Na  Na54  1  0.25172924  0.75310479  0.49466189  1
  Na  Na55  1  0.25132622  0.23864783  0.17517485  1
  Na  Na56  1  0.74669273  0.24308388  0.83892320  1
  Na  Na57  1  0.24820640  0.75201755  0.17462617  1
  Na  Na58  1  0.73776749  0.23158137  0.17050102  1
  Na  Na59  1  0.75801962  0.75972684  0.81705897  1
  Na  Na60  1  0.75235564  0.24786075  0.50616958  1
  Na  Na61  1  0.74113263  0.74341589  0.50837996  1
  Fe  Fe62  1  0.96502169  0.30481341  0.45747126  1
  Fe  Fe63  1  0.96700773  0.30543588  0.78412140  1
  Fe  Fe64  1  0.46336635  0.81367043  0.45051745  1
  Fe  Fe65  1  0.96451457  0.79846364  0.78635392  1
  Fe  Fe66  1  0.46087611  0.30723885  0.44858920  1
  Fe  Fe67  1  0.96865060  0.81368712  0.45886514  1
  Fe  Fe68  1  0.46363247  0.80644503  0.78824421  1
  Fe  Fe69  1  0.96567355  0.80408242  0.12072078  1
  Fe  Fe70  1  0.46443911  0.81561219  0.12567912  1
  Fe  Fe71  1  0.96742014  0.30550407  0.11805992  1
  Fe  Fe72  1  0.69019313  0.53518479  0.71673810  1
  Fe  Fe73  1  0.68469133  0.03563883  0.37346184  1
  Fe  Fe74  1  0.19603632  0.53511632  0.71201354  1
  Fe  Fe75  1  0.69223750  0.03342786  0.70650305  1
  Fe  Fe76  1  0.69447299  0.53400376  0.38319708  1
  Fe  Fe77  1  0.19569900  0.03114233  0.04935362  1
  Fe  Fe78  1  0.69207216  0.53282873  0.04815501  1
  Fe  Fe79  1  0.18298412  0.03767533  0.71127777  1
  Fe  Fe80  1  0.19804979  0.53618945  0.38394349  1
  Fe  Fe81  1  0.19030892  0.53936360  0.04878416  1
  Fe  Fe82  1  0.52759719  0.20268924  0.87675493  1
  Fe  Fe83  1  0.03840560  0.18818452  0.87905713  1
  Fe  Fe84  1  0.53515782  0.69209670  0.21489287  1
  Fe  Fe85  1  0.03445819  0.69209860  0.54450112  1
  Fe  Fe86  1  0.03513473  0.19422092  0.21673139  1
  Fe  Fe87  1  0.53254367  0.20218503  0.20839482  1
  Fe  Fe88  1  0.53172921  0.68775815  0.88089340  1
  Fe  Fe89  1  0.53306393  0.19159712  0.54159050  1
  Fe  Fe90  1  0.53486689  0.69561969  0.55064152  1
  Fe  Fe91  1  0.03741943  0.69294696  0.21771617  1
  Fe  Fe92  1  0.30854374  0.96488679  0.62131521  1
  Fe  Fe93  1  0.30739698  0.46458920  0.28206950  1
  Fe  Fe94  1  0.80488781  0.46794796  0.62076558  1
  Fe  Fe95  1  0.81261550  0.96177562  0.62230181  1
  Fe  Fe96  1  0.81525472  0.46549605  0.29142302  1
  Fe  Fe97  1  0.79614056  0.96821823  0.95365007  1
  Fe  Fe98  1  0.80770978  0.46440022  0.95331252  1
  Fe  Fe99  1  0.80715150  0.96688454  0.28854892  1
  Fe  Fe100  1  0.30778525  0.96120153  0.94966430  1
  Fe  Fe101  1  0.30556136  0.46518491  0.95203642  1
  S  S102  1  0.36004726  0.13672041  0.08395170  1
  S  S103  1  0.36291509  0.13786726  0.41169081  1
  S  S104  1  0.35583070  0.13975312  0.75039531  1
  S  S105  1  0.36055730  0.64195502  0.08299108  1
  S  S106  1  0.36423286  0.64116375  0.41644778  1
  S  S107  1  0.35721692  0.64344798  0.75197411  1
  S  S108  1  0.86087992  0.14094411  0.08018177  1
  S  S109  1  0.85311557  0.14188379  0.41497538  1
  S  S110  1  0.86079543  0.13949244  0.75185216  1
  S  S111  1  0.85984391  0.63759908  0.08506822  1
  S  S112  1  0.85874920  0.64191490  0.41759998  1
  S  S113  1  0.85492153  0.63870348  0.75094395  1
  S  S114  1  0.13973586  0.36123940  0.25004771  1
  S  S115  1  0.13424098  0.36607045  0.58554167  1
  S  S116  1  0.13988955  0.36036766  0.91918622  1
  S  S117  1  0.13915467  0.85294520  0.24417751  1
  S  S118  1  0.14371583  0.85822723  0.58800928  1
  S  S119  1  0.13549217  0.86222351  0.91523594  1
  S  S120  1  0.64982200  0.36184755  0.25151708  1
  S  S121  1  0.63948553  0.36326353  0.58197285  1
  S  S122  1  0.64792739  0.35727329  0.92070937  1
  S  S123  1  0.64336688  0.85683484  0.24886236  1
  S  S124  1  0.64021009  0.85796457  0.58199248  1
  S  S125  1  0.63823234  0.85197412  0.91328524  1
  S  S126  1  0.07093911  0.17058772  0.04252501  1
  S  S127  1  0.06111888  0.17469307  0.37678027  1
  S  S128  1  0.06760794  0.17454700  0.71699869  1
  S  S129  1  0.05996175  0.66380850  0.04106843  1
  S  S130  1  0.06765838  0.67018213  0.37629632  1
  S  S131  1  0.06675012  0.67006974  0.70535925  1
  S  S132  1  0.56251250  0.17008534  0.04091130  1
  S  S133  1  0.57316135  0.17994114  0.37525879  1
  S  S134  1  0.57120314  0.17090452  0.70737922  1
  S  S135  1  0.56725522  0.66405622  0.04230034  1
  S  S136  1  0.56731426  0.66305138  0.37355550  1
  S  S137  1  0.56268880  0.66477952  0.70871856  1
  S  S138  1  0.33004193  0.44358161  0.12417448  1
  S  S139  1  0.33402027  0.43815879  0.45259437  1
  S  S140  1  0.32333033  0.43563688  0.78918555  1
  S  S141  1  0.32843039  0.93049716  0.11875368  1
  S  S142  1  0.33158137  0.92673351  0.46589375  1
  S  S143  1  0.33697163  0.93368015  0.79387138  1
  S  S144  1  0.83480510  0.43210557  0.12590557  1
  S  S145  1  0.83059604  0.43313582  0.45826551  1
  S  S146  1  0.82952138  0.43156496  0.79296984  1
  S  S147  1  0.83082742  0.93001998  0.12432735  1
  S  S148  1  0.82433277  0.93037316  0.45520395  1
  S  S149  1  0.82603308  0.93068085  0.79098905  1
  S  S150  1  0.43770628  0.33515576  0.29012117  1
  S  S151  1  0.43870910  0.33181194  0.61665887  1
  S  S152  1  0.43679539  0.33644432  0.96267339  1
  S  S153  1  0.43598069  0.82865319  0.28541532  1
  S  S154  1  0.43081787  0.82675029  0.62555378  1
  S  S155  1  0.43421631  0.82875900  0.95958393  1
  S  S156  1  0.93135362  0.32564483  0.28954260  1
  S  S157  1  0.92568512  0.34302741  0.63107402  1
  S  S158  1  0.93616628  0.33323807  0.95832209  1
  S  S159  1  0.92895109  0.82576008  0.29142986  1
  S  S160  1  0.93081313  0.82355697  0.62189072  1
  S  S161  1  0.92532683  0.83113669  0.95663069  1
  S  S162  1  0.16091462  0.06971050  0.20476767  1
  S  S163  1  0.17483202  0.06519634  0.55604537  1
  S  S164  1  0.17498347  0.07020922  0.88005139  1
  S  S165  1  0.16819655  0.56450005  0.20832636  1
  S  S166  1  0.16948340  0.57271081  0.54129957  1
  S  S167  1  0.16793622  0.56234554  0.87587503  1
  S  S168  1  0.66726342  0.06589241  0.20609931  1
  S  S169  1  0.68103843  0.07358300  0.54475186  1
  S  S170  1  0.66691234  0.06603293  0.86959415  1
  S  S171  1  0.66990073  0.56508342  0.20993570  1
  S  S172  1  0.66568241  0.56747270  0.54156669  1
  S  S173  1  0.66982281  0.56462531  0.87839297  1
  O  O174  1  0.36209772  0.21175760  0.07116890  1
  O  O175  1  0.37673169  0.21725795  0.39960214  1
  O  O176  1  0.35665926  0.21551230  0.73887082  1
  O  O177  1  0.37317245  0.72007173  0.07520715  1
  O  O178  1  0.37548223  0.71824761  0.40752821  1
  O  O179  1  0.36728493  0.72496529  0.74923461  1
  O  O180  1  0.87650830  0.21792817  0.06824806  1
  O  O181  1  0.86336260  0.22106045  0.40725963  1
  O  O182  1  0.86919726  0.21851451  0.74325617  1
  O  O183  1  0.86646018  0.71755493  0.07856919  1
  O  O184  1  0.86874458  0.72152940  0.41183153  1
  O  O185  1  0.86341989  0.71971407  0.74855618  1
  O  O186  1  0.28354554  0.12211312  0.09629846  1
  O  O187  1  0.29084942  0.14099153  0.43144663  1
  O  O188  1  0.28020901  0.12248139  0.76246754  1
  O  O189  1  0.28079848  0.63510765  0.09000430  1
  O  O190  1  0.28559654  0.63242307  0.42485433  1
  O  O191  1  0.27741901  0.63349571  0.75799258  1
  O  O192  1  0.78313624  0.13775475  0.08714032  1
  O  O193  1  0.77096038  0.13342840  0.41630010  1
  O  O194  1  0.78069055  0.13072730  0.75837531  1
  O  O195  1  0.78175364  0.62715289  0.09483624  1
  O  O196  1  0.77898367  0.63213577  0.42484721  1
  O  O197  1  0.77521814  0.62815046  0.75878470  1
  O  O198  1  0.13149163  0.28274926  0.25777469  1
  O  O199  1  0.12144011  0.29479657  0.60280122  1
  O  O200  1  0.12930076  0.28396418  0.93169658  1
  O  O201  1  0.13027043  0.76917155  0.24294635  1
  O  O202  1  0.13242532  0.77813344  0.59326177  1
  O  O203  1  0.12879603  0.78923972  0.93046252  1
  O  O204  1  0.63874052  0.28022239  0.25310235  1
  O  O205  1  0.63524783  0.28342126  0.58806923  1
  O  O206  1  0.63573259  0.27744845  0.92617651  1
  O  O207  1  0.63643683  0.77744850  0.25697082  1
  O  O208  1  0.62982150  0.78002938  0.59207796  1
  O  O209  1  0.62966191  0.77103554  0.91824123  1
  O  O210  1  0.21548264  0.36963830  0.23552034  1
  O  O211  1  0.20941736  0.37396429  0.57383738  1
  O  O212  1  0.22040990  0.36611785  0.91388415  1
  O  O213  1  0.21109798  0.86697154  0.22931433  1
  O  O214  1  0.22499662  0.86645462  0.58404415  1
  O  O215  1  0.21156803  0.87440840  0.90253435  1
  O  O216  1  0.73112222  0.37053729  0.24805598  1
  O  O217  1  0.71553269  0.37491915  0.56804448  1
  O  O218  1  0.73001264  0.36503356  0.91869650  1
  O  O219  1  0.72313537  0.86765682  0.24224368  1
  O  O220  1  0.72021260  0.86730996  0.57673573  1
  O  O221  1  0.71893514  0.86263673  0.90905858  1
  O  O222  1  0.42239930  0.13344690  0.15299864  1
  O  O223  1  0.42818426  0.13057611  0.47751556  1
  O  O224  1  0.41835708  0.13752366  0.82022838  1
  O  O225  1  0.41829896  0.63086733  0.15057035  1
  O  O226  1  0.42321488  0.63215070  0.48484431  1
  O  O227  1  0.41482630  0.63378406  0.82089693  1
  O  O228  1  0.92035622  0.13224299  0.14779655  1
  O  O229  1  0.90763262  0.13409996  0.48347306  1
  O  O230  1  0.91799079  0.13399752  0.82174147  1
  O  O231  1  0.92034482  0.62774367  0.15117811  1
  O  O232  1  0.91673367  0.63113602  0.48390717  1
  O  O233  1  0.91388418  0.62359779  0.81309338  1
  O  O234  1  0.37096915  0.07387405  0.01895365  1
  O  O235  1  0.36135288  0.07752010  0.34342997  1
  O  O236  1  0.37010627  0.07745349  0.68643780  1
  O  O237  1  0.36849113  0.58172489  0.01540960  1
  O  O238  1  0.37272124  0.58008219  0.34955185  1
  O  O239  1  0.36772114  0.58812829  0.68508724  1
  O  O240  1  0.86817447  0.07878942  0.01306250  1
  O  O241  1  0.86348217  0.08290735  0.34747767  1
  O  O242  1  0.86894681  0.07984483  0.68506467  1
  O  O243  1  0.86665720  0.58003746  0.01568780  1
  O  O244  1  0.86360353  0.58419011  0.34718838  1
  O  O245  1  0.85872218  0.58390430  0.67815987  1
  O  O246  1  0.07702260  0.37092435  0.18399145  1
  O  O247  1  0.07111248  0.37347343  0.51720921  1
  O  O248  1  0.08305555  0.36785091  0.84977076  1
  O  O249  1  0.07270819  0.86525175  0.17970754  1
  O  O250  1  0.08736970  0.86529964  0.51844308  1
  O  O251  1  0.07343282  0.86677353  0.84570291  1
  O  O252  1  0.59410194  0.37670821  0.18748379  1
  O  O253  1  0.57660067  0.37546703  0.51894598  1
  O  O254  1  0.59341394  0.36853605  0.85410450  1
  O  O255  1  0.58575351  0.86217282  0.17937645  1
  O  O256  1  0.58339527  0.86181128  0.51132985  1
  O  O257  1  0.58199597  0.85830796  0.84218945  1
  O  O258  1  0.13403643  0.42125344  0.31856815  1
  O  O259  1  0.12451272  0.43435533  0.64986868  1
  O  O260  1  0.12964006  0.42226623  0.98473774  1
  O  O261  1  0.13100152  0.90402104  0.31413600  1
  O  O262  1  0.13552069  0.91565668  0.65637349  1
  O  O263  1  0.12422298  0.92806114  0.97881570  1
  O  O264  1  0.64180295  0.41633757  0.32275441  1
  O  O265  1  0.63724971  0.42020930  0.65375308  1
  O  O266  1  0.63949310  0.41495709  0.99002577  1
  O  O267  1  0.63497115  0.91540043  0.31627983  1
  O  O268  1  0.63054006  0.91864137  0.64778252  1
  O  O269  1  0.62582260  0.90959505  0.97762595  1
  O  O270  1  0.03533708  0.20200406  0.10368241  1
  O  O271  1  0.02130135  0.20574520  0.43409472  1
  O  O272  1  0.03150696  0.20655541  0.78111205  1
  O  O273  1  0.02473556  0.69404628  0.10358495  1
  O  O274  1  0.02874779  0.69843001  0.43554598  1
  O  O275  1  0.02567094  0.69422721  0.76150627  1
  O  O276  1  0.53174792  0.20595492  0.10336209  1
  O  O277  1  0.53919583  0.21103280  0.43734766  1
  O  O278  1  0.53691006  0.19036022  0.76888005  1
  O  O279  1  0.53388892  0.69458314  0.10466075  1
  O  O280  1  0.53410977  0.69331315  0.43604371  1
  O  O281  1  0.52517904  0.69263712  0.76879207  1
  O  O282  1  0.29082254  0.47638724  0.06158056  1
  O  O283  1  0.29887857  0.46868961  0.38611291  1
  O  O284  1  0.29237380  0.47539459  0.73146748  1
  O  O285  1  0.29302655  0.95906166  0.05115788  1
  O  O286  1  0.30051140  0.95600157  0.40458357  1
  O  O287  1  0.30980486  0.96726580  0.73139710  1
  O  O288  1  0.80541639  0.46935713  0.06572784  1
  O  O289  1  0.80257472  0.47246365  0.39881629  1
  O  O290  1  0.79937280  0.46691671  0.73152160  1
  O  O291  1  0.80742192  0.96645421  0.06477942  1
  O  O292  1  0.79647910  0.97133844  0.39730586  1
  O  O293  1  0.79912122  0.96897425  0.73049395  1
  O  O294  1  0.47715768  0.30908145  0.23277363  1
  O  O295  1  0.47379885  0.29242534  0.55407387  1
  O  O296  1  0.47158386  0.30873049  0.90084713  1
  O  O297  1  0.47807625  0.79214790  0.22689692  1
  O  O298  1  0.46868130  0.80118236  0.56541549  1
  O  O299  1  0.47141189  0.79753926  0.89888580  1
  O  O300  1  0.96956276  0.29606892  0.22907208  1
  O  O301  1  0.94880035  0.31449456  0.56370971  1
  O  O302  1  0.97012336  0.30430882  0.89636569  1
  O  O303  1  0.96588180  0.79467299  0.23084585  1
  O  O304  1  0.97207046  0.79751120  0.56327572  1
  O  O305  1  0.95986649  0.81134542  0.89606423  1
  O  O306  1  0.17829452  0.04077847  0.26781067  1
  O  O307  1  0.21236798  0.02255191  0.61493320  1
  O  O308  1  0.20765473  0.03501378  0.94121009  1
  O  O309  1  0.20207562  0.53216761  0.27184837  1
  O  O310  1  0.19254735  0.54330534  0.60574001  1
  O  O311  1  0.20295731  0.52499662  0.93654548  1
  O  O312  1  0.69679724  0.02992462  0.26895041  1
  O  O313  1  0.70795010  0.03019295  0.60100415  1
  O  O314  1  0.69283185  0.02610262  0.92694960  1
  O  O315  1  0.69887745  0.53008814  0.27171435  1
  O  O316  1  0.69586819  0.53385290  0.60416419  1
  O  O317  1  0.70007933  0.52634744  0.93882408  1
  O  O318  1  0.08438173  0.08765882  0.03337699  1
  O  O319  1  0.08058547  0.09705557  0.38031994  1
  O  O320  1  0.08760858  0.09571057  0.71939616  1
  O  O321  1  0.08099159  0.58190434  0.04160189  1
  O  O322  1  0.09012760  0.58999012  0.37240950  1
  O  O323  1  0.09102291  0.58972591  0.70380157  1
  O  O324  1  0.56681227  0.08620339  0.03075281  1
  O  O325  1  0.59093655  0.09946607  0.37056853  1
  O  O326  1  0.59133782  0.08827509  0.69478835  1
  O  O327  1  0.58312533  0.58102909  0.03668051  1
  O  O328  1  0.58210434  0.57926969  0.36646225  1
  O  O329  1  0.58020304  0.58225338  0.70208476  1
  O  O330  1  0.41206973  0.43921363  0.12837258  1
  O  O331  1  0.41544735  0.41994739  0.45230666  1
  O  O332  1  0.40232938  0.41797620  0.78870801  1
  O  O333  1  0.41021149  0.91422513  0.11850553  1
  O  O334  1  0.41487876  0.91042036  0.47722318  1
  O  O335  1  0.42019760  0.91669343  0.80345497  1
  O  O336  1  0.91823436  0.41738695  0.13233401  1
  O  O337  1  0.91142832  0.41466392  0.46400500  1
  O  O338  1  0.91129624  0.41355415  0.79981874  1
  O  O339  1  0.91376221  0.91213193  0.13587829  1
  O  O340  1  0.90215013  0.90629237  0.45494370  1
  O  O341  1  0.90602271  0.90881440  0.79597864  1
  O  O342  1  0.41898849  0.41797947  0.29321951  1
  O  O343  1  0.41969001  0.40824887  0.60646978  1
  O  O344  1  0.41238766  0.41705359  0.96121132  1
  O  O345  1  0.42127737  0.90540009  0.28244886  1
  O  O346  1  0.41130853  0.90871586  0.63593879  1
  O  O347  1  0.41886210  0.91098278  0.96374986  1
  O  O348  1  0.91483636  0.40721200  0.29072221  1
  O  O349  1  0.91492316  0.42895623  0.64635178  1
  O  O350  1  0.91874449  0.41619542  0.96491573  1
  O  O351  1  0.90814939  0.90515686  0.29349925  1
  O  O352  1  0.91002013  0.90312620  0.62573672  1
  O  O353  1  0.90260649  0.91274861  0.96919176  1
  O  O354  1  0.07572937  0.08777654  0.18600032  1
  O  O355  1  0.10364280  0.08993917  0.57233527  1
  O  O356  1  0.09284689  0.08467296  0.87767948  1
  O  O357  1  0.08661962  0.58168925  0.20713670  1
  O  O358  1  0.08555194  0.58756885  0.52627929  1
  O  O359  1  0.08585237  0.56934553  0.87158920  1
  O  O360  1  0.59127400  0.09647011  0.20804865  1
  O  O361  1  0.60664999  0.10265341  0.54875662  1
  O  O362  1  0.58588765  0.08675237  0.86509786  1
  O  O363  1  0.58729543  0.58195480  0.20254324  1
  O  O364  1  0.58273116  0.58329885  0.53563554  1
  O  O365  1  0.58928574  0.58295582  0.87496287  1
  O  O366  1  0.14421253  0.22038017  0.05971593  1
  O  O367  1  0.12878193  0.22924107  0.38938619  1
  O  O368  1  0.13835155  0.22796359  0.73568501  1
  O  O369  1  0.13146616  0.71458568  0.05664806  1
  O  O370  1  0.13530720  0.72511775  0.39123756  1
  O  O371  1  0.13390671  0.72548548  0.72007827  1
  O  O372  1  0.64004897  0.21415215  0.05741763  1
  O  O373  1  0.64533742  0.23250534  0.39236478  1
  O  O374  1  0.64334456  0.22500119  0.72769760  1
  O  O375  1  0.63957927  0.71344259  0.05581929  1
  O  O376  1  0.63992908  0.71213903  0.38793069  1
  O  O377  1  0.63318110  0.71690073  0.72514964  1
  O  O378  1  0.28637223  0.36760245  0.10941069  1
  O  O379  1  0.28479160  0.36735022  0.44022142  1
  O  O380  1  0.27046282  0.36467431  0.77250080  1
  O  O381  1  0.28061383  0.85638112  0.10374043  1
  O  O382  1  0.28421665  0.85671989  0.46181388  1
  O  O383  1  0.28490679  0.86339942  0.77878832  1
  O  O384  1  0.78503729  0.35966181  0.10926510  1
  O  O385  1  0.77693972  0.36258333  0.43975271  1
  O  O386  1  0.77742148  0.36113708  0.77882716  1
  O  O387  1  0.77793419  0.85738118  0.10493800  1
  O  O388  1  0.76726631  0.86209757  0.43790178  1
  O  O389  1  0.76977021  0.86286397  0.77380684  1
  O  O390  1  0.36637352  0.28431422  0.27368686  1
  O  O391  1  0.36949006  0.28096786  0.60569928  1
  O  O392  1  0.36585967  0.28321081  0.94639393  1
  O  O393  1  0.36660980  0.77308388  0.26700246  1
  O  O394  1  0.36059281  0.77269735  0.60736977  1
  O  O395  1  0.36264148  0.77869229  0.94390932  1
  O  O396  1  0.85912674  0.27407309  0.27050448  1
  O  O397  1  0.85276742  0.29745663  0.62247080  1
  O  O398  1  0.86556004  0.28170505  0.94424146  1
  O  O399  1  0.85826807  0.77139949  0.27451636  1
  O  O400  1  0.86121617  0.76767201  0.60057098  1
  O  O401  1  0.85560448  0.77458747  0.93793510  1
  O  O402  1  0.21262859  0.14141329  0.21994783  1
  O  O403  1  0.23164972  0.13163174  0.57057241  1
  O  O404  1  0.22319410  0.14349515  0.89530188  1
  O  O405  1  0.21821735  0.63309163  0.21686521  1
  O  O406  1  0.22039382  0.64463838  0.55608340  1
  O  O407  1  0.21527458  0.63685929  0.89499957  1
  O  O408  1  0.72656824  0.13232978  0.22206785  1
  O  O409  1  0.74159996  0.13926960  0.56244180  1
  O  O410  1  0.72198647  0.13679397  0.88885740  1
  O  O411  1  0.72120730  0.63669146  0.22569314  1
  O  O412  1  0.71563420  0.63757949  0.55339284  1
  O  O413  1  0.72357587  0.63461929  0.89535313  1
  O  O414  1  0.49498299  0.34842619  0.03592382  1
  O  O415  1  0.49478650  0.34181699  0.36557694  1
  O  O416  1  0.49893540  0.34493766  0.68959098  1
  O  O417  1  0.49408914  0.83074938  0.03195724  1
  O  O418  1  0.49276404  0.82852159  0.35956394  1
  O  O419  1  0.49044076  0.82642368  0.69701656  1
  O  O420  1  0.99641936  0.33706303  0.03103588  1
  O  O421  1  0.98757454  0.32920863  0.36256427  1
  O  O422  1  0.98910586  0.33808252  0.69864478  1
  O  O423  1  0.98496758  0.83004096  0.02791489  1
  O  O424  1  0.98797915  0.82857700  0.36383784  1
  O  O425  1  0.98751370  0.82438791  0.69467224  1
  O  O426  1  0.16296591  0.00808231  0.13413734  1
  O  O427  1  0.15891822  0.00732410  0.48190515  1
  O  O428  1  0.17309599  0.01151058  0.80782447  1
  O  O429  1  0.16016123  0.50153365  0.13584729  1
  O  O430  1  0.17494065  0.51104370  0.47294192  1
  O  O431  1  0.17004595  0.50821358  0.80198844  1
  O  O432  1  0.65568507  0.00486099  0.13469337  1
  O  O433  1  0.67032148  0.01606609  0.46912437  1
  O  O434  1  0.66265992  0.00955952  0.79467622  1
  O  O435  1  0.66923767  0.50548737  0.13817184  1
  O  O436  1  0.66272449  0.50580096  0.46961474  1
  O  O437  1  0.66753381  0.50577885  0.80584455  1
  O  O438  1  0.00335887  0.16463544  0.29948755  1
  O  O439  1  0.00729833  0.17270809  0.64846209  1
  O  O440  1  0.01188640  0.17297713  0.97107470  1
  O  O441  1  0.00672127  0.66285438  0.30244951  1
  O  O442  1  0.00815631  0.65808327  0.62861634  1
  O  O443  1  0.00025022  0.65444679  0.96944139  1
  O  O444  1  0.51479840  0.18077271  0.30381524  1
  O  O445  1  0.51288880  0.17448521  0.63770259  1
  O  O446  1  0.50842354  0.17878904  0.96958894  1
  O  O447  1  0.50797161  0.66215476  0.30175505  1
  O  O448  1  0.50401392  0.66191540  0.63532025  1
  O  O449  1  0.50722108  0.66292700  0.97081443  1
  O  O450  1  0.32582975  0.49996088  0.19622433  1
  O  O451  1  0.34138267  0.50190140  0.52122122  1
  O  O452  1  0.32917248  0.49274156  0.86463130  1
  O  O453  1  0.32978391  0.99126790  0.18612478  1
  O  O454  1  0.33518414  0.99033986  0.54019843  1
  O  O455  1  0.33734157  0.99411322  0.86539902  1
  O  O456  1  0.83638808  0.49098333  0.19853747  1
  O  O457  1  0.83096084  0.49205122  0.53034106  1
  O  O458  1  0.83225926  0.49237122  0.86522084  1
  O  O459  1  0.82726530  0.98729970  0.19576114  1
  O  O460  1  0.83127672  0.98753659  0.52995535  1
  O  O461  1  0.82938716  0.99079329  0.86381789  1
