# generated using pymatgen
data_Na31Fe20(SO4)36
_symmetry_space_group_name_H-M   'P 1'
_cell_length_a   18.07313195
_cell_length_b   18.07420068
_cell_length_c   19.71054802
_cell_angle_alpha   107.57040178
_cell_angle_beta   107.59217011
_cell_angle_gamma   90.75363045
_symmetry_Int_Tables_number   1
_chemical_formula_structural   Na31Fe20(SO4)36
_chemical_formula_sum   'Na62 Fe40 S72 O288'
_cell_volume   5812.40931285
_cell_formula_units_Z   2
loop_
 _symmetry_equiv_pos_site_id
 _symmetry_equiv_pos_as_xyz
  1  'x, y, z'
loop_
 _atom_site_type_symbol
 _atom_site_label
 _atom_site_symmetry_multiplicity
 _atom_site_fract_x
 _atom_site_fract_y
 _atom_site_fract_z
 _atom_site_occupancy
  Na  Na0  1  0.11795897  0.34897823  0.05417123  1
  Na  Na1  1  0.13431983  0.37316362  0.42290791  1
  Na  Na2  1  0.13751760  0.36053898  0.75266301  1
  Na  Na3  1  0.13390667  0.87046382  0.08665871  1
  Na  Na4  1  0.13489236  0.86681267  0.41546765  1
  Na  Na5  1  0.13202436  0.86385523  0.74587888  1
  Na  Na6  1  0.63796046  0.36560341  0.08332308  1
  Na  Na7  1  0.62814283  0.35624045  0.40538282  1
  Na  Na8  1  0.64012021  0.35877927  0.75306350  1
  Na  Na9  1  0.63666813  0.86902652  0.09129744  1
  Na  Na10  1  0.63365227  0.85736604  0.41133770  1
  Na  Na11  1  0.63967699  0.86599907  0.74801694  1
  Na  Na12  1  0.36949833  0.13948325  0.24952055  1
  Na  Na13  1  0.36402402  0.13699281  0.58333493  1
  Na  Na14  1  0.36235832  0.14101452  0.91805929  1
  Na  Na15  1  0.36665582  0.64612208  0.25801938  1
  Na  Na16  1  0.35625402  0.63683879  0.58407002  1
  Na  Na17  1  0.36610938  0.63846994  0.91943359  1
  Na  Na18  1  0.86756540  0.11728199  0.24972656  1
  Na  Na19  1  0.88205304  0.14734302  0.60536948  1
  Na  Na20  1  0.86286503  0.13385075  0.90334093  1
  Na  Na21  1  0.85367864  0.62536323  0.23320594  1
  Na  Na22  1  0.86493710  0.62775385  0.57893190  1
  Na  Na23  1  0.86839874  0.62720594  0.91697829  1
  Na  Na24  1  0.51192733  0.49831868  0.07953208  1
  Na  Na25  1  0.48966634  0.05081335  0.09440846  1
  Na  Na26  1  0.45682764  0.50762086  0.74205968  1
  Na  Na27  1  0.48765290  0.52124467  0.41751695  1
  Na  Na28  1  1.00535206  0.48164266  0.76324530  1
  Na  Na29  1  1.00512663  0.06480201  0.76974412  1
  Na  Na30  1  0.51373327  -0.00347459  0.74581256  1
  Na  Na31  1  0.50791699  -0.00939097  0.41761872  1
  Na  Na32  1  0.94911992  -0.00292444  0.40443359  1
  Na  Na33  1  0.01115186  0.49294821  0.24702167  1
  Na  Na34  1  0.49042838  0.50209741  0.58507457  1
  Na  Na35  1  0.01800864  0.49451828  0.57261138  1
  Na  Na36  1  0.52589485  0.97244697  0.58006722  1
  Na  Na37  1  0.51053244  0.99225062  0.91702852  1
  Na  Na38  1  -0.00127136  0.45134620  0.92115593  1
  Na  Na39  1  0.53675940  0.49081824  0.92185469  1
  Na  Na40  1  0.51128402  0.99817574  0.24918962  1
  Na  Na41  1  0.50988641  0.48286699  0.24673460  1
  Na  Na42  1  0.24644809  0.25129651  0.66942310  1
  Na  Na43  1  0.74691903  0.23170536  0.69558251  1
  Na  Na44  1  0.73734375  0.23685698  0.33556346  1
  Na  Na45  1  0.75800072  0.75501613  0.65975796  1
  Na  Na46  1  0.25466549  0.25853697  0.32846640  1
  Na  Na47  1  0.75570528  0.74727207  -0.00404587  1
  Na  Na48  1  0.75724813  0.75658187  0.32240053  1
  Na  Na49  1  0.26535009  0.76493157  0.32804135  1
  Na  Na50  1  0.24173292  0.74505076  0.01147769  1
  Na  Na51  1  0.75594849  0.25163587  -0.01355975  1
  Na  Na52  1  0.75635315  0.75667702  0.82921278  1
  Na  Na53  1  0.75639757  0.75980053  0.16166722  1
  Na  Na54  1  0.25643072  0.26104323  0.49966043  1
  Na  Na55  1  0.25099175  0.25836690  0.14790085  1
  Na  Na56  1  0.21994319  0.23789217  0.85715297  1
  Na  Na57  1  0.75332661  0.75650262  0.49515523  1
  Na  Na58  1  0.74656356  0.24109076  0.51260428  1
  Na  Na59  1  0.74541596  0.24778681  0.16908301  1
  Na  Na60  1  0.25628075  0.75696235  0.82295325  1
  Na  Na61  1  0.24617088  0.74302992  0.50662970  1
  Fe  Fe62  1  0.96564366  0.80714174  0.45490396  1
  Fe  Fe63  1  0.96218942  0.30443526  0.11677982  1
  Fe  Fe64  1  0.96647264  0.80907494  0.12319381  1
  Fe  Fe65  1  0.96363068  0.30829464  0.45117156  1
  Fe  Fe66  1  0.46810393  0.30513027  0.45187348  1
  Fe  Fe67  1  0.46313861  0.80976277  0.11862829  1
  Fe  Fe68  1  0.46468840  0.30483293  0.78305869  1
  Fe  Fe69  1  0.46551859  0.29945239  0.11770641  1
  Fe  Fe70  1  0.46458651  0.80887595  0.78347330  1
  Fe  Fe71  1  0.96799078  0.80851600  0.79141263  1
  Fe  Fe72  1  0.19263792  0.03141075  0.71157662  1
  Fe  Fe73  1  0.68948640  0.53442537  0.71287416  1
  Fe  Fe74  1  0.19590383  0.53879995  0.05095244  1
  Fe  Fe75  1  0.69352172  0.03182011  0.05157526  1
  Fe  Fe76  1  0.20327890  0.53136137  0.71115756  1
  Fe  Fe77  1  0.18983920  0.03532616  0.37480093  1
  Fe  Fe78  1  0.19516980  0.53242499  0.38344053  1
  Fe  Fe79  1  0.70089102  0.03145945  0.37839842  1
  Fe  Fe80  1  0.17959887  0.03843195  0.03850453  1
  Fe  Fe81  1  0.69100204  0.53577139  0.38182734  1
  Fe  Fe82  1  0.53461913  0.69386625  0.88353812  1
  Fe  Fe83  1  0.03545886  0.19534360  0.54730554  1
  Fe  Fe84  1  0.03338226  0.18814155  0.21064558  1
  Fe  Fe85  1  0.53109452  0.70266457  0.54667238  1
  Fe  Fe86  1  0.53214890  0.69442831  0.21631794  1
  Fe  Fe87  1  0.03681362  0.69021747  0.54594297  1
  Fe  Fe88  1  0.53721197  0.18734752  0.54922911  1
  Fe  Fe89  1  0.53705996  0.18762182  0.87683655  1
  Fe  Fe90  1  0.03812560  0.68858318  0.21125998  1
  Fe  Fe91  1  0.03496312  0.69008653  0.88036692  1
  Fe  Fe92  1  0.30624956  0.46520506  0.28359221  1
  Fe  Fe93  1  0.30584812  0.96485225  0.61349419  1
  Fe  Fe94  1  0.79769667  0.46901105  0.95945214  1
  Fe  Fe95  1  0.80568842  0.97001508  0.63144419  1
  Fe  Fe96  1  0.30764964  0.96434717  0.28237570  1
  Fe  Fe97  1  0.31180253  0.46631954  0.95504100  1
  Fe  Fe98  1  0.81009161  0.46258190  0.62280659  1
  Fe  Fe99  1  0.30893146  0.96642995  0.95151566  1
  Fe  Fe100  1  0.80801137  0.46625661  0.28822219  1
  Fe  Fe101  1  0.81038368  0.96645531  0.95661938  1
  S  S102  1  0.35246182  0.14184037  0.07951520  1
  S  S103  1  0.35873226  0.14118659  0.41346813  1
  S  S104  1  0.35890015  0.13860614  0.74952885  1
  S  S105  1  0.36076995  0.64123193  0.08380787  1
  S  S106  1  0.35876708  0.64029748  0.41816468  1
  S  S107  1  0.36227326  0.64607787  0.75198867  1
  S  S108  1  0.85552595  0.14070663  0.08584762  1
  S  S109  1  0.86037392  0.14462785  0.42077861  1
  S  S110  1  0.86148629  0.13901753  0.74862961  1
  S  S111  1  0.86032261  0.64062133  0.08498795  1
  S  S112  1  0.85914203  0.64064033  0.41776190  1
  S  S113  1  0.85822141  0.63928870  0.74908596  1
  S  S114  1  0.13866628  0.35994478  0.24911722  1
  S  S115  1  0.14090770  0.36202316  0.58226283  1
  S  S116  1  0.14181424  0.37048914  0.91621109  1
  S  S117  1  0.14206533  0.85794769  0.24982644  1
  S  S118  1  0.14101021  0.85764036  0.58007160  1
  S  S119  1  0.14383323  0.85619679  0.91722310  1
  S  S120  1  0.63921335  0.36099843  0.24964400  1
  S  S121  1  0.64176543  0.35712518  0.58321447  1
  S  S122  1  0.63691032  0.35709439  0.91663806  1
  S  S123  1  0.63802633  0.85892951  0.25203373  1
  S  S124  1  0.64424957  0.85885016  0.58369549  1
  S  S125  1  0.63969396  0.85785163  0.91641284  1
  S  S126  1  0.05902194  0.17129400  0.04391394  1
  S  S127  1  0.06973729  0.17597974  0.37779179  1
  S  S128  1  0.08105067  0.17025958  0.70773693  1
  S  S129  1  0.06965473  0.66971999  0.04101983  1
  S  S130  1  0.06749499  0.66824643  0.37486150  1
  S  S131  1  0.06785490  0.66602122  0.70879507  1
  S  S132  1  0.56468660  0.16864028  0.03978752  1
  S  S133  1  0.56532098  0.16421402  0.37811210  1
  S  S134  1  0.55892373  0.16243799  0.70485614  1
  S  S135  1  0.56259828  0.67040272  0.04465440  1
  S  S136  1  0.56502138  0.66505268  0.37598581  1
  S  S137  1  0.56601966  0.67251487  0.70863964  1
  S  S138  1  0.33512940  0.43540878  0.12665110  1
  S  S139  1  0.33600973  0.43499413  0.45827289  1
  S  S140  1  0.33687359  0.43638947  0.79474859  1
  S  S141  1  0.33183518  0.93665764  0.12226908  1
  S  S142  1  0.33460085  0.94319103  0.45672811  1
  S  S143  1  0.33216392  0.93498579  0.79135771  1
  S  S144  1  0.82666735  0.42948494  0.12489834  1
  S  S145  1  0.82429654  0.43074992  0.45603087  1
  S  S146  1  0.82627590  0.43739093  0.79172842  1
  S  S147  1  0.82643654  0.92778664  0.12014152  1
  S  S148  1  0.82682962  0.92801539  0.46238417  1
  S  S149  1  0.83140569  0.92719018  0.79290931  1
  S  S150  1  0.43125187  0.33448571  0.28967237  1
  S  S151  1  0.44082478  0.33107886  0.62274080  1
  S  S152  1  0.43284526  0.32903004  0.95564765  1
  S  S153  1  0.43621568  0.83679767  0.29119628  1
  S  S154  1  0.43542972  0.83445097  0.62441700  1
  S  S155  1  0.43684228  0.83630455  0.95917609  1
  S  S156  1  0.93101299  0.33076938  0.29023603  1
  S  S157  1  0.93816926  0.33797360  0.62416723  1
  S  S158  1  0.92224518  0.33475860  0.96047623  1
  S  S159  1  0.93346928  0.82278578  0.28877189  1
  S  S160  1  0.92851279  0.82465467  0.62473112  1
  S  S161  1  0.93056428  0.82282758  0.95570887  1
  S  S162  1  0.17546266  0.07070943  0.21014896  1
  S  S163  1  0.17024819  0.06921481  0.53886474  1
  S  S164  1  0.17216392  0.06178211  0.87715007  1
  S  S165  1  0.17483255  0.56821737  0.21377427  1
  S  S166  1  0.16813612  0.56952404  0.54216242  1
  S  S167  1  0.17618217  0.57180559  0.87507349  1
  S  S168  1  0.66618961  0.06351356  0.21073627  1
  S  S169  1  0.67492648  0.06296842  0.54302720  1
  S  S170  1  0.66601620  0.05922638  0.87780046  1
  S  S171  1  0.66269598  0.56579829  0.21033041  1
  S  S172  1  0.66419086  0.56581595  0.54229707  1
  S  S173  1  0.66335392  0.56425599  0.87105546  1
  O  O174  1  0.36373039  0.22151122  0.07361452  1
  O  O175  1  0.37111577  0.22045590  0.40550138  1
  O  O176  1  0.36651887  0.21722886  0.73963828  1
  O  O177  1  0.36925765  0.71791590  0.07077618  1
  O  O178  1  0.36369895  0.71522551  0.40599600  1
  O  O179  1  0.36962368  0.72834818  0.75139630  1
  O  O180  1  0.86244719  0.22125473  0.08058151  1
  O  O181  1  0.86651484  0.22416901  0.41218502  1
  O  O182  1  0.87493780  0.20649314  0.72508575  1
  O  O183  1  0.87378116  0.71865011  0.07459436  1
  O  O184  1  0.86580963  0.72110338  0.41189875  1
  O  O185  1  0.86970392  0.71899086  0.74342928  1
  O  O186  1  0.27022608  0.13109040  0.07943342  1
  O  O187  1  0.27833132  0.13608697  0.41942125  1
  O  O188  1  0.28168492  0.12820046  0.75978767  1
  O  O189  1  0.28104112  0.63238680  0.08916788  1
  O  O190  1  0.28097983  0.62608402  0.42843583  1
  O  O191  1  0.28306486  0.63292161  0.75806985  1
  O  O192  1  0.77686353  0.13013428  0.09513389  1
  O  O193  1  0.77990464  0.13430587  0.42621369  1
  O  O194  1  0.78188730  0.12977787  0.75096833  1
  O  O195  1  0.78779173  0.63810734  0.10293645  1
  O  O196  1  0.78184655  0.63016218  0.42973738  1
  O  O197  1  0.77881752  0.63239668  0.75730833  1
  O  O198  1  0.12989598  0.28154041  0.25788408  1
  O  O199  1  0.12888626  0.28231757  0.58916078  1
  O  O200  1  0.13288429  0.29449536  0.92573928  1
  O  O201  1  0.13367444  0.77954813  0.25974442  1
  O  O202  1  0.13089017  0.77767408  0.58479479  1
  O  O203  1  0.13238969  0.77733096  0.92523309  1
  O  O204  1  0.63422874  0.28622556  0.26261348  1
  O  O205  1  0.63600839  0.27850658  0.59267482  1
  O  O206  1  0.62991907  0.27534867  0.91989034  1
  O  O207  1  0.62269219  0.78267769  0.26535285  1
  O  O208  1  0.63536833  0.77612547  0.58561281  1
  O  O209  1  0.63109238  0.77796932  0.92354604  1
  O  O210  1  0.21817408  0.36838653  0.24131653  1
  O  O211  1  0.21543540  0.36961131  0.56959050  1
  O  O212  1  0.22239521  0.38027783  0.90820451  1
  O  O213  1  0.22118943  0.86853997  0.24303346  1
  O  O214  1  0.21930083  0.86807382  0.56987603  1
  O  O215  1  0.22354122  0.86392681  0.91022599  1
  O  O216  1  0.71740172  0.37507357  0.24048144  1
  O  O217  1  0.72116453  0.36967583  0.57684911  1
  O  O218  1  0.71715909  0.37144369  0.91366707  1
  O  O219  1  0.71512354  0.86016446  0.24297570  1
  O  O220  1  0.72987747  0.86848142  0.58681771  1
  O  O221  1  0.71865842  0.86682253  0.90907085  1
  O  O222  1  0.40715844  0.13265782  0.14764483  1
  O  O223  1  0.41526402  0.13274635  0.48231620  1
  O  O224  1  0.41986987  0.13208283  0.81723309  1
  O  O225  1  0.41774118  0.63669907  0.15442930  1
  O  O226  1  0.41908624  0.63532849  0.48804997  1
  O  O227  1  0.42021439  0.63674127  0.82164261  1
  O  O228  1  0.91486602  0.13264674  0.15338458  1
  O  O229  1  0.91738094  0.14037997  0.49230000  1
  O  O230  1  0.92041765  0.13587076  0.81722292  1
  O  O231  1  0.92577193  0.62755261  0.14600386  1
  O  O232  1  0.92024299  0.63247942  0.48425616  1
  O  O233  1  0.91710347  0.62796667  0.81543445  1
  O  O234  1  0.36643444  0.08382295  0.01259231  1
  O  O235  1  0.36702735  0.08187764  0.34608161  1
  O  O236  1  0.36628423  0.07928390  0.68126414  1
  O  O237  1  0.37304234  0.57989616  0.01903531  1
  O  O238  1  0.36999440  0.57710056  0.35318481  1
  O  O239  1  0.37533635  0.59143262  0.68598154  1
  O  O240  1  0.86128178  0.08413813  0.01606707  1
  O  O241  1  0.87295103  0.08586682  0.35704084  1
  O  O242  1  0.87386050  0.06747615  0.68358290  1
  O  O243  1  0.85572602  0.58113581  0.01143947  1
  O  O244  1  0.86371101  0.58389816  0.34743226  1
  O  O245  1  0.86311394  0.58130089  0.67905221  1
  O  O246  1  0.07934194  0.37032824  0.18289270  1
  O  O247  1  0.07655535  0.37429731  0.51847073  1
  O  O248  1  0.08439398  0.38404287  0.85136887  1
  O  O249  1  0.08295881  0.86300042  0.18059960  1
  O  O250  1  0.08094114  0.86732143  0.51349033  1
  O  O251  1  0.08578304  0.86174226  0.84756860  1
  O  O252  1  0.57902722  0.36537739  0.17965723  1
  O  O253  1  0.58387095  0.36181678  0.51254463  1
  O  O254  1  0.58038707  0.36400264  0.84569287  1
  O  O255  1  0.57789711  0.86813392  0.18453672  1
  O  O256  1  0.59422632  0.86868008  0.51389561  1
  O  O257  1  0.58086532  0.86602990  0.84797079  1
  O  O258  1  0.13181713  0.41955492  0.31819395  1
  O  O259  1  0.13694554  0.41985067  0.65362123  1
  O  O260  1  0.13608194  0.43192643  0.98639007  1
  O  O261  1  0.13301933  0.91769163  0.31694880  1
  O  O262  1  0.13709852  0.91479403  0.65043226  1
  O  O263  1  0.13623542  0.91565887  0.98493057  1
  O  O264  1  0.62743964  0.42418949  0.31456776  1
  O  O265  1  0.62946440  0.41655883  0.64862848  1
  O  O266  1  0.62133045  0.41215641  0.98125207  1
  O  O267  1  0.63144663  0.92173264  0.31886594  1
  O  O268  1  0.62993010  0.91301246  0.64935045  1
  O  O269  1  0.62879213  0.91561235  0.98357480  1
  O  O270  1  0.02638423  0.20336117  0.11043688  1
  O  O271  1  0.02992388  0.20387852  0.43694052  1
  O  O272  1  0.05509668  0.19001039  0.77309481  1
  O  O273  1  0.03404428  0.70018073  0.10235785  1
  O  O274  1  0.02828224  0.69709164  0.43408723  1
  O  O275  1  0.02929397  0.69346329  0.76874401  1
  O  O276  1  0.52683316  0.19615512  0.09839450  1
  O  O277  1  0.53424298  0.19672274  0.44410793  1
  O  O278  1  0.52418460  0.19936059  0.76705899  1
  O  O279  1  0.52893904  0.70720727  0.10725060  1
  O  O280  1  0.53161236  0.68770446  0.43747105  1
  O  O281  1  0.53091828  0.70162304  0.77067911  1
  O  O282  1  0.30427645  0.47234788  0.06622481  1
  O  O283  1  0.29986758  0.46323424  0.39171350  1
  O  O284  1  0.31110117  0.47435350  0.73594521  1
  O  O285  1  0.30384122  0.97308679  0.06163910  1
  O  O286  1  0.29617946  0.97634859  0.39377495  1
  O  O287  1  0.30054891  0.96724470  0.72763553  1
  O  O288  1  0.80273819  0.46684996  0.06594023  1
  O  O289  1  0.79611682  0.46864033  0.39552195  1
  O  O290  1  0.79302300  0.47531615  0.73061721  1
  O  O291  1  0.79461690  0.96392449  0.05691073  1
  O  O292  1  0.80258634  0.97100453  0.40771285  1
  O  O293  1  0.80677233  0.96224655  0.73169583  1
  O  O294  1  0.46464869  0.31258656  0.22809689  1
  O  O295  1  0.47484053  0.29257376  0.56075035  1
  O  O296  1  0.46939049  0.29978636  0.89473852  1
  O  O297  1  0.46215405  0.79940006  0.22330150  1
  O  O298  1  0.47392113  0.80719675  0.56663154  1
  O  O299  1  0.47389042  0.80573305  0.89884683  1
  O  O300  1  0.96839424  0.29942492  0.23039931  1
  O  O301  1  0.96904107  0.30403636  0.55908527  1
  O  O302  1  0.95926549  0.32021305  0.90282470  1
  O  O303  1  0.97285200  0.79014677  0.22957063  1
  O  O304  1  0.96818618  0.80092320  0.56553237  1
  O  O305  1  0.96943731  0.79302813  0.89558991  1
  O  O306  1  0.20495457  0.02952503  0.26845370  1
  O  O307  1  0.20030794  0.03084636  0.59866413  1
  O  O308  1  0.20586577  0.02016250  0.93510807  1
  O  O309  1  0.20394306  0.52925870  0.27377398  1
  O  O310  1  0.19332218  0.53728396  0.60465369  1
  O  O311  1  0.20720069  0.53990799  0.93860002  1
  O  O312  1  0.70232123  0.03122444  0.27207659  1
  O  O313  1  0.70510835  0.02346617  0.60054965  1
  O  O314  1  0.69745924  0.02771437  0.94323414  1
  O  O315  1  0.69922841  0.53752580  0.27676905  1
  O  O316  1  0.69438034  0.52892920  0.60264050  1
  O  O317  1  0.69238926  0.52740755  0.93037866  1
  O  O318  1  0.08268712  0.09273173  0.04494978  1
  O  O319  1  0.09218760  0.09717892  0.37585618  1
  O  O320  1  0.09615825  0.08566773  0.68833249  1
  O  O321  1  0.08994656  0.58950745  0.03762829  1
  O  O322  1  0.08858173  0.58776987  0.37084924  1
  O  O323  1  0.08907664  0.58531042  0.70387590  1
  O  O324  1  0.58261015  0.08608711  0.03561884  1
  O  O325  1  0.58691005  0.08349809  0.37637852  1
  O  O326  1  0.56672856  0.08049973  0.70010034  1
  O  O327  1  0.56983661  0.58807548  0.03881590  1
  O  O328  1  0.57934670  0.57987083  0.36254953  1
  O  O329  1  0.58078441  0.58920806  0.70024433  1
  O  O330  1  0.41587696  0.41517018  0.12742409  1
  O  O331  1  0.41755965  0.41515055  0.45845724  1
  O  O332  1  0.41993619  0.41758195  0.80045128  1
  O  O333  1  0.41469394  0.91917763  0.12872991  1
  O  O334  1  0.41721660  0.93781197  0.46240000  1
  O  O335  1  0.41503344  0.91860749  0.79625394  1
  O  O336  1  0.90932762  0.41144707  0.13945052  1
  O  O337  1  0.90619113  0.41404868  0.46328616  1
  O  O338  1  0.90949872  0.43315673  0.80039423  1
  O  O339  1  0.90295782  0.90159985  0.11609408  1
  O  O340  1  0.90813416  0.90917157  0.46603770  1
  O  O341  1  0.91249622  0.90729035  0.80280096  1
  O  O342  1  0.41707075  0.41965731  0.30468454  1
  O  O343  1  0.43383769  0.41297656  0.62620457  1
  O  O344  1  0.42058807  0.41333714  0.96470062  1
  O  O345  1  0.41631113  0.91807169  0.28959747  1
  O  O346  1  0.41630805  0.91673262  0.62891075  1
  O  O347  1  0.42135136  0.91910939  0.96365891  1
  O  O348  1  0.91330568  0.41185642  0.29296157  1
  O  O349  1  0.91871946  0.42019210  0.62517990  1
  O  O350  1  0.89601844  0.41654085  0.97174415  1
  O  O351  1  0.91462190  0.90088040  0.29004930  1
  O  O352  1  0.90278054  0.90321334  0.63118774  1
  O  O353  1  0.90674002  0.90027755  0.95591375  1
  O  O354  1  0.09743307  0.09236801  0.21127938  1
  O  O355  1  0.08941461  0.08832637  0.53238713  1
  O  O356  1  0.09553994  0.08015925  0.88119190  1
  O  O357  1  0.09321745  0.58449561  0.21030655  1
  O  O358  1  0.08403410  0.58460303  0.53069511  1
  O  O359  1  0.09278110  0.58641886  0.86694778  1
  O  O360  1  0.58377305  0.07336911  0.20523943  1
  O  O361  1  0.59185247  0.07834189  0.53986626  1
  O  O362  1  0.58335392  0.07895242  0.87534788  1
  O  O363  1  0.58097779  0.58518990  0.21045207  1
  O  O364  1  0.58320943  0.58562409  0.53974212  1
  O  O365  1  0.58086073  0.58235344  0.86761203  1
  O  O366  1  0.12886255  0.22550428  0.06036986  1
  O  O367  1  0.13860988  0.23231296  0.39538440  1
  O  O368  1  0.15323131  0.22197192  0.72207061  1
  O  O369  1  0.13753520  0.72376877  0.05344130  1
  O  O370  1  0.13763741  0.72299175  0.39294126  1
  O  O371  1  0.13601900  0.72171959  0.72536457  1
  O  O372  1  0.63647441  0.21966888  0.05550069  1
  O  O373  1  0.63618190  0.21701523  0.39286134  1
  O  O374  1  0.63135603  0.21035584  0.71887568  1
  O  O375  1  0.63682441  0.71686342  0.05881885  1
  O  O376  1  0.63850273  0.71382186  0.39219963  1
  O  O377  1  0.63871920  0.72248459  0.72518497  1
  O  O378  1  0.28232853  0.36747705  0.11489738  1
  O  O379  1  0.28649675  0.36357661  0.44728399  1
  O  O380  1  0.28525692  0.36506491  0.77791689  1
  O  O381  1  0.28034254  0.86564994  0.10639653  1
  O  O382  1  0.28928782  0.86789392  0.44172584  1
  O  O383  1  0.28212417  0.86523548  0.78062868  1
  O  O384  1  0.77337969  0.35770357  0.10556548  1
  O  O385  1  0.77144250  0.35955976  0.43786687  1
  O  O386  1  0.77932305  0.36216907  0.77015097  1
  O  O387  1  0.76991998  0.85779885  0.10221057  1
  O  O388  1  0.77306233  0.85510128  0.43915051  1
  O  O389  1  0.77690616  0.85558538  0.77380197  1
  O  O390  1  0.35752683  0.28470796  0.27144678  1
  O  O391  1  0.36546865  0.28558909  0.60769771  1
  O  O392  1  0.35969153  0.28046021  0.93792408  1
  O  O393  1  0.36743201  0.78832820  0.28508364  1
  O  O394  1  0.36546068  0.78234744  0.61031172  1
  O  O395  1  0.36434263  0.78610239  0.94229286  1
  O  O396  1  0.85981057  0.27918839  0.27580941  1
  O  O397  1  0.86676294  0.28854840  0.61168687  1
  O  O398  1  0.85626163  0.27711530  0.94571107  1
  O  O399  1  0.86321611  0.76735616  0.27144319  1
  O  O400  1  0.86053009  0.76569865  0.60466761  1
  O  O401  1  0.86132224  0.76604173  0.93786444  1
  O  O402  1  0.23101727  0.14039775  0.22841425  1
  O  O403  1  0.22403248  0.14055394  0.55690824  1
  O  O404  1  0.22765668  0.12998879  0.89308561  1
  O  O405  1  0.22663934  0.64003822  0.23300635  1
  O  O406  1  0.21807864  0.64087252  0.55569858  1
  O  O407  1  0.22544062  0.64474439  0.88991108  1
  O  O408  1  0.71305294  0.13732943  0.22266135  1
  O  O409  1  0.72426304  0.13681313  0.56179342  1
  O  O410  1  0.71631650  0.12958418  0.89082179  1
  O  O411  1  0.71134154  0.63693971  0.21982109  1
  O  O412  1  0.71768777  0.63539473  0.55684151  1
  O  O413  1  0.71396627  0.63597086  0.88532255  1
  O  O414  1  0.49112410  0.32818402  0.02809565  1
  O  O415  1  0.49002871  0.32844197  0.35944477  1
  O  O416  1  0.49687581  0.32892929  0.69569531  1
  O  O417  1  0.49457924  0.83785436  0.03206892  1
  O  O418  1  0.50195006  0.84777083  0.35978568  1
  O  O419  1  0.49438706  0.84175960  0.70032599  1
  O  O420  1  0.98324606  0.33999343  0.03494354  1
  O  O421  1  0.98995474  0.33466479  0.36393881  1
  O  O422  1  1.00035169  0.34644452  0.69454458  1
  O  O423  1  0.99009679  0.82661888  0.02795200  1
  O  O424  1  0.99097738  0.82532445  0.36328173  1
  O  O425  1  0.98802483  0.82650844  0.69694458  1
  O  O426  1  0.17122559  0.01317069  0.13633504  1
  O  O427  1  0.16914787  0.01049656  0.46630762  1
  O  O428  1  0.16635059  0.00425894  0.80128217  1
  O  O429  1  0.17441064  0.51070067  0.14162368  1
  O  O430  1  0.17057758  0.50791881  0.47201081  1
  O  O431  1  0.17614109  0.51143232  0.80387949  1
  O  O432  1  0.66631426  0.00549835  0.13674756  1
  O  O433  1  0.67040353  0.00765518  0.46779774  1
  O  O434  1  0.65744227  -0.00306580  0.80754641  1
  O  O435  1  0.65304796  0.50221571  0.14053506  1
  O  O436  1  0.65830483  0.50662158  0.46818080  1
  O  O437  1  0.65723754  0.50627411  0.79619705  1
  O  O438  1  0.01074559  0.17160871  0.30454821  1
  O  O439  1  0.01885087  0.17738776  0.63989200  1
  O  O440  1  -0.00315908  0.16769195  0.97628577  1
  O  O441  1  0.00907064  0.66274414  0.30082518  1
  O  O442  1  0.00823180  0.66119013  0.63486837  1
  O  O443  1  0.00800015  0.66318901  0.96745506  1
  O  O444  1  0.50325350  0.15863473  0.30890794  1
  O  O445  1  0.50039496  0.16412653  0.63201321  1
  O  O446  1  0.50673676  0.16410317  0.96527900  1
  O  O447  1  0.50548855  0.67021466  0.30639573  1
  O  O448  1  0.50678897  0.67357989  0.63731649  1
  O  O449  1  0.50459062  0.67404278  0.97270777  1
  O  O450  1  0.34385360  0.49669844  0.20089601  1
  O  O451  1  0.34456769  0.49836597  0.52784587  1
  O  O452  1  0.34135563  0.49461416  0.86906305  1
  O  O453  1  0.33457711  0.99575506  0.19514454  1
  O  O454  1  0.33032756  0.99957801  0.52888834  1
  O  O455  1  0.33744947  0.99713808  0.86348981  1
  O  O456  1  0.82303267  0.48877574  0.19609458  1
  O  O457  1  0.82335070  0.48975253  0.52762256  1
  O  O458  1  0.81834139  0.49104943  0.86368953  1
  O  O459  1  0.83293027  0.98672730  0.19069903  1
  O  O460  1  0.82779848  0.98016518  0.53784108  1
  O  O461  1  0.82779315  0.98609239  0.86314435  1
