# generated using pymatgen
data_Na31Fe20(SO4)36
_symmetry_space_group_name_H-M   'P 1'
_cell_length_a   18.07250043
_cell_length_b   18.06648580
_cell_length_c   19.70019518
_cell_angle_alpha   107.54224943
_cell_angle_beta   107.59414244
_cell_angle_gamma   90.72425854
_symmetry_Int_Tables_number   1
_chemical_formula_structural   Na31Fe20(SO4)36
_chemical_formula_sum   'Na62 Fe40 S72 O288'
_cell_volume   5808.00201237
_cell_formula_units_Z   2
loop_
 _symmetry_equiv_pos_site_id
 _symmetry_equiv_pos_as_xyz
  1  'x, y, z'
loop_
 _atom_site_type_symbol
 _atom_site_label
 _atom_site_symmetry_multiplicity
 _atom_site_fract_x
 _atom_site_fract_y
 _atom_site_fract_z
 _atom_site_occupancy
  Na  Na0  1  0.13383805  0.36578184  0.08051867  1
  Na  Na1  1  0.14021018  0.37003931  0.42142199  1
  Na  Na2  1  0.13448738  0.35806006  0.74390629  1
  Na  Na3  1  0.12135500  0.87143870  0.07924746  1
  Na  Na4  1  0.11631885  0.87801102  0.42552163  1
  Na  Na5  1  0.15940013  0.85588600  0.76438499  1
  Na  Na6  1  0.63707620  0.36592057  0.08221273  1
  Na  Na7  1  0.63587255  0.36528931  0.41964370  1
  Na  Na8  1  0.63642410  0.35955670  0.74842419  1
  Na  Na9  1  0.62793715  0.86193387  0.06505190  1
  Na  Na10  1  0.63326729  0.84963972  0.40712291  1
  Na  Na11  1  0.63893719  0.87982432  0.75683804  1
  Na  Na12  1  0.36996201  0.13385666  0.25337460  1
  Na  Na13  1  0.36895499  0.13055050  0.58706190  1
  Na  Na14  1  0.35272113  0.13293077  0.90774601  1
  Na  Na15  1  0.36984585  0.64648918  0.26473994  1
  Na  Na16  1  0.35238468  0.63394567  0.57163615  1
  Na  Na17  1  0.36222649  0.64750921  0.90766516  1
  Na  Na18  1  0.87925443  0.12333990  0.25158023  1
  Na  Na19  1  0.87562629  0.12885463  0.58692526  1
  Na  Na20  1  0.86247702  0.11659903  0.90648592  1
  Na  Na21  1  0.87278141  0.63516647  0.25877471  1
  Na  Na22  1  0.86400990  0.63303731  0.58136738  1
  Na  Na23  1  0.85870061  0.63363304  0.91373398  1
  Na  Na24  1  0.44730267  0.00766909  0.06631984  1
  Na  Na25  1  0.47889638  0.51916717  0.41688101  1
  Na  Na26  1  0.48831481  0.51319635  0.08200501  1
  Na  Na27  1  0.98300203  0.51406892  0.08628948  1
  Na  Na28  1  0.51701635  -0.04152743  0.44419988  1
  Na  Na29  1  0.99308495  0.51437536  0.75170225  1
  Na  Na30  1  1.00302650  0.52345446  0.41483316  1
  Na  Na31  1  0.49447491  0.54698795  0.75568220  1
  Na  Na32  1  0.99322432  -0.00075183  0.74868763  1
  Na  Na33  1  0.50679735  0.48632504  0.24769380  1
  Na  Na34  1  0.51231063  0.49436813  0.58564768  1
  Na  Na35  1  0.50845509  0.99393196  0.90571950  1
  Na  Na36  1  0.05261683  0.48735468  0.25964369  1
  Na  Na37  1  0.00690216  0.48576640  0.91623060  1
  Na  Na38  1  0.52223375  0.97249726  0.62298615  1
  Na  Na39  1  0.51115769  0.98584988  0.25267193  1
  Na  Na40  1  0.01344562  0.48680177  0.57798134  1
  Na  Na41  1  0.49107110  0.51311628  0.90925277  1
  Na  Na42  1  0.75133587  0.75771021  -0.00939664  1
  Na  Na43  1  0.74483864  0.24032980  0.33829313  1
  Na  Na44  1  0.25451570  0.25879096  -0.00914948  1
  Na  Na45  1  0.26178365  0.77262785  -0.01881115  1
  Na  Na46  1  0.76934893  0.76148235  0.32748667  1
  Na  Na47  1  0.74772889  0.24192149  -0.00260842  1
  Na  Na48  1  0.24411752  0.24399578  0.33933810  1
  Na  Na49  1  0.74979296  0.75438313  0.65873743  1
  Na  Na50  1  0.23092130  0.23323483  0.67481124  1
  Na  Na51  1  0.24358488  0.74447209  0.34761084  1
  Na  Na52  1  0.23592941  0.73919834  0.51023675  1
  Na  Na53  1  0.74592225  0.23666927  0.82306521  1
  Na  Na54  1  0.76370318  0.75834182  0.49161092  1
  Na  Na55  1  0.75967662  0.77569624  0.83208016  1
  Na  Na56  1  0.24566578  0.24162382  0.16850979  1
  Na  Na57  1  0.25203313  0.75647160  0.16188622  1
  Na  Na58  1  0.75392687  0.24523724  0.17037760  1
  Na  Na59  1  0.75265526  0.75716867  0.15816393  1
  Na  Na60  1  0.23636404  0.24008045  0.51265626  1
  Na  Na61  1  0.74897581  0.24080896  0.51497268  1
  Fe  Fe62  1  0.45855590  0.30871923  0.78107339  1
  Fe  Fe63  1  0.96628383  0.30063883  0.77798018  1
  Fe  Fe64  1  0.96453694  0.30417097  0.11868093  1
  Fe  Fe65  1  0.97261846  0.29771680  0.45461364  1
  Fe  Fe66  1  0.46463545  0.30811948  0.11436352  1
  Fe  Fe67  1  0.46718456  0.80042255  0.78957706  1
  Fe  Fe68  1  0.46440454  0.30884171  0.45294280  1
  Fe  Fe69  1  0.46854990  0.80510705  0.11201413  1
  Fe  Fe70  1  0.96227855  0.81535260  0.12444522  1
  Fe  Fe71  1  0.96232897  0.81266871  0.79456665  1
  Fe  Fe72  1  0.19605165  0.02904273  0.04091771  1
  Fe  Fe73  1  0.19183937  0.53939534  0.04722597  1
  Fe  Fe74  1  0.69269551  0.03618622  0.38095748  1
  Fe  Fe75  1  0.69095365  0.53549590  0.04709361  1
  Fe  Fe76  1  0.69770079  0.03421584  0.04108433  1
  Fe  Fe77  1  0.18974512  0.03356086  0.71124675  1
  Fe  Fe78  1  0.69639491  0.52940968  0.38266570  1
  Fe  Fe79  1  0.69374123  0.53428837  0.71801195  1
  Fe  Fe80  1  0.19334628  0.03296261  0.38357516  1
  Fe  Fe81  1  0.18836411  0.54573308  0.71444562  1
  Fe  Fe82  1  0.03856422  0.18084000  0.20426934  1
  Fe  Fe83  1  0.53133154  0.70110727  0.54241196  1
  Fe  Fe84  1  0.03254060  0.69484286  0.88566937  1
  Fe  Fe85  1  0.03271182  0.70333062  0.55036543  1
  Fe  Fe86  1  0.03906754  0.18819930  0.87916820  1
  Fe  Fe87  1  0.53123582  0.19138372  0.87436511  1
  Fe  Fe88  1  0.53734771  0.18946052  0.54941249  1
  Fe  Fe89  1  0.53353393  0.19137345  0.21027912  1
  Fe  Fe90  1  0.53574756  0.69369446  0.21576935  1
  Fe  Fe91  1  0.03471344  0.69616418  0.21967972  1
  Fe  Fe92  1  0.30355791  0.46636441  0.94709212  1
  Fe  Fe93  1  0.80655330  0.46330531  0.61881674  1
  Fe  Fe94  1  0.81102614  0.46086252  0.28591224  1
  Fe  Fe95  1  0.80232464  0.96640153  0.62168140  1
  Fe  Fe96  1  0.30466385  0.47322202  0.61680587  1
  Fe  Fe97  1  0.31267951  0.96289720  0.29278814  1
  Fe  Fe98  1  0.81441406  0.96501862  0.29519287  1
  Fe  Fe99  1  0.31139163  0.96086268  0.62460613  1
  Fe  Fe100  1  0.29915608  0.46878469  0.28588651  1
  Fe  Fe101  1  0.80560927  0.46178230  0.94932053  1
  S  S102  1  0.35798706  0.14746551  0.08361231  1
  S  S103  1  0.36160605  0.14202824  0.41734167  1
  S  S104  1  0.35695971  0.14226690  0.74922789  1
  S  S105  1  0.35969965  0.64072639  0.08090971  1
  S  S106  1  0.35936888  0.64040461  0.41450299  1
  S  S107  1  0.35707347  0.64210530  0.74762565  1
  S  S108  1  0.86043631  0.14333889  0.08609237  1
  S  S109  1  0.85489414  0.14259560  0.41462567  1
  S  S110  1  0.86388304  0.13550575  0.74829546  1
  S  S111  1  0.85850235  0.63870512  0.08411870  1
  S  S112  1  0.86010350  0.63505315  0.41874045  1
  S  S113  1  0.85850576  0.63776000  0.75199631  1
  S  S114  1  0.14232115  0.35160247  0.24385170  1
  S  S115  1  0.14357997  0.36618246  0.58581762  1
  S  S116  1  0.13676127  0.36440506  0.91788268  1
  S  S117  1  0.14331074  0.85812359  0.25174428  1
  S  S118  1  0.14402274  0.85974039  0.59072985  1
  S  S119  1  0.13736296  0.85791925  0.92070899  1
  S  S120  1  0.64003651  0.35860992  0.24816657  1
  S  S121  1  0.63879079  0.35970843  0.58295405  1
  S  S122  1  0.63689965  0.36084839  0.91621809  1
  S  S123  1  0.64137367  0.85963098  0.24977376  1
  S  S124  1  0.64151119  0.85804438  0.57580649  1
  S  S125  1  0.63898605  0.86660735  0.91418645  1
  S  S126  1  0.07081992  0.17188907  0.04296865  1
  S  S127  1  0.07534575  0.17530676  0.37442057  1
  S  S128  1  0.06816491  0.17148838  0.71308981  1
  S  S129  1  0.06159558  0.66522775  0.04407524  1
  S  S130  1  0.06636899  0.66686910  0.37718957  1
  S  S131  1  0.06039234  0.66801767  0.71026249  1
  S  S132  1  0.56977188  0.17575087  0.04371268  1
  S  S133  1  0.56776065  0.17286660  0.37622956  1
  S  S134  1  0.56096780  0.17304750  0.70944128  1
  S  S135  1  0.56235925  0.66227079  0.04209131  1
  S  S136  1  0.57051168  0.65762925  0.37158358  1
  S  S137  1  0.56968351  0.67131946  0.70556390  1
  S  S138  1  0.32965975  0.43707797  0.12340164  1
  S  S139  1  0.33430301  0.43063800  0.45621618  1
  S  S140  1  0.32807456  0.43638072  0.78787948  1
  S  S141  1  0.33447403  0.93426359  0.12816631  1
  S  S142  1  0.33013186  0.93378355  0.46004831  1
  S  S143  1  0.34415281  0.93733945  0.79888679  1
  S  S144  1  0.83310394  0.43291592  0.12457765  1
  S  S145  1  0.83085202  0.42678821  0.45685884  1
  S  S146  1  0.83248753  0.43042781  0.79186700  1
  S  S147  1  0.81988508  0.93028914  0.12459087  1
  S  S148  1  0.82383759  0.92993069  0.45487797  1
  S  S149  1  0.82934348  0.93181582  0.78669957  1
  S  S150  1  0.43507612  0.33407357  0.29070789  1
  S  S151  1  0.43261267  0.33983243  0.62474484  1
  S  S152  1  0.43270921  0.33850755  0.95940934  1
  S  S153  1  0.43821604  0.82923100  0.28597546  1
  S  S154  1  0.43285930  0.82278967  0.62449335  1
  S  S155  1  0.43795355  0.82957530  0.95313258  1
  S  S156  1  0.93807673  0.33177910  0.29356741  1
  S  S157  1  0.93485471  0.33976006  0.62551436  1
  S  S158  1  0.93047831  0.33022527  0.95665236  1
  S  S159  1  0.93142747  0.82542355  0.28754340  1
  S  S160  1  0.92580397  0.82623934  0.62670046  1
  S  S161  1  0.92502532  0.82518874  0.95682795  1
  S  S162  1  0.18058040  0.06585013  0.21066545  1
  S  S163  1  0.17556312  0.06927035  0.54946032  1
  S  S164  1  0.17124678  0.06814869  0.87777347  1
  S  S165  1  0.16934390  0.56697208  0.20676676  1
  S  S166  1  0.16063743  0.56635865  0.54051187  1
  S  S167  1  0.16765170  0.56986126  0.87735441  1
  S  S168  1  0.66376326  0.06598586  0.20295486  1
  S  S169  1  0.67150718  0.06434417  0.53881185  1
  S  S170  1  0.66281019  0.07472972  0.87544338  1
  S  S171  1  0.67128085  0.56495649  0.21026035  1
  S  S172  1  0.66821431  0.56218072  0.54264412  1
  S  S173  1  0.66748958  0.56080366  0.87714692  1
  O  O174  1  0.36639816  0.23097453  0.08406620  1
  O  O175  1  0.37284440  0.21858432  0.40388470  1
  O  O176  1  0.36296347  0.22012432  0.73632285  1
  O  O177  1  0.36940801  0.71866945  0.07166976  1
  O  O178  1  0.37129461  0.71247152  0.39780539  1
  O  O179  1  0.37204399  0.72186818  0.74311932  1
  O  O180  1  0.86481591  0.22835602  0.08836393  1
  O  O181  1  0.87000254  0.22012171  0.40407664  1
  O  O182  1  0.87798740  0.21136194  0.73557473  1
  O  O183  1  0.86585440  0.71785078  0.07710811  1
  O  O184  1  0.86046286  0.71104240  0.40744685  1
  O  O185  1  0.86622250  0.71743398  0.74639177  1
  O  O186  1  0.27896400  0.13440637  0.08938800  1
  O  O187  1  0.28162540  0.13655093  0.42347161  1
  O  O188  1  0.27734062  0.12943436  0.75366155  1
  O  O189  1  0.28071709  0.63309388  0.08970611  1
  O  O190  1  0.28426428  0.63202053  0.42661510  1
  O  O191  1  0.27815944  0.63491324  0.75505554  1
  O  O192  1  0.78223848  0.13024605  0.09718174  1
  O  O193  1  0.76919238  0.13836821  0.41002522  1
  O  O194  1  0.78893428  0.12945891  0.75977505  1
  O  O195  1  0.77936297  0.62817260  0.09220736  1
  O  O196  1  0.78419818  0.61930201  0.43234128  1
  O  O197  1  0.78148711  0.62795288  0.76420348  1
  O  O198  1  0.13705315  0.26793390  0.24143127  1
  O  O199  1  0.14091099  0.28965141  0.59600896  1
  O  O200  1  0.12761413  0.28881611  0.93159729  1
  O  O201  1  0.13481551  0.77807355  0.25858285  1
  O  O202  1  0.13146797  0.78023953  0.59799761  1
  O  O203  1  0.12336679  0.78144893  0.93534172  1
  O  O204  1  0.63119690  0.27916497  0.25484604  1
  O  O205  1  0.62872892  0.28029045  0.58795188  1
  O  O206  1  0.62583368  0.28372821  0.92696218  1
  O  O207  1  0.63141534  0.78255216  0.26240642  1
  O  O208  1  0.63446588  0.77388034  0.57326287  1
  O  O209  1  0.63522057  0.79693020  0.93688777  1
  O  O210  1  0.21956455  0.36663779  0.23344245  1
  O  O211  1  0.21942025  0.37990340  0.57166035  1
  O  O212  1  0.21622641  0.37349621  0.91198275  1
  O  O213  1  0.22344172  0.86798982  0.24524608  1
  O  O214  1  0.22453902  0.86455867  0.58325059  1
  O  O215  1  0.21590121  0.86370054  0.91670828  1
  O  O216  1  0.71792058  0.36786087  0.23797333  1
  O  O217  1  0.71701386  0.36922671  0.57336366  1
  O  O218  1  0.71568815  0.36642499  0.90627661  1
  O  O219  1  0.72378171  0.86824339  0.25028834  1
  O  O220  1  0.72469110  0.86927983  0.57243147  1
  O  O221  1  0.71168988  0.87977269  0.89973524  1
  O  O222  1  0.41649383  0.13780837  0.15281812  1
  O  O223  1  0.41892148  0.13907816  0.48830008  1
  O  O224  1  0.41393011  0.14508792  0.82256842  1
  O  O225  1  0.41873849  0.63158454  0.14900682  1
  O  O226  1  0.42278750  0.63261172  0.48228186  1
  O  O227  1  0.41498423  0.62560714  0.81036137  1
  O  O228  1  0.92019787  0.13538048  0.15421669  1
  O  O229  1  0.90394579  0.13659128  0.48503770  1
  O  O230  1  0.92709683  0.12543967  0.81367076  1
  O  O231  1  0.91767852  0.62817784  0.15108121  1
  O  O232  1  0.92320342  0.62892835  0.48544835  1
  O  O233  1  0.92003370  0.62458450  0.81627173  1
  O  O234  1  0.37042734  0.09465984  0.01685809  1
  O  O235  1  0.37141685  0.07984741  0.35240500  1
  O  O236  1  0.37224731  0.08191857  0.68654616  1
  O  O237  1  0.36733005  0.57984793  0.01345425  1
  O  O238  1  0.36806269  0.57356965  0.34866214  1
  O  O239  1  0.36264297  0.58571894  0.67517476  1
  O  O240  1  0.86755937  0.09310729  0.01684351  1
  O  O241  1  0.86385277  0.08161299  0.34762585  1
  O  O242  1  0.86916998  0.07242281  0.67887433  1
  O  O243  1  0.86715747  0.57971979  0.01574284  1
  O  O244  1  0.86845547  0.57376126  0.35098352  1
  O  O245  1  0.86284674  0.58005194  0.68108784  1
  O  O246  1  0.08074376  0.36456440  0.17843469  1
  O  O247  1  0.08017278  0.37234284  0.51876127  1
  O  O248  1  0.07781869  0.37082514  0.84875646  1
  O  O249  1  0.08525464  0.86344970  0.18205325  1
  O  O250  1  0.08649038  0.87125733  0.52664349  1
  O  O251  1  0.07923300  0.85984961  0.84920732  1
  O  O252  1  0.57954196  0.37007565  0.18237039  1
  O  O253  1  0.57920149  0.37133946  0.51626562  1
  O  O254  1  0.57736473  0.37058480  0.84960626  1
  O  O255  1  0.58799284  0.86264241  0.17686789  1
  O  O256  1  0.58694280  0.87159075  0.50976781  1
  O  O257  1  0.57276517  0.86277110  0.84336312  1
  O  O258  1  0.13506041  0.40317227  0.31380955  1
  O  O259  1  0.13547614  0.42739636  0.65351133  1
  O  O260  1  0.12574839  0.42703557  0.98331963  1
  O  O261  1  0.13505819  0.91635742  0.31934507  1
  O  O262  1  0.14282875  0.91733499  0.66351891  1
  O  O263  1  0.12588347  0.92031842  0.98550976  1
  O  O264  1  0.63344379  0.41633258  0.31769688  1
  O  O265  1  0.63171067  0.41841615  0.65188652  1
  O  O266  1  0.63293280  0.42140226  0.98569820  1
  O  O267  1  0.62517922  0.92148596  0.31193584  1
  O  O268  1  0.63353528  0.90877861  0.64605402  1
  O  O269  1  0.62465558  0.93511171  0.97473770  1
  O  O270  1  0.02686097  0.19974710  0.09943938  1
  O  O271  1  0.03677443  0.20173732  0.43238102  1
  O  O272  1  0.03988244  0.20755360  0.78171400  1
  O  O273  1  0.02663059  0.69469198  0.10555614  1
  O  O274  1  0.03141044  0.69417123  0.43770896  1
  O  O275  1  0.02462061  0.69557079  0.77215225  1
  O  O276  1  0.53156818  0.20425715  0.10471472  1
  O  O277  1  0.53175833  0.20014950  0.43751007  1
  O  O278  1  0.52321431  0.20966230  0.76992536  1
  O  O279  1  0.53342189  0.69836799  0.10869359  1
  O  O280  1  0.53549372  0.68139962  0.43144804  1
  O  O281  1  0.53111347  0.69947619  0.76397277  1
  O  O282  1  0.30003373  0.47345851  0.06237178  1
  O  O283  1  0.30676997  0.45715355  0.39051882  1
  O  O284  1  0.30096410  0.47366531  0.72789515  1
  O  O285  1  0.30666135  0.97375425  0.07100719  1
  O  O286  1  0.29710283  0.97481853  0.40078987  1
  O  O287  1  0.31084216  0.96496129  0.73161966  1
  O  O288  1  0.80307021  0.46858109  0.06301728  1
  O  O289  1  0.79882233  0.45882964  0.39252117  1
  O  O290  1  0.79959785  0.46504318  0.72968755  1
  O  O291  1  0.78918785  0.96769271  0.06569105  1
  O  O292  1  0.79081058  0.97495811  0.39888654  1
  O  O293  1  0.80548665  0.96101918  0.71997490  1
  O  O294  1  0.47317756  0.30397875  0.23104634  1
  O  O295  1  0.46842115  0.30780051  0.56347028  1
  O  O296  1  0.46424816  0.30698217  0.89609893  1
  O  O297  1  0.47014287  0.80027594  0.22025274  1
  O  O298  1  0.47694365  0.80266985  0.57007006  1
  O  O299  1  0.46950467  0.79326969  0.89032402  1
  O  O300  1  0.97570493  0.30440669  0.23367330  1
  O  O301  1  0.96775754  0.31477338  0.56385791  1
  O  O302  1  0.96367706  0.30038375  0.89426683  1
  O  O303  1  0.96835821  0.79589623  0.22430728  1
  O  O304  1  0.96140649  0.79759530  0.56724173  1
  O  O305  1  0.96319073  0.78950910  0.89617872  1
  O  O306  1  0.20821943  0.02792213  0.27096940  1
  O  O307  1  0.20970555  0.02641298  0.60623220  1
  O  O308  1  0.19478511  0.03250266  0.93807881  1
  O  O309  1  0.19469650  0.52862101  0.26516186  1
  O  O310  1  0.19726862  0.53812566  0.60760074  1
  O  O311  1  0.19970836  0.53191776  0.93741670  1
  O  O312  1  0.69157812  0.02803510  0.26246013  1
  O  O313  1  0.70540864  0.02798553  0.59794576  1
  O  O314  1  0.69717545  0.05885658  0.94838056  1
  O  O315  1  0.70231757  0.52930545  0.27168051  1
  O  O316  1  0.69932840  0.52795293  0.60569537  1
  O  O317  1  0.70580380  0.52676379  0.93955958  1
  O  O318  1  0.09732366  0.09634164  0.04627858  1
  O  O319  1  0.10027056  0.09705784  0.37115759  1
  O  O320  1  0.08812805  0.09165181  0.71419067  1
  O  O321  1  0.07723248  0.58154336  0.03759406  1
  O  O322  1  0.08079004  0.58445541  0.36659669  1
  O  O323  1  0.07282505  0.58245962  0.70200039  1
  O  O324  1  0.58866978  0.09475335  0.03786904  1
  O  O325  1  0.58582060  0.09081113  0.36744600  1
  O  O326  1  0.57234631  0.09302739  0.70604241  1
  O  O327  1  0.58147253  0.58069097  0.04366448  1
  O  O328  1  0.58631873  0.57306193  0.36068155  1
  O  O329  1  0.58769658  0.58849114  0.70431848  1
  O  O330  1  0.41273176  0.42071689  0.12842172  1
  O  O331  1  0.42054846  0.41975234  0.46988246  1
  O  O332  1  0.41053525  0.41782537  0.79481566  1
  O  O333  1  0.41707862  0.91572684  0.13080495  1
  O  O334  1  0.40931110  0.91797282  0.46079877  1
  O  O335  1  0.41830318  0.89945478  0.79230226  1
  O  O336  1  0.91584053  0.41720937  0.13025537  1
  O  O337  1  0.91225054  0.40975749  0.46207101  1
  O  O338  1  0.91465209  0.41423334  0.79491458  1
  O  O339  1  0.89894257  0.90923449  0.12563037  1
  O  O340  1  0.90026588  0.91176329  0.45363072  1
  O  O341  1  0.91274283  0.91429252  0.79749458  1
  O  O342  1  0.41837739  0.41611416  0.29424078  1
  O  O343  1  0.41918205  0.42343579  0.63037965  1
  O  O344  1  0.41493619  0.42120356  0.96325113  1
  O  O345  1  0.42251545  0.91298338  0.29506336  1
  O  O346  1  0.41599782  0.90556563  0.63407081  1
  O  O347  1  0.43177453  0.91238873  0.96129546  1
  O  O348  1  0.92131275  0.41515106  0.30036742  1
  O  O349  1  0.91860947  0.42486212  0.63623442  1
  O  O350  1  0.91664117  0.41487990  0.96426693  1
  O  O351  1  0.90607839  0.90250630  0.28494986  1
  O  O352  1  0.90156539  0.90666045  0.62910085  1
  O  O353  1  0.90571631  0.90157521  0.95615069  1
  O  O354  1  0.10060100  0.08578536  0.20553739  1
  O  O355  1  0.10292942  0.09586865  0.55674043  1
  O  O356  1  0.08669708  0.08203501  0.86263683  1
  O  O357  1  0.08617522  0.58436217  0.19955747  1
  O  O358  1  0.08144363  0.59011555  0.54449873  1
  O  O359  1  0.08481505  0.58346825  0.87469809  1
  O  O360  1  0.57977346  0.08088766  0.19628143  1
  O  O361  1  0.59242797  0.08634320  0.54236486  1
  O  O362  1  0.57965200  0.09163155  0.87138517  1
  O  O363  1  0.58777012  0.57891262  0.20332856  1
  O  O364  1  0.58541853  0.57610884  0.53533519  1
  O  O365  1  0.58561938  0.56761024  0.87317096  1
  O  O366  1  0.13768182  0.23119271  0.06153699  1
  O  O367  1  0.14461651  0.23247239  0.39182153  1
  O  O368  1  0.13790573  0.22346296  0.72600552  1
  O  O369  1  0.13387474  0.71439138  0.05910157  1
  O  O370  1  0.13795982  0.71870207  0.39243287  1
  O  O371  1  0.13369461  0.71428921  0.72711447  1
  O  O372  1  0.64159102  0.22947342  0.06387858  1
  O  O373  1  0.63848046  0.22656315  0.39409789  1
  O  O374  1  0.63315232  0.22376841  0.72623414  1
  O  O375  1  0.63354035  0.71026622  0.05172532  1
  O  O376  1  0.64256914  0.70754201  0.38619671  1
  O  O377  1  0.64182968  0.72144336  0.72107226  1
  O  O378  1  0.27906044  0.36477777  0.10604115  1
  O  O379  1  0.28909104  0.35709579  0.44567480  1
  O  O380  1  0.27567829  0.36689891  0.77341257  1
  O  O381  1  0.28312953  0.86192835  0.11087024  1
  O  O382  1  0.27624094  0.86354316  0.44198447  1
  O  O383  1  0.28876338  0.88021239  0.80094845  1
  O  O384  1  0.78165965  0.36132472  0.10835803  1
  O  O385  1  0.77862585  0.35696245  0.44434119  1
  O  O386  1  0.78278418  0.36082477  0.78155429  1
  O  O387  1  0.76649372  0.85853066  0.10806065  1
  O  O388  1  0.76651939  0.85957487  0.43292661  1
  O  O389  1  0.77799312  0.85775855  0.76641630  1
  O  O390  1  0.36355750  0.28281343  0.27475443  1
  O  O391  1  0.35988041  0.29128302  0.60955307  1
  O  O392  1  0.36371602  0.28931161  0.95182550  1
  O  O393  1  0.36500651  0.77948831  0.26812685  1
  O  O394  1  0.36136911  0.76932192  0.60032340  1
  O  O395  1  0.36471388  0.78355535  0.94127879  1
  O  O396  1  0.86504731  0.28134587  0.27553757  1
  O  O397  1  0.86339935  0.29085737  0.61258942  1
  O  O398  1  0.85747034  0.28258361  0.94316831  1
  O  O399  1  0.86103939  0.76836208  0.26675493  1
  O  O400  1  0.85526303  0.77197154  0.61152438  1
  O  O401  1  0.85557116  0.76823391  0.94018490  1
  O  O402  1  0.23516149  0.13732316  0.23020104  1
  O  O403  1  0.23555090  0.13582644  0.56440600  1
  O  O404  1  0.22036168  0.14272656  0.89831678  1
  O  O405  1  0.22087106  0.63872529  0.22353964  1
  O  O406  1  0.21211471  0.63247159  0.54619380  1
  O  O407  1  0.21691742  0.64205073  0.89410593  1
  O  O408  1  0.71355021  0.14015578  0.22286933  1
  O  O409  1  0.72355756  0.13160166  0.54636704  1
  O  O410  1  0.70954143  0.14639965  0.88132376  1
  O  O411  1  0.72013719  0.63778242  0.22561812  1
  O  O412  1  0.71857285  0.63375774  0.55775325  1
  O  O413  1  0.71328685  0.63520674  0.89172507  1
  O  O414  1  0.49605247  0.34587584  0.03239057  1
  O  O415  1  0.49321281  0.33712894  0.36454722  1
  O  O416  1  0.49151444  0.34047026  0.69707146  1
  O  O417  1  0.49675679  0.82459842  0.02533117  1
  O  O418  1  0.49880419  0.82743817  0.35396978  1
  O  O419  1  0.48758568  0.81901239  0.69818609  1
  O  O420  1  0.99023965  0.33180918  0.02886959  1
  O  O421  1  0.99519098  0.33281994  0.36646143  1
  O  O422  1  0.99578689  0.34123919  0.69756184  1
  O  O423  1  0.98418692  0.82461243  0.02979767  1
  O  O424  1  0.98929716  0.82957838  0.35771988  1
  O  O425  1  0.98444699  0.83406699  0.70120313  1
  O  O426  1  0.18051186  0.00871927  0.13816495  1
  O  O427  1  0.16760385  0.01201258  0.47330827  1
  O  O428  1  0.17905666  0.01139845  0.80823258  1
  O  O429  1  0.16716326  0.50877016  0.13292208  1
  O  O430  1  0.14654879  0.49987544  0.47179350  1
  O  O431  1  0.16426390  0.51196338  0.80384510  1
  O  O432  1  0.66446735  0.01130219  0.12940053  1
  O  O433  1  0.65588300  0.00338690  0.46246155  1
  O  O434  1  0.66025847  0.00879525  0.81111822  1
  O  O435  1  0.67126757  0.50561572  0.13839992  1
  O  O436  1  0.66903987  0.50183914  0.47147777  1
  O  O437  1  0.67023185  0.50287484  0.80485589  1
  O  O438  1  0.01758095  0.17036700  0.29965591  1
  O  O439  1  0.00393194  0.16901129  0.64689772  1
  O  O440  1  0.01301944  0.16568431  0.96846179  1
  O  O441  1  0.00767476  0.66854816  0.30369095  1
  O  O442  1  0.00117584  0.66832924  0.63861766  1
  O  O443  1  0.00227717  0.66184225  0.97108150  1
  O  O444  1  0.50871803  0.17266220  0.30404394  1
  O  O445  1  0.50342265  0.17593416  0.63671691  1
  O  O446  1  0.51069556  0.17814456  0.97355690  1
  O  O447  1  0.51076695  0.65749712  0.29883595  1
  O  O448  1  0.51280241  0.66271024  0.62995361  1
  O  O449  1  0.49848204  0.65245674  0.97266442  1
  O  O450  1  0.33222503  0.49489089  0.19643948  1
  O  O451  1  0.32962750  0.49311283  0.52432911  1
  O  O452  1  0.33276816  0.49707053  0.86156226  1
  O  O453  1  0.34152262  0.99015846  0.20430704  1
  O  O454  1  0.33308971  0.99054191  0.53452443  1
  O  O455  1  0.37150997  1.00698125  0.86607111  1
  O  O456  1  0.83409491  0.49156177  0.19701285  1
  O  O457  1  0.83247509  0.48922280  0.52766585  1
  O  O458  1  0.83871929  0.49291229  0.86483473  1
  O  O459  1  0.82407336  0.98775712  0.19873759  1
  O  O460  1  0.82246761  0.98403059  0.52998180  1
  O  O461  1  0.82338398  0.99073623  0.85225689  1
