# generated using pymatgen
data_Na31Fe20(SO4)36
_symmetry_space_group_name_H-M   'P 1'
_cell_length_a   18.07412420
_cell_length_b   18.06876905
_cell_length_c   19.69548423
_cell_angle_alpha   107.60553468
_cell_angle_beta   107.60804134
_cell_angle_gamma   90.64353595
_symmetry_Int_Tables_number   1
_chemical_formula_structural   Na31Fe20(SO4)36
_chemical_formula_sum   'Na62 Fe40 S72 O288'
_cell_volume   5806.10865791
_cell_formula_units_Z   2
loop_
 _symmetry_equiv_pos_site_id
 _symmetry_equiv_pos_as_xyz
  1  'x, y, z'
loop_
 _atom_site_type_symbol
 _atom_site_label
 _atom_site_symmetry_multiplicity
 _atom_site_fract_x
 _atom_site_fract_y
 _atom_site_fract_z
 _atom_site_occupancy
  Na  Na0  1  0.16305865  0.31069182  0.10572534  1
  Na  Na1  1  0.13581829  0.33679968  0.39007162  1
  Na  Na2  1  0.13516412  0.37088199  0.75239480  1
  Na  Na3  1  0.12348404  0.86057432  0.06365940  1
  Na  Na4  1  0.13402537  0.86414835  0.41677954  1
  Na  Na5  1  0.15728494  0.88138980  0.78742694  1
  Na  Na6  1  0.63484460  0.35699343  0.08016920  1
  Na  Na7  1  0.63472053  0.36109795  0.41838250  1
  Na  Na8  1  0.63292860  0.37129387  0.75368752  1
  Na  Na9  1  0.63279500  0.87832719  0.07896646  1
  Na  Na10  1  0.62824588  0.87281667  0.41764236  1
  Na  Na11  1  0.63976658  0.87678738  0.76675751  1
  Na  Na12  1  0.31488568  0.17115728  0.23327607  1
  Na  Na13  1  0.35865301  0.13364528  0.57327641  1
  Na  Na14  1  0.35586097  0.13377119  0.92477210  1
  Na  Na15  1  0.36395115  0.63456577  0.24771825  1
  Na  Na16  1  0.36770992  0.63803578  0.58831009  1
  Na  Na17  1  0.35408283  0.63748661  0.91111337  1
  Na  Na18  1  0.85417765  0.13666826  0.23606572  1
  Na  Na19  1  0.87129981  0.13765109  0.58707219  1
  Na  Na20  1  0.86271271  0.11216185  0.92982869  1
  Na  Na21  1  0.87060253  0.62413747  0.24611735  1
  Na  Na22  1  0.86467277  0.63394729  0.58300134  1
  Na  Na23  1  0.87114263  0.64287629  0.92206650  1
  Na  Na24  1  0.98920243  0.00682992  0.41338361  1
  Na  Na25  1  0.98532858  0.02190168  0.05871142  1
  Na  Na26  1  0.45254356  0.01337200  0.04147405  1
  Na  Na27  1  0.48725374  0.00370464  0.75997333  1
  Na  Na28  1  0.49991674  0.48893181  0.42812687  1
  Na  Na29  1  1.02449234  0.45414884  0.12413608  1
  Na  Na30  1  0.99572589  0.55057806  0.76743051  1
  Na  Na31  1  0.49194847  0.50773677  0.08177461  1
  Na  Na32  1  1.03047769  0.47843785  0.37790447  1
  Na  Na33  1  0.50634710  1.01331564  0.56038831  1
  Na  Na34  1  0.50725501  0.48917778  0.25291662  1
  Na  Na35  1  -0.02742666  1.03428953  0.21953777  1
  Na  Na36  1  0.50515755  0.50258784  0.90030913  1
  Na  Na37  1  0.01293753  0.49256713  0.57957498  1
  Na  Na38  1  0.00833639  0.98416449  0.61576645  1
  Na  Na39  1  0.47685512  1.03069472  0.25757285  1
  Na  Na40  1  0.00927594  0.49703734  0.92619381  1
  Na  Na41  1  0.50706630  0.46550111  0.59162664  1
  Na  Na42  1  0.74936981  0.24963781  0.33222519  1
  Na  Na43  1  0.24051850  0.74515478  0.68703402  1
  Na  Na44  1  0.75872742  0.75574942  0.32930506  1
  Na  Na45  1  0.75332776  0.23190156  0.00361284  1
  Na  Na46  1  0.74806985  0.74870283  0.66483240  1
  Na  Na47  1  0.74534798  0.24750356  0.67278298  1
  Na  Na48  1  0.25049060  0.25137166  0.66437556  1
  Na  Na49  1  0.25860722  0.75752097  0.32835007  1
  Na  Na50  1  0.25341571  0.78023682  -0.02816994  1
  Na  Na51  1  0.75856705  0.77615784  -0.00345482  1
  Na  Na52  1  0.74847543  0.74738624  0.16430559  1
  Na  Na53  1  0.24802755  0.74872571  0.50512984  1
  Na  Na54  1  0.75425552  0.76453015  0.83194159  1
  Na  Na55  1  0.75007306  0.75557016  0.49520017  1
  Na  Na56  1  0.25319420  0.75830913  0.15007639  1
  Na  Na57  1  0.75428617  0.24498160  0.84026053  1
  Na  Na58  1  0.76155085  0.24895605  0.16039316  1
  Na  Na59  1  0.24104036  0.24561098  0.84259381  1
  Na  Na60  1  0.75032633  0.24873119  0.50400207  1
  Na  Na61  1  0.27225282  0.25590925  0.47106254  1
  Fe  Fe62  1  0.96804623  0.80258530  0.11693043  1
  Fe  Fe63  1  0.46518179  0.80797937  0.45351462  1
  Fe  Fe64  1  0.46662239  0.30731465  0.78419457  1
  Fe  Fe65  1  0.45835081  0.81309215  0.79183209  1
  Fe  Fe66  1  0.96803848  0.80533289  0.79717102  1
  Fe  Fe67  1  0.96486874  0.80562006  0.45531722  1
  Fe  Fe68  1  0.96775755  0.30756167  0.78663389  1
  Fe  Fe69  1  0.96746810  0.30434045  0.44846162  1
  Fe  Fe70  1  0.46173269  0.31098402  0.11674169  1
  Fe  Fe71  1  0.47052382  0.80727093  0.11813251  1
  Fe  Fe72  1  0.69364932  0.53406270  0.04856461  1
  Fe  Fe73  1  0.19890853  0.53616662  0.38197244  1
  Fe  Fe74  1  0.69884818  0.03591188  0.71832735  1
  Fe  Fe75  1  0.69417632  0.53794354  0.71793508  1
  Fe  Fe76  1  0.19380296  0.53915701  0.72041219  1
  Fe  Fe77  1  0.18843175  0.03286625  0.37785886  1
  Fe  Fe78  1  0.68910018  0.03671352  0.37805943  1
  Fe  Fe79  1  0.19525480  0.53325457  0.05044268  1
  Fe  Fe80  1  0.19551599  0.03791222  0.71917962  1
  Fe  Fe81  1  0.69512623  0.53462551  0.38369744  1
  Fe  Fe82  1  0.53588782  0.69573586  0.55106578  1
  Fe  Fe83  1  0.53147994  0.19486588  0.21006191  1
  Fe  Fe84  1  0.53435762  0.69376153  0.21695909  1
  Fe  Fe85  1  0.03720593  0.68726298  0.21314087  1
  Fe  Fe86  1  0.53730780  0.69090749  0.88030808  1
  Fe  Fe87  1  0.03893108  0.19313296  0.54632570  1
  Fe  Fe88  1  0.04107190  0.19510380  0.90070338  1
  Fe  Fe89  1  0.03445122  0.69041745  0.54874610  1
  Fe  Fe90  1  0.53258935  0.19554993  0.88340995  1
  Fe  Fe91  1  0.52972070  0.19953464  0.53911265  1
  Fe  Fe92  1  0.30739026  0.46393348  0.95035813  1
  Fe  Fe93  1  0.81016625  0.46568092  0.62208962  1
  Fe  Fe94  1  0.31079493  0.46350494  0.28499622  1
  Fe  Fe95  1  0.30871975  0.46701734  0.61924507  1
  Fe  Fe96  1  0.81184106  0.96562062  0.62530195  1
  Fe  Fe97  1  0.30631422  0.96545874  0.61947841  1
  Fe  Fe98  1  0.81529444  0.46053828  0.95684117  1
  Fe  Fe99  1  0.80134117  0.96532874  0.28067660  1
  Fe  Fe100  1  0.80720733  0.46413094  0.28453978  1
  Fe  Fe101  1  0.30031194  0.96417979  0.27426263  1
  S  S102  1  0.35510138  0.15314796  0.08841776  1
  S  S103  1  0.36207391  0.13007824  0.41581992  1
  S  S104  1  0.36008321  0.14291248  0.74565618  1
  S  S105  1  0.36467905  0.63781737  0.08379567  1
  S  S106  1  0.36242060  0.64175568  0.41725545  1
  S  S107  1  0.36127229  0.63939087  0.75182759  1
  S  S108  1  0.86025128  0.12847125  0.08839256  1
  S  S109  1  0.86088308  0.13814140  0.41765425  1
  S  S110  1  0.86601658  0.14175903  0.74955579  1
  S  S111  1  0.86052956  0.63783802  0.08472293  1
  S  S112  1  0.85856544  0.63969333  0.41715000  1
  S  S113  1  0.85593487  0.64151291  0.74846916  1
  S  S114  1  0.14165767  0.36782979  0.25497811  1
  S  S115  1  0.14171115  0.36359434  0.58225075  1
  S  S116  1  0.13830035  0.36302465  0.91443191  1
  S  S117  1  0.14032740  0.85417021  0.25141390  1
  S  S118  1  0.13842002  0.85841247  0.58429154  1
  S  S119  1  0.13082114  0.86325806  0.92048550  1
  S  S120  1  0.63857090  0.36329408  0.24887144  1
  S  S121  1  0.64418570  0.36371769  0.58737347  1
  S  S122  1  0.64012991  0.36201483  0.91688553  1
  S  S123  1  0.64199331  0.85663470  0.25504430  1
  S  S124  1  0.63970268  0.86347977  0.58217332  1
  S  S125  1  0.63328817  0.85769926  0.91274054  1
  S  S126  1  0.06311872  0.16227159  0.02950254  1
  S  S127  1  0.06429251  0.16324942  0.37798857  1
  S  S128  1  0.06985884  0.17733821  0.70589521  1
  S  S129  1  0.06549698  0.66190267  0.04439770  1
  S  S130  1  0.06875421  0.67164527  0.37933414  1
  S  S131  1  0.06275547  0.66804352  0.70706862  1
  S  S132  1  0.56277896  0.17150182  0.04376326  1
  S  S133  1  0.57404567  0.17632319  0.37794949  1
  S  S134  1  0.56995927  0.17354106  0.70621769  1
  S  S135  1  0.56631259  0.66352034  0.04128140  1
  S  S136  1  0.56702588  0.66862297  0.37778172  1
  S  S137  1  0.56697451  0.66661554  0.70634739  1
  S  S138  1  0.33417322  0.43781125  0.12558359  1
  S  S139  1  0.33481733  0.44187921  0.46228933  1
  S  S140  1  0.33042806  0.43353713  0.78950160  1
  S  S141  1  0.34604949  0.92867182  0.12567053  1
  S  S142  1  0.32856787  0.92778273  0.45860218  1
  S  S143  1  0.33041666  0.93947890  0.78875139  1
  S  S144  1  0.82618043  0.42908442  0.11965836  1
  S  S145  1  0.83030801  0.43225699  0.45889586  1
  S  S146  1  0.83182762  0.43552814  0.79236593  1
  S  S147  1  0.82850150  0.91666442  0.12918394  1
  S  S148  1  0.83256447  0.93377735  0.46072953  1
  S  S149  1  0.82621118  0.92487386  0.78631941  1
  S  S150  1  0.44152632  0.34386469  0.29591464  1
  S  S151  1  0.43104440  0.32842363  0.62297115  1
  S  S152  1  0.43481173  0.33626287  0.95554343  1
  S  S153  1  0.43024362  0.82665672  0.28868121  1
  S  S154  1  0.43347847  0.83136565  0.62449235  1
  S  S155  1  0.43412877  0.82341268  0.95440901  1
  S  S156  1  0.92409854  0.33087105  0.29260093  1
  S  S157  1  0.93677752  0.33536031  0.62448716  1
  S  S158  1  0.93875277  0.33087901  0.95701863  1
  S  S159  1  0.93070123  0.82587700  0.29244848  1
  S  S160  1  0.92893767  0.82178938  0.62420649  1
  S  S161  1  0.92759610  0.82766172  0.95598055  1
  S  S162  1  0.16190399  0.04228930  0.20224823  1
  S  S163  1  0.16781202  0.06359649  0.54284183  1
  S  S164  1  0.16310360  0.07613246  0.86621046  1
  S  S165  1  0.17643148  0.57004019  0.21260384  1
  S  S166  1  0.17062208  0.56905882  0.54532948  1
  S  S167  1  0.17036948  0.56466934  0.88122444  1
  S  S168  1  0.66579643  0.06666740  0.21170178  1
  S  S169  1  0.67565942  0.07255417  0.54501839  1
  S  S170  1  0.66481777  0.07632332  0.87140073  1
  S  S171  1  0.66711852  0.56651180  0.21008300  1
  S  S172  1  0.66950349  0.56653188  0.54313808  1
  S  S173  1  0.67473892  0.56987169  0.88124064  1
  O  O174  1  0.37099496  0.23059509  0.07710315  1
  O  O175  1  0.36645256  0.20808757  0.40962071  1
  O  O176  1  0.37162392  0.22163861  0.73713774  1
  O  O177  1  0.37522009  0.71654829  0.07762895  1
  O  O178  1  0.37156352  0.72014827  0.40734419  1
  O  O179  1  0.37090498  0.71829411  0.74281032  1
  O  O180  1  0.86636003  0.20313120  0.07157667  1
  O  O181  1  0.87030744  0.21858589  0.41315026  1
  O  O182  1  0.87159969  0.21960557  0.73642487  1
  O  O183  1  0.86805461  0.71633367  0.07582661  1
  O  O184  1  0.86667757  0.72082285  0.41287190  1
  O  O185  1  0.86906578  0.72003210  0.73947358  1
  O  O186  1  0.28264926  0.15158581  0.10529625  1
  O  O187  1  0.28703630  0.11656071  0.43264264  1
  O  O188  1  0.27877555  0.13625462  0.74773419  1
  O  O189  1  0.28721524  0.62914266  0.09444094  1
  O  O190  1  0.28372782  0.63579963  0.42697816  1
  O  O191  1  0.28227003  0.63206372  0.76051025  1
  O  O192  1  0.78855243  0.12643319  0.11103351  1
  O  O193  1  0.78310066  0.12999921  0.42823342  1
  O  O194  1  0.78477902  0.13210497  0.75376451  1
  O  O195  1  0.78258945  0.62878212  0.09598005  1
  O  O196  1  0.77974854  0.63085008  0.42684202  1
  O  O197  1  0.77356472  0.63702266  0.75041828  1
  O  O198  1  0.12860773  0.29418125  0.26665527  1
  O  O199  1  0.13285920  0.28568230  0.59222067  1
  O  O200  1  0.12842003  0.28124413  0.91324075  1
  O  O201  1  0.13062189  0.77656782  0.26348623  1
  O  O202  1  0.13052356  0.77821732  0.59023895  1
  O  O203  1  0.12080686  0.78755711  0.93306075  1
  O  O204  1  0.62851991  0.28502790  0.25733293  1
  O  O205  1  0.63322796  0.28384741  0.59283446  1
  O  O206  1  0.63080304  0.28329716  0.92468158  1
  O  O207  1  0.63017111  0.77838069  0.26545508  1
  O  O208  1  0.63137351  0.78291336  0.58749227  1
  O  O209  1  0.62852040  0.77589863  0.92158361  1
  O  O210  1  0.22452564  0.37807186  0.25294733  1
  O  O211  1  0.22063367  0.37223631  0.57458128  1
  O  O212  1  0.21592454  0.37247929  0.90272152  1
  O  O213  1  0.22107906  0.86042905  0.24598451  1
  O  O214  1  0.21670578  0.86835724  0.57529537  1
  O  O215  1  0.20571874  0.87083659  0.90639257  1
  O  O216  1  0.71651358  0.37026432  0.23827463  1
  O  O217  1  0.72595113  0.37084864  0.58273893  1
  O  O218  1  0.71796281  0.37067246  0.90652606  1
  O  O219  1  0.72556053  0.86365629  0.25805919  1
  O  O220  1  0.71653347  0.87180055  0.56968023  1
  O  O221  1  0.70701876  0.86695301  0.89791214  1
  O  O222  1  0.42052567  0.14468127  0.15590183  1
  O  O223  1  0.42601814  0.12212801  0.48327441  1
  O  O224  1  0.41581262  0.13573670  0.81553751  1
  O  O225  1  0.42528761  0.62638262  0.15064201  1
  O  O226  1  0.42134498  0.63522277  0.48598479  1
  O  O227  1  0.42024325  0.62899111  0.81838225  1
  O  O228  1  0.92798069  0.12307711  0.15255585  1
  O  O229  1  0.92140750  0.12674052  0.48348853  1
  O  O230  1  0.92342784  0.13896006  0.81905507  1
  O  O231  1  0.92039426  0.63065929  0.15278643  1
  O  O232  1  0.91798106  0.62924817  0.48305810  1
  O  O233  1  0.90985537  0.62984091  0.81509258  1
  O  O234  1  0.35902327  0.09206694  0.02119071  1
  O  O235  1  0.36819086  0.07014125  0.34763012  1
  O  O236  1  0.37148159  0.08287362  0.67939390  1
  O  O237  1  0.37259317  0.57855446  0.01537781  1
  O  O238  1  0.37041744  0.58213241  0.35001159  1
  O  O239  1  0.36682034  0.58133029  0.68224796  1
  O  O240  1  0.85845151  0.06268703  0.02127448  1
  O  O241  1  0.86684395  0.08013025  0.34791944  1
  O  O242  1  0.87490783  0.08094813  0.68251928  1
  O  O243  1  0.86656992  0.57853359  0.01636083  1
  O  O244  1  0.86297932  0.58374240  0.34645982  1
  O  O245  1  0.86409858  0.58215368  0.67940038  1
  O  O246  1  0.08979811  0.37940705  0.18707422  1
  O  O247  1  0.08213193  0.37127119  0.51407497  1
  O  O248  1  0.07714457  0.37753007  0.84987969  1
  O  O249  1  0.08359753  0.85794702  0.18127235  1
  O  O250  1  0.07852750  0.86575198  0.51553466  1
  O  O251  1  0.06842437  0.86178353  0.84400009  1
  O  O252  1  0.57888507  0.37613320  0.18356947  1
  O  O253  1  0.58812328  0.37799407  0.52299872  1
  O  O254  1  0.57994593  0.37203468  0.84979363  1
  O  O255  1  0.59131526  0.85865194  0.18147652  1
  O  O256  1  0.57809842  0.87354685  0.51595726  1
  O  O257  1  0.56971712  0.85840512  0.84191795  1
  O  O258  1  0.13271003  0.43220567  0.32385124  1
  O  O259  1  0.13244728  0.42402286  0.64978332  1
  O  O260  1  0.13399236  0.41894998  0.98516062  1
  O  O261  1  0.13120590  0.91406299  0.31844673  1
  O  O262  1  0.12833811  0.91697971  0.65096547  1
  O  O263  1  0.11732894  0.92712645  0.97953133  1
  O  O264  1  0.63391579  0.42306515  0.31880971  1
  O  O265  1  0.63839666  0.42104176  0.65850310  1
  O  O266  1  0.63172519  0.42072490  0.98507595  1
  O  O267  1  0.62816640  0.91748970  0.31857407  1
  O  O268  1  0.63410981  0.92113198  0.65144159  1
  O  O269  1  0.62300661  0.91432405  0.97786753  1
  O  O270  1  0.06456806  0.21653876  0.10082331  1
  O  O271  1  0.03320363  0.20149697  0.44370133  1
  O  O272  1  0.03254354  0.20609686  0.76481796  1
  O  O273  1  0.03190005  0.69613101  0.10873653  1
  O  O274  1  0.02843331  0.69970463  0.43806072  1
  O  O275  1  0.02403003  0.69713824  0.76483752  1
  O  O276  1  0.53294004  0.21637258  0.10774218  1
  O  O277  1  0.54463110  0.20573772  0.44182240  1
  O  O278  1  0.53266880  0.20197893  0.76663535  1
  O  O279  1  0.53396839  0.69685773  0.10480133  1
  O  O280  1  0.53292258  0.70050644  0.43999851  1
  O  O281  1  0.53136455  0.69182297  0.76703731  1
  O  O282  1  0.29982955  0.46976299  0.06142747  1
  O  O283  1  0.30350038  0.47822737  0.40087159  1
  O  O284  1  0.29918408  0.46936811  0.72827917  1
  O  O285  1  0.33107153  0.95688227  0.06235500  1
  O  O286  1  0.29697849  0.95720797  0.39474889  1
  O  O287  1  0.29766324  0.97306988  0.72320029  1
  O  O288  1  0.79170800  0.46765661  0.05907320  1
  O  O289  1  0.79932578  0.46813162  0.39750115  1
  O  O290  1  0.80205226  0.47473925  0.73295866  1
  O  O291  1  0.79346586  0.92851783  0.05804571  1
  O  O292  1  0.80378165  0.97088076  0.40104812  1
  O  O293  1  0.79882770  0.96333068  0.72383962  1
  O  O294  1  0.47106850  0.31104731  0.23000272  1
  O  O295  1  0.46854686  0.30138981  0.56416786  1
  O  O296  1  0.47086948  0.30306706  0.89436701  1
  O  O297  1  0.47034406  0.79653717  0.23011472  1
  O  O298  1  0.47029953  0.80080252  0.56321659  1
  O  O299  1  0.46879240  0.78534729  0.89240200  1
  O  O300  1  0.94720976  0.30579789  0.22682750  1
  O  O301  1  0.97174287  0.30467546  0.56261197  1
  O  O302  1  0.97151072  0.29311710  0.89191768  1
  O  O303  1  0.96824069  0.79795836  0.23298754  1
  O  O304  1  0.96854259  0.79372894  0.56452714  1
  O  O305  1  0.95512755  0.79403344  0.88900901  1
  O  O306  1  0.20214135  0.02454260  0.27820164  1
  O  O307  1  0.19778962  0.02709902  0.60379715  1
  O  O308  1  0.18288109  0.04734960  0.92861463  1
  O  O309  1  0.21168814  0.53960562  0.27681025  1
  O  O310  1  0.20114756  0.53494374  0.60783530  1
  O  O311  1  0.21010374  0.53066051  0.94334704  1
  O  O312  1  0.69941522  0.02982908  0.27554550  1
  O  O313  1  0.70382917  0.03429564  0.60476299  1
  O  O314  1  0.68722448  0.05091578  0.93597516  1
  O  O315  1  0.70012525  0.53315233  0.27271496  1
  O  O316  1  0.69987602  0.53078297  0.60406539  1
  O  O317  1  0.70461232  0.53138989  0.94056450  1
  O  O318  1  0.07201980  0.08217344  0.02669137  1
  O  O319  1  0.07923371  0.08158518  0.37906294  1
  O  O320  1  0.08983899  0.09617147  0.69720893  1
  O  O321  1  0.09169955  0.58394964  0.04907866  1
  O  O322  1  0.09201787  0.59297594  0.37871754  1
  O  O323  1  0.08285407  0.58619325  0.70658659  1
  O  O324  1  0.56551424  0.09121716  0.04266105  1
  O  O325  1  0.58839318  0.09218227  0.36739329  1
  O  O326  1  0.58820326  0.09139884  0.69755066  1
  O  O327  1  0.58072617  0.58010645  0.03739165  1
  O  O328  1  0.58488466  0.58674533  0.37366617  1
  O  O329  1  0.58615176  0.58416944  0.69628314  1
  O  O330  1  0.41755380  0.42497890  0.12755015  1
  O  O331  1  0.41721420  0.43136190  0.47049640  1
  O  O332  1  0.41131517  0.41419040  0.79367367  1
  O  O333  1  0.43148462  0.91149986  0.14878874  1
  O  O334  1  0.41171915  0.91206889  0.46709818  1
  O  O335  1  0.41014536  0.91835037  0.78643422  1
  O  O336  1  0.90468836  0.41407022  0.12125295  1
  O  O337  1  0.91185093  0.41412083  0.46541632  1
  O  O338  1  0.91291093  0.41712667  0.79536571  1
  O  O339  1  0.91301510  0.90136642  0.14201449  1
  O  O340  1  0.91544163  0.91681909  0.46780571  1
  O  O341  1  0.90178287  0.89379394  0.78251571  1
  O  O342  1  0.42304650  0.42739278  0.29682387  1
  O  O343  1  0.41133000  0.40977551  0.62772910  1
  O  O344  1  0.41994034  0.41896288  0.95778702  1
  O  O345  1  0.40885661  0.90557530  0.29220415  1
  O  O346  1  0.41611005  0.91324503  0.62893651  1
  O  O347  1  0.41616711  0.89976038  0.94958590  1
  O  O348  1  0.90736343  0.41615735  0.30994266  1
  O  O349  1  0.92125727  0.41835819  0.63031848  1
  O  O350  1  0.91996716  0.41140139  0.95234029  1
  O  O351  1  0.90791368  0.90630506  0.29946325  1
  O  O352  1  0.91418343  0.90414802  0.62902245  1
  O  O353  1  0.91714153  0.90897678  0.96796385  1
  O  O354  1  0.07719294  0.03633952  0.18906405  1
  O  O355  1  0.08505196  0.07937126  0.53609726  1
  O  O356  1  0.08215663  0.10413346  0.84903271  1
  O  O357  1  0.09443945  0.58468354  0.20919078  1
  O  O358  1  0.08739033  0.58336442  0.53875621  1
  O  O359  1  0.08860169  0.56892847  0.87852051  1
  O  O360  1  0.58634747  0.08813649  0.21329897  1
  O  O361  1  0.59620594  0.09464816  0.54181216  1
  O  O362  1  0.58080171  0.09612633  0.85332637  1
  O  O363  1  0.58466072  0.58246620  0.20682352  1
  O  O364  1  0.58816595  0.58587267  0.53810028  1
  O  O365  1  0.59303023  0.58652569  0.87796939  1
  O  O366  1  0.12151939  0.19736393  0.00093010  1
  O  O367  1  0.13806100  0.20933718  0.39204548  1
  O  O368  1  0.14041771  0.23060568  0.72138827  1
  O  O369  1  0.13298237  0.71582355  0.05592833  1
  O  O370  1  0.13810844  0.72689723  0.39724283  1
  O  O371  1  0.13194160  0.71876818  0.71843994  1
  O  O372  1  0.63869688  0.21517684  0.05598263  1
  O  O373  1  0.64821545  0.22443753  0.39222644  1
  O  O374  1  0.64174739  0.22697104  0.72548705  1
  O  O375  1  0.63872381  0.71100336  0.05399755  1
  O  O376  1  0.63783699  0.71968505  0.39111696  1
  O  O377  1  0.63670112  0.71995088  0.72068098  1
  O  O378  1  0.28836811  0.36724761  0.11658444  1
  O  O379  1  0.28502151  0.36995613  0.44634043  1
  O  O380  1  0.27822279  0.36313121  0.77514672  1
  O  O381  1  0.29374777  0.85686243  0.11015610  1
  O  O382  1  0.27993903  0.85574208  0.44810044  1
  O  O383  1  0.27953330  0.86766569  0.77206297  1
  O  O384  1  0.77268681  0.35808834  0.10269341  1
  O  O385  1  0.77813077  0.36144603  0.44394760  1
  O  O386  1  0.77908694  0.36425080  0.77456595  1
  O  O387  1  0.78253433  0.85063924  0.13487290  1
  O  O388  1  0.78089275  0.86129324  0.44290464  1
  O  O389  1  0.76670728  0.85730381  0.76611375  1
  O  O390  1  0.37153721  0.29784912  0.28830538  1
  O  O391  1  0.35946378  0.27597739  0.60640604  1
  O  O392  1  0.36282667  0.28803014  0.94078850  1
  O  O393  1  0.36058457  0.77075341  0.27022439  1
  O  O394  1  0.36168367  0.77953847  0.60697578  1
  O  O395  1  0.36620836  0.77047665  0.94444772  1
  O  O396  1  0.85408329  0.28266143  0.28863387  1
  O  O397  1  0.86424797  0.28517004  0.60846409  1
  O  O398  1  0.86573957  0.28391697  0.94415322  1
  O  O399  1  0.86206526  0.76964220  0.27669611  1
  O  O400  1  0.85409802  0.77179379  0.60091935  1
  O  O401  1  0.85453029  0.77664089  0.94061771  1
  O  O402  1  0.19518494  0.12059101  0.21421757  1
  O  O403  1  0.21810443  0.13604632  0.56009785  1
  O  O404  1  0.22052673  0.13884378  0.87125162  1
  O  O405  1  0.22426926  0.64247032  0.22370351  1
  O  O406  1  0.22005726  0.64245771  0.56200950  1
  O  O407  1  0.21475480  0.63906658  0.89501918  1
  O  O408  1  0.71846538  0.13859265  0.23107682  1
  O  O409  1  0.73072910  0.14237765  0.56193286  1
  O  O410  1  0.71690914  0.14564371  0.87917333  1
  O  O411  1  0.71640900  0.63854061  0.22339590  1
  O  O412  1  0.72131868  0.63703632  0.55664748  1
  O  O413  1  0.72576860  0.64117976  0.89691190  1
  O  O414  1  0.49417691  0.34198993  0.02909585  1
  O  O415  1  0.50592601  0.35475546  0.36587202  1
  O  O416  1  0.48989747  0.33264601  0.69711461  1
  O  O417  1  0.49599284  0.82862308  0.02798954  1
  O  O418  1  0.48869784  0.82883496  0.36227783  1
  O  O419  1  0.49167532  0.83287954  0.69654575  1
  O  O420  1  1.00101703  0.33872151  0.02633057  1
  O  O421  1  0.99084992  0.33281051  0.36347888  1
  O  O422  1  0.99480062  0.33612668  0.69681155  1
  O  O423  1  0.98768781  0.81638946  0.02331550  1
  O  O424  1  0.99052718  0.83080309  0.36638214  1
  O  O425  1  0.98310575  0.81720422  0.69535532  1
  O  O426  1  0.18176731  -0.02056676  0.14583916  1
  O  O427  1  0.16761004  0.00468662  0.47067315  1
  O  O428  1  0.15616981  0.00963079  0.79351796  1
  O  O429  1  0.17461137  0.50802699  0.14224228  1
  O  O430  1  0.16961230  0.51034498  0.47340914  1
  O  O431  1  0.17243896  0.50740435  0.80771696  1
  O  O432  1  0.66284791  0.00738446  0.14254944  1
  O  O433  1  0.67244968  0.01346222  0.47172711  1
  O  O434  1  0.66412833  0.01225907  0.79987460  1
  O  O435  1  0.66301713  0.50656132  0.13761036  1
  O  O436  1  0.66521977  0.50604824  0.47010725  1
  O  O437  1  0.67141906  0.51152263  0.80759206  1
  O  O438  1  0.00254600  0.15981839  0.30923778  1
  O  O439  1  0.00966927  0.17488281  0.63250085  1
  O  O440  1  -0.01236196  0.16284804  0.96433674  1
  O  O441  1  0.01077578  0.66641298  0.30539567  1
  O  O442  1  0.00346401  0.65600502  0.63039202  1
  O  O443  1  0.00231332  0.64692484  0.97354735  1
  O  O444  1  0.51392332  0.17901494  0.30821971  1
  O  O445  1  0.51150178  0.17265648  0.63344349  1
  O  O446  1  0.50481958  0.17692365  0.97214006  1
  O  O447  1  0.50651160  0.66453825  0.30533744  1
  O  O448  1  0.50619128  0.66592395  0.63429336  1
  O  O449  1  0.50580877  0.65899000  0.96890252  1
  O  O450  1  0.33980960  0.50048684  0.19755968  1
  O  O451  1  0.33181725  0.50101556  0.53434342  1
  O  O452  1  0.33503262  0.49412454  0.86229091  1
  O  O453  1  0.34267538  0.99059207  0.19595946  1
  O  O454  1  0.33041626  0.98987894  0.53027128  1
  O  O455  1  0.33459287  1.00030126  0.85751785  1
  O  O456  1  0.82509971  0.48785430  0.19243713  1
  O  O457  1  0.83203151  0.49275063  0.53094397  1
  O  O458  1  0.83443032  0.49327870  0.86561879  1
  O  O459  1  0.83300126  0.98832846  0.19668223  1
  O  O460  1  0.83444050  0.99084856  0.53445624  1
  O  O461  1  0.83304585  0.98408671  0.85633232  1
