# generated using pymatgen
data_Na31Fe20(SO4)36
_symmetry_space_group_name_H-M   'P 1'
_cell_length_a   18.07953672
_cell_length_b   18.07855216
_cell_length_c   19.70595056
_cell_angle_alpha   107.56850388
_cell_angle_beta   107.55077724
_cell_angle_gamma   90.75334855
_symmetry_Int_Tables_number   1
_chemical_formula_structural   Na31Fe20(SO4)36
_chemical_formula_sum   'Na62 Fe40 S72 O288'
_cell_volume   5816.08781471
_cell_formula_units_Z   2
loop_
 _symmetry_equiv_pos_site_id
 _symmetry_equiv_pos_as_xyz
  1  'x, y, z'
loop_
 _atom_site_type_symbol
 _atom_site_label
 _atom_site_symmetry_multiplicity
 _atom_site_fract_x
 _atom_site_fract_y
 _atom_site_fract_z
 _atom_site_occupancy
  Na  Na0  1  0.13221754  0.36398107  0.07833509  1
  Na  Na1  1  0.15150056  0.37690928  0.43668411  1
  Na  Na2  1  0.18945220  0.34356270  0.77101303  1
  Na  Na3  1  0.13642887  0.86610023  0.08373181  1
  Na  Na4  1  0.13201834  0.86233545  0.41155115  1
  Na  Na5  1  0.13253577  0.87338563  0.74623721  1
  Na  Na6  1  0.64117099  0.37089183  0.09259232  1
  Na  Na7  1  0.63019174  0.35600650  0.40624835  1
  Na  Na8  1  0.61968948  0.36275375  0.74311266  1
  Na  Na9  1  0.63264224  0.86224403  0.08429128  1
  Na  Na10  1  0.62948411  0.87281828  0.42091750  1
  Na  Na11  1  0.62441371  0.86356877  0.74976506  1
  Na  Na12  1  0.37166825  0.14576498  0.25583839  1
  Na  Na13  1  0.37942656  0.14204374  0.59504541  1
  Na  Na14  1  0.36032093  0.13983830  0.90640587  1
  Na  Na15  1  0.36320202  0.64193182  0.26023678  1
  Na  Na16  1  0.35725063  0.62163308  0.57434733  1
  Na  Na17  1  0.36598369  0.63487645  0.91681819  1
  Na  Na18  1  0.85443282  0.14005835  0.24701499  1
  Na  Na19  1  0.86519890  0.13435926  0.58401271  1
  Na  Na20  1  0.86449366  0.13334994  0.91691490  1
  Na  Na21  1  0.86320574  0.62941565  0.24207099  1
  Na  Na22  1  0.87388287  0.63034327  0.58563912  1
  Na  Na23  1  0.86736077  0.63151855  0.91641850  1
  Na  Na24  1  0.48758446  0.00908272  0.73127986  1
  Na  Na25  1  0.97961890  0.50788715  0.08171289  1
  Na  Na26  1  0.43584997  0.49861740  0.70820103  1
  Na  Na27  1  0.49509183  0.05665841  0.09682086  1
  Na  Na28  1  0.47864081  0.50037580  0.45144817  1
  Na  Na29  1  1.01226269  0.49417567  0.42802819  1
  Na  Na30  1  1.03106579  0.48142247  0.71074389  1
  Na  Na31  1  0.45757960  0.51271035  0.06461659  1
  Na  Na32  1  0.99135534  0.00911898  0.08377354  1
  Na  Na33  1  0.00203644  0.99608205  0.26916757  1
  Na  Na34  1  0.02242835  0.49060956  0.90387930  1
  Na  Na35  1  0.00916644  0.99536823  0.90091549  1
  Na  Na36  1  0.50412485  0.95552466  0.90125358  1
  Na  Na37  1  0.50592096  0.47569348  0.25796204  1
  Na  Na38  1  0.00860625  0.99628238  0.57836972  1
  Na  Na39  1  0.52230171  0.46264786  0.91285018  1
  Na  Na40  1  0.04945949  0.49325856  0.26229908  1
  Na  Na41  1  0.49632416  1.00808555  0.26257917  1
  Na  Na42  1  0.74177216  0.74347551  0.67398532  1
  Na  Na43  1  0.74303257  0.24623926  0.32755562  1
  Na  Na44  1  0.25057232  0.75209526  0.00090741  1
  Na  Na45  1  0.73110530  0.23716193  0.67017980  1
  Na  Na46  1  0.74192550  0.74326898  0.33865824  1
  Na  Na47  1  0.26370149  0.27269711  -0.02205498  1
  Na  Na48  1  0.73660323  0.73061427  0.00889986  1
  Na  Na49  1  0.25075196  0.25000963  0.33775300  1
  Na  Na50  1  0.74333764  0.24588392  0.01405755  1
  Na  Na51  1  0.26257906  0.75980775  0.66092688  1
  Na  Na52  1  0.24186124  0.74281325  0.18033516  1
  Na  Na53  1  0.26208701  0.76274666  0.82872385  1
  Na  Na54  1  0.73882058  0.73238562  0.17063625  1
  Na  Na55  1  0.25410614  0.25878196  0.51500862  1
  Na  Na56  1  0.72815723  0.23364691  0.50308480  1
  Na  Na57  1  0.74126928  0.73942034  0.84066499  1
  Na  Na58  1  0.25509069  0.25878420  0.15874362  1
  Na  Na59  1  0.74559963  0.74367074  0.50586237  1
  Na  Na60  1  0.25506233  0.75155464  0.48510089  1
  Na  Na61  1  0.74027359  0.24121903  0.84105294  1
  Fe  Fe62  1  0.96180121  0.30978785  0.45454733  1
  Fe  Fe63  1  0.96069947  0.30379139  0.78289811  1
  Fe  Fe64  1  0.96873214  0.80607599  0.11664811  1
  Fe  Fe65  1  0.45998633  0.81418938  0.45505291  1
  Fe  Fe66  1  0.96329317  0.80639932  0.44861482  1
  Fe  Fe67  1  0.47100166  0.29880317  0.12247984  1
  Fe  Fe68  1  0.96611432  0.80441043  0.78148030  1
  Fe  Fe69  1  0.96321822  0.30725007  0.12134486  1
  Fe  Fe70  1  0.47268681  0.29623727  0.45918069  1
  Fe  Fe71  1  0.46376888  0.81316670  0.12381398  1
  Fe  Fe72  1  0.19497322  0.04096700  0.38699526  1
  Fe  Fe73  1  0.19069136  0.03735909  0.04805966  1
  Fe  Fe74  1  0.68946343  0.03218697  0.70842279  1
  Fe  Fe75  1  0.68767544  0.53262586  0.70960994  1
  Fe  Fe76  1  0.20206878  0.52905224  0.04212891  1
  Fe  Fe77  1  0.21051270  0.52835546  0.71293765  1
  Fe  Fe78  1  0.69226054  0.03500063  0.38257676  1
  Fe  Fe79  1  0.19276030  0.04622574  0.71647103  1
  Fe  Fe80  1  0.69323863  0.53556427  0.37975223  1
  Fe  Fe81  1  0.69194219  0.03448254  0.05028299  1
  Fe  Fe82  1  0.04006398  0.69207335  0.21780141  1
  Fe  Fe83  1  0.03662632  0.69525191  0.54769706  1
  Fe  Fe84  1  0.52878594  0.69892096  0.87680956  1
  Fe  Fe85  1  0.03641489  0.69069857  0.87601280  1
  Fe  Fe86  1  0.03394041  0.19130453  0.87953090  1
  Fe  Fe87  1  0.53188935  0.69723272  0.54888492  1
  Fe  Fe88  1  0.53310722  0.19579153  0.87485612  1
  Fe  Fe89  1  0.03428436  0.19234927  0.54925371  1
  Fe  Fe90  1  0.53306398  0.69166638  0.21201465  1
  Fe  Fe91  1  0.03302634  0.19437502  0.21824888  1
  Fe  Fe92  1  0.30682269  0.97009482  0.95111775  1
  Fe  Fe93  1  0.30279390  0.96953129  0.61652433  1
  Fe  Fe94  1  0.30944600  0.96644459  0.29031547  1
  Fe  Fe95  1  0.81025105  0.96243624  0.28663832  1
  Fe  Fe96  1  0.30176844  0.46724043  0.29305697  1
  Fe  Fe97  1  0.79797692  0.46809448  0.95437917  1
  Fe  Fe98  1  0.80763987  0.46650778  0.28455941  1
  Fe  Fe99  1  0.80725558  0.46610294  0.61792503  1
  Fe  Fe100  1  0.81011439  0.96357639  0.61918035  1
  Fe  Fe101  1  0.80694729  0.96373710  0.95097102  1
  S  S102  1  0.35245025  0.14370995  0.08085800  1
  S  S103  1  0.35652572  0.13901549  0.41329806  1
  S  S104  1  0.36407798  0.14042442  0.74930778  1
  S  S105  1  0.35649398  0.64955929  0.08923569  1
  S  S106  1  0.36221704  0.63892810  0.41832735  1
  S  S107  1  0.35497780  0.65134612  0.75488778  1
  S  S108  1  0.86038908  0.13703125  0.08467005  1
  S  S109  1  0.86116411  0.13888141  0.41461531  1
  S  S110  1  0.86038227  0.13706644  0.75130412  1
  S  S111  1  0.86532073  0.64175404  0.08107719  1
  S  S112  1  0.85881455  0.64187172  0.41665816  1
  S  S113  1  0.86004956  0.63894263  0.74905177  1
  S  S114  1  0.13937695  0.35372118  0.24776673  1
  S  S115  1  0.13094155  0.36368487  0.58725886  1
  S  S116  1  0.13499080  0.35855783  0.91362429  1
  S  S117  1  0.13864905  0.86279069  0.25029132  1
  S  S118  1  0.13655452  0.86596977  0.58192255  1
  S  S119  1  0.13950170  0.86313108  0.91649228  1
  S  S120  1  0.64119431  0.36274540  0.25182951  1
  S  S121  1  0.64487087  0.36033349  0.57757311  1
  S  S122  1  0.64650842  0.35359576  0.92062401  1
  S  S123  1  0.64309796  0.85718442  0.25096039  1
  S  S124  1  0.64138179  0.85724470  0.58278222  1
  S  S125  1  0.64567240  0.85876550  0.92074357  1
  S  S126  1  0.06168979  0.16722557  0.04188765  1
  S  S127  1  0.06743148  0.17493551  0.37849784  1
  S  S128  1  0.06389464  0.16728846  0.70815329  1
  S  S129  1  0.07215153  0.66971066  0.04015082  1
  S  S130  1  0.06021643  0.66649869  0.37657722  1
  S  S131  1  0.07299685  0.67528854  0.71192884  1
  S  S132  1  0.56869375  0.16653654  0.03668445  1
  S  S133  1  0.56632772  0.16706346  0.37165413  1
  S  S134  1  0.56988328  0.16167932  0.70990196  1
  S  S135  1  0.55634675  0.67000729  0.04174735  1
  S  S136  1  0.56831370  0.67200234  0.37648000  1
  S  S137  1  0.56915713  0.67131507  0.70933240  1
  S  S138  1  0.32997366  0.43128576  0.12718158  1
  S  S139  1  0.33561482  0.42157888  0.45770680  1
  S  S140  1  0.34661464  0.44962926  0.80141018  1
  S  S141  1  0.32688808  0.93776069  0.12468916  1
  S  S142  1  0.32267042  0.93276848  0.45489187  1
  S  S143  1  0.32544412  0.94009795  0.78769047  1
  S  S144  1  0.84346947  0.43627922  0.12897362  1
  S  S145  1  0.82975078  0.43431367  0.45393133  1
  S  S146  1  0.82643105  0.43015467  0.79075636  1
  S  S147  1  0.83578403  0.93150048  0.12424174  1
  S  S148  1  0.83155714  0.93208884  0.45685319  1
  S  S149  1  0.83015050  0.92936842  0.79050759  1
  S  S150  1  0.43186882  0.33218134  0.29391269  1
  S  S151  1  0.43555472  0.32470688  0.61423004  1
  S  S152  1  0.44437906  0.32675139  0.96200440  1
  S  S153  1  0.43421003  0.83371400  0.29107994  1
  S  S154  1  0.43044875  0.83149300  0.62208219  1
  S  S155  1  0.43500307  0.83995399  0.96517108  1
  S  S156  1  0.93300059  0.33132779  0.29450014  1
  S  S157  1  0.92276822  0.32579332  0.62105578  1
  S  S158  1  0.92881943  0.32817945  0.95676599  1
  S  S159  1  0.93217144  0.82620510  0.28600106  1
  S  S160  1  0.93294180  0.82914874  0.62163388  1
  S  S161  1  0.93538713  0.83099520  0.95493026  1
  S  S162  1  0.16537566  0.06623483  0.20855795  1
  S  S163  1  0.16599980  0.07012722  0.53977630  1
  S  S164  1  0.16837394  0.06958061  0.87790083  1
  S  S165  1  0.16957159  0.56422371  0.20356917  1
  S  S166  1  0.16736168  0.57199645  0.54819217  1
  S  S167  1  0.16709648  0.56991521  0.87225532  1
  S  S168  1  0.66920654  0.05562220  0.21122963  1
  S  S169  1  0.67467962  0.06396135  0.54566409  1
  S  S170  1  0.67282698  0.06521394  0.87655699  1
  S  S171  1  0.66875028  0.56728085  0.20867956  1
  S  S172  1  0.67280353  0.57201998  0.54284640  1
  S  S173  1  0.67034690  0.57004104  0.87524163  1
  O  O174  1  0.36319143  0.22423332  0.07691804  1
  O  O175  1  0.37442398  0.21747855  0.40391948  1
  O  O176  1  0.37528666  0.21260750  0.73607468  1
  O  O177  1  0.36303545  0.73283623  0.08996605  1
  O  O178  1  0.37463610  0.71723606  0.40963104  1
  O  O179  1  0.35451053  0.73273957  0.75666895  1
  O  O180  1  0.86935103  0.21548137  0.07601072  1
  O  O181  1  0.86985080  0.21730539  0.40462909  1
  O  O182  1  0.86620412  0.21613156  0.74201988  1
  O  O183  1  0.87876965  0.71848009  0.06816350  1
  O  O184  1  0.86639299  0.72129909  0.40848295  1
  O  O185  1  0.86920471  0.71659352  0.73761559  1
  O  O186  1  0.27057254  0.13408155  0.08381884  1
  O  O187  1  0.27173350  0.13890491  0.41070522  1
  O  O188  1  0.28840992  0.12946500  0.76358115  1
  O  O189  1  0.27628476  0.63488833  0.09333522  1
  O  O190  1  0.28850053  0.62996346  0.43199281  1
  O  O191  1  0.27750707  0.63037546  0.76648916  1
  O  O192  1  0.78194826  0.12620911  0.09183239  1
  O  O193  1  0.78218043  0.13059962  0.42309863  1
  O  O194  1  0.78238534  0.12627717  0.76072424  1
  O  O195  1  0.78884727  0.63862476  0.09135830  1
  O  O196  1  0.77957022  0.63390282  0.42499470  1
  O  O197  1  0.78040010  0.63076929  0.75554737  1
  O  O198  1  0.13159388  0.27118448  0.24932508  1
  O  O199  1  0.11624704  0.28773002  0.59903457  1
  O  O200  1  0.12175641  0.28251046  0.92779380  1
  O  O201  1  0.12994567  0.78441760  0.25908746  1
  O  O202  1  0.12912522  0.78951186  0.59518141  1
  O  O203  1  0.12956514  0.78469329  0.92495065  1
  O  O204  1  0.63405219  0.28744189  0.26265351  1
  O  O205  1  0.64625088  0.28214875  0.58429791  1
  O  O206  1  0.63720271  0.26829533  0.92000441  1
  O  O207  1  0.63245336  0.77666510  0.25567603  1
  O  O208  1  0.63344908  0.77689564  0.58911829  1
  O  O209  1  0.63493522  0.77926750  0.92769020  1
  O  O210  1  0.21666890  0.36511915  0.23743467  1
  O  O211  1  0.20326292  0.36807939  0.57006630  1
  O  O212  1  0.21151874  0.36327692  0.90436220  1
  O  O213  1  0.21752448  0.87252157  0.24253316  1
  O  O214  1  0.21522882  0.87333341  0.57274992  1
  O  O215  1  0.21875495  0.87191372  0.90928601  1
  O  O216  1  0.71862009  0.37751343  0.24244344  1
  O  O217  1  0.71946922  0.37885668  0.56316749  1
  O  O218  1  0.73044800  0.36322828  0.92235468  1
  O  O219  1  0.72186701  0.86372106  0.24116180  1
  O  O220  1  0.71977815  0.86583126  0.57272132  1
  O  O221  1  0.72689447  0.86598250  0.91564472  1
  O  O222  1  0.40780690  0.13175622  0.14705927  1
  O  O223  1  0.40596121  0.12686936  0.48012415  1
  O  O224  1  0.42624782  0.13115170  0.81841796  1
  O  O225  1  0.41405864  0.63949821  0.15809259  1
  O  O226  1  0.42713153  0.62737106  0.48281813  1
  O  O227  1  0.41662511  0.64155310  0.82116467  1
  O  O228  1  0.91983204  0.12903594  0.15289876  1
  O  O229  1  0.91985292  0.13165238  0.48288926  1
  O  O230  1  0.91995361  0.13175792  0.82028500  1
  O  O231  1  0.92665485  0.63308588  0.14813309  1
  O  O232  1  0.91737662  0.63431663  0.48470837  1
  O  O233  1  0.91789248  0.63491724  0.81918994  1
  O  O234  1  0.36137016  0.08718376  0.01108962  1
  O  O235  1  0.36202164  0.08019459  0.34276738  1
  O  O236  1  0.37176737  0.07261176  0.68482928  1
  O  O237  1  0.36828746  0.59696753  0.02197305  1
  O  O238  1  0.36715622  0.57947302  0.34834947  1
  O  O239  1  0.36217132  0.59861106  0.68513146  1
  O  O240  1  0.87064952  0.07752096  0.01714462  1
  O  O241  1  0.86869993  0.07954046  0.34644942  1
  O  O242  1  0.86978482  0.07880636  0.68403128  1
  O  O243  1  0.87146489  0.57969532  0.01335619  1
  O  O244  1  0.86609742  0.58364533  0.34822671  1
  O  O245  1  0.87016215  0.57820116  0.68309107  1
  O  O246  1  0.07924471  0.36251986  0.17932554  1
  O  O247  1  0.06542430  0.37619806  0.52504865  1
  O  O248  1  0.07295550  0.36616885  0.84630644  1
  O  O249  1  0.08025734  0.86842146  0.17996438  1
  O  O250  1  0.07696719  0.87016542  0.51216408  1
  O  O251  1  0.08044215  0.87247542  0.84881082  1
  O  O252  1  0.57993506  0.37011121  0.18421906  1
  O  O253  1  0.58106019  0.36589030  0.50996704  1
  O  O254  1  0.59465123  0.36370506  0.85205388  1
  O  O255  1  0.58390986  0.86864794  0.18519548  1
  O  O256  1  0.58110593  0.86565317  0.51640716  1
  O  O257  1  0.58912573  0.86996699  0.85504599  1
  O  O258  1  0.13001435  0.40839930  0.31547159  1
  O  O259  1  0.13310287  0.42647123  0.65968053  1
  O  O260  1  0.12756781  0.42145444  0.98089357  1
  O  O261  1  0.12662219  0.92312504  0.31545798  1
  O  O262  1  0.12644570  0.92880380  0.64657055  1
  O  O263  1  0.13073516  0.92240184  0.98440334  1
  O  O264  1  0.63027732  0.42523422  0.31859603  1
  O  O265  1  0.63757756  0.41768898  0.64665296  1
  O  O266  1  0.63466804  0.40559849  0.98829640  1
  O  O267  1  0.63811055  0.91416032  0.32111752  1
  O  O268  1  0.63697979  0.91356632  0.65332196  1
  O  O269  1  0.63916583  0.91695021  0.99064703  1
  O  O270  1  0.02455869  0.19540847  0.10228261  1
  O  O271  1  0.03275888  0.20497307  0.44046997  1
  O  O272  1  0.02731976  0.19783405  0.76938558  1
  O  O273  1  0.03789983  0.69913546  0.10264947  1
  O  O274  1  0.02477781  0.70647743  0.43764350  1
  O  O275  1  0.03310662  0.70447329  0.77206988  1
  O  O276  1  0.52658191  0.19116137  0.09236207  1
  O  O277  1  0.53435133  0.20250050  0.43437894  1
  O  O278  1  0.54192704  0.18703779  0.77716415  1
  O  O279  1  0.52228281  0.70811751  0.10486168  1
  O  O280  1  0.53474828  0.70205553  0.43859174  1
  O  O281  1  0.53582331  0.69466924  0.77106676  1
  O  O282  1  0.30661220  0.47363589  0.07142778  1
  O  O283  1  0.30916386  0.44544724  0.38867763  1
  O  O284  1  0.30114767  0.47393488  0.73114696  1
  O  O285  1  0.29962903  0.97450544  0.06335227  1
  O  O286  1  0.29133154  0.97046535  0.39365922  1
  O  O287  1  0.28574633  0.97189976  0.72490071  1
  O  O288  1  0.82536360  0.47357716  0.06998878  1
  O  O289  1  0.79961180  0.47378191  0.39486202  1
  O  O290  1  0.79942568  0.46707679  0.72972513  1
  O  O291  1  0.80500965  0.96751662  0.06347120  1
  O  O292  1  0.80123112  0.96866435  0.39631025  1
  O  O293  1  0.80093322  0.96416282  0.72895083  1
  O  O294  1  0.46584184  0.31080092  0.23218927  1
  O  O295  1  0.47739099  0.29257795  0.55542788  1
  O  O296  1  0.48327039  0.29155138  0.90349035  1
  O  O297  1  0.47534087  0.80344333  0.23345022  1
  O  O298  1  0.46635633  0.79975345  0.55902545  1
  O  O299  1  0.47329628  0.81102812  0.90742544  1
  O  O300  1  0.96786682  0.29870325  0.23187365  1
  O  O301  1  0.95513291  0.29185364  0.55818932  1
  O  O302  1  0.96376967  0.29811826  0.89475329  1
  O  O303  1  0.96919617  0.79593417  0.22539455  1
  O  O304  1  0.96865154  0.79688743  0.56038020  1
  O  O305  1  0.97039898  0.80087536  0.89312745  1
  O  O306  1  0.19482644  0.02894669  0.26800237  1
  O  O307  1  0.20241348  0.03890102  0.60395733  1
  O  O308  1  0.19813590  0.02917986  0.93640445  1
  O  O309  1  0.19534224  0.52677216  0.26254876  1
  O  O310  1  0.19122022  0.54468884  0.61538750  1
  O  O311  1  0.18744549  0.53287883  0.93140310  1
  O  O312  1  0.70761933  0.02141650  0.27350482  1
  O  O313  1  0.71112903  0.02486805  0.60590686  1
  O  O314  1  0.69966978  0.02730407  0.93736715  1
  O  O315  1  0.70090827  0.53764844  0.27535957  1
  O  O316  1  0.70269003  0.53740388  0.60485516  1
  O  O317  1  0.69825858  0.53017180  0.93239852  1
  O  O318  1  0.07769427  0.08389318  0.03532255  1
  O  O319  1  0.08839384  0.09428759  0.37412539  1
  O  O320  1  0.08018234  0.08470396  0.70235776  1
  O  O321  1  0.08899714  0.58765857  0.03243119  1
  O  O322  1  0.06723978  0.58557757  0.37587191  1
  O  O323  1  0.09607266  0.59723596  0.71130064  1
  O  O324  1  0.58413947  0.08249679  0.03062696  1
  O  O325  1  0.59223786  0.08900012  0.37734692  1
  O  O326  1  0.58811260  0.07832199  0.70359246  1
  O  O327  1  0.55799236  0.58713947  0.03400674  1
  O  O328  1  0.58576651  0.58987713  0.36914347  1
  O  O329  1  0.58958985  0.58986715  0.69628868  1
  O  O330  1  0.41155738  0.41135389  0.13351398  1
  O  O331  1  0.41516939  0.39230618  0.46059878  1
  O  O332  1  0.42894856  0.45404600  0.80272276  1
  O  O333  1  0.40932425  0.92072328  0.13368685  1
  O  O334  1  0.40092061  0.91126864  0.45414734  1
  O  O335  1  0.40578450  0.92947766  0.78819087  1
  O  O336  1  0.92890853  0.42090451  0.14497541  1
  O  O337  1  0.91075235  0.41707573  0.45646381  1
  O  O338  1  0.90889824  0.41221413  0.79840451  1
  O  O339  1  0.91925267  0.91714149  0.12957391  1
  O  O340  1  0.91212854  0.91181019  0.45935802  1
  O  O341  1  0.91100070  0.90864353  0.79488026  1
  O  O342  1  0.42121485  0.41777227  0.31221348  1
  O  O343  1  0.40700795  0.39797922  0.60587013  1
  O  O344  1  0.43501968  0.40753959  0.96351454  1
  O  O345  1  0.41551923  0.91407300  0.29086189  1
  O  O346  1  0.40374335  0.90871430  0.61842255  1
  O  O347  1  0.41698763  0.92248473  0.96807534  1
  O  O348  1  0.91612183  0.41302465  0.29836439  1
  O  O349  1  0.90907242  0.40840829  0.62556086  1
  O  O350  1  0.90977890  0.40916866  0.96105309  1
  O  O351  1  0.91383325  0.90720391  0.28836441  1
  O  O352  1  0.91413011  0.90915626  0.62221198  1
  O  O353  1  0.91873797  0.91369058  0.96089851  1
  O  O354  1  0.08292544  0.08364461  0.20472177  1
  O  O355  1  0.08479342  0.08504771  0.54067239  1
  O  O356  1  0.08689275  0.08593464  0.87654613  1
  O  O357  1  0.08538110  0.58102005  0.19677038  1
  O  O358  1  0.08516330  0.59490303  0.53889263  1
  O  O359  1  0.08071205  0.58145120  0.85538564  1
  O  O360  1  0.58695109  0.05987107  0.20640149  1
  O  O361  1  0.59818921  0.08176143  0.54704279  1
  O  O362  1  0.59155819  0.08501602  0.86950120  1
  O  O363  1  0.58732773  0.58769946  0.20586340  1
  O  O364  1  0.59246825  0.59259899  0.53754847  1
  O  O365  1  0.59380069  0.59765641  0.87669695  1
  O  O366  1  0.13285740  0.21845505  0.05845578  1
  O  O367  1  0.13559678  0.22858269  0.39052711  1
  O  O368  1  0.13468568  0.21624723  0.72208014  1
  O  O369  1  0.14276531  0.72291871  0.05599856  1
  O  O370  1  0.13377967  0.71316504  0.39085977  1
  O  O371  1  0.14040349  0.73244400  0.72869866  1
  O  O372  1  0.64099150  0.21723073  0.05669930  1
  O  O373  1  0.63641871  0.21880744  0.38196042  1
  O  O374  1  0.64347192  0.21239282  0.72787079  1
  O  O375  1  0.63471523  0.71402414  0.06251484  1
  O  O376  1  0.64037880  0.72366974  0.39203365  1
  O  O377  1  0.64080875  0.72601261  0.72747367  1
  O  O378  1  0.27425301  0.35987665  0.10346147  1
  O  O379  1  0.27991708  0.35538716  0.44832613  1
  O  O380  1  0.31313319  0.37086302  0.78826229  1
  O  O381  1  0.27376033  0.86654151  0.10590761  1
  O  O382  1  0.26833245  0.86418977  0.44041083  1
  O  O383  1  0.27674070  0.86756334  0.77545343  1
  O  O384  1  0.79280877  0.36380946  0.10925468  1
  O  O385  1  0.77821136  0.36239240  0.43551088  1
  O  O386  1  0.77406099  0.35908573  0.77395313  1
  O  O387  1  0.78678780  0.85882183  0.10926806  1
  O  O388  1  0.77849343  0.86232753  0.44277418  1
  O  O389  1  0.77722439  0.86029254  0.77833912  1
  O  O390  1  0.35680911  0.28310666  0.27296394  1
  O  O391  1  0.36969358  0.26539804  0.59683948  1
  O  O392  1  0.37077520  0.27812733  0.94410849  1
  O  O393  1  0.36305758  0.78154276  0.27307801  1
  O  O394  1  0.36208762  0.77521325  0.60643325  1
  O  O395  1  0.36231186  0.78990773  0.95022510  1
  O  O396  1  0.86311375  0.28027863  0.28183287  1
  O  O397  1  0.85070787  0.27732885  0.60894968  1
  O  O398  1  0.86031567  0.27393344  0.94343285  1
  O  O399  1  0.86118286  0.77452350  0.27097944  1
  O  O400  1  0.86276518  0.77709599  0.60871124  1
  O  O401  1  0.86468122  0.77980510  0.94047274  1
  O  O402  1  0.21656847  0.13690967  0.22229087  1
  O  O403  1  0.21245965  0.14025959  0.54633509  1
  O  O404  1  0.21908868  0.14151795  0.89633879  1
  O  O405  1  0.21910602  0.63683125  0.22053059  1
  O  O406  1  0.22077954  0.64117075  0.56106933  1
  O  O407  1  0.21527304  0.64484143  0.89373191  1
  O  O408  1  0.71396476  0.13096743  0.22722536  1
  O  O409  1  0.73075086  0.13372162  0.56221704  1
  O  O410  1  0.72787612  0.13573949  0.89675392  1
  O  O411  1  0.72083626  0.63984464  0.22515322  1
  O  O412  1  0.72742299  0.64195808  0.55885972  1
  O  O413  1  0.72887415  0.63824842  0.89185177  1
  O  O414  1  0.49882812  0.32695334  0.03702221  1
  O  O415  1  0.48885156  0.32044620  0.36222046  1
  O  O416  1  0.49324049  0.33609709  0.68771359  1
  O  O417  1  0.49173864  0.84542325  0.04047529  1
  O  O418  1  0.49052217  0.83770630  0.36543430  1
  O  O419  1  0.49142305  0.84302694  0.69344762  1
  O  O420  1  0.98965594  0.33247367  0.02969179  1
  O  O421  1  0.99526773  0.33634884  0.36675292  1
  O  O422  1  0.98376814  0.32965087  0.69322313  1
  O  O423  1  0.99584608  0.83425504  0.02742925  1
  O  O424  1  0.99122934  0.83008627  0.35871262  1
  O  O425  1  0.99282468  0.83409521  0.69468061  1
  O  O426  1  0.15945556  0.00734586  0.13390916  1
  O  O427  1  0.16017970  0.00644038  0.46818150  1
  O  O428  1  0.16498978  0.01309810  0.80403906  1
  O  O429  1  0.16650147  0.50682915  0.12927810  1
  O  O430  1  0.16263820  0.50771137  0.48062591  1
  O  O431  1  0.17322232  0.51383541  0.80056550  1
  O  O432  1  0.67405402  -0.00008107  0.13884643  1
  O  O433  1  0.67566231  0.00562374  0.47284373  1
  O  O434  1  0.67313448  0.00634721  0.80502854  1
  O  O435  1  0.66742508  0.50710934  0.14039569  1
  O  O436  1  0.66996363  0.51178981  0.47086272  1
  O  O437  1  0.66243828  0.51279933  0.79948702  1
  O  O438  1  0.00475201  0.16748919  0.30559714  1
  O  O439  1  0.00248396  0.16338667  0.63559783  1
  O  O440  1  0.00314579  0.16471012  0.96886701  1
  O  O441  1  0.00375609  0.66588667  0.30213074  1
  O  O442  1  0.01194709  0.67178828  0.64010034  1
  O  O443  1  0.01179497  0.66899070  0.96818835  1
  O  O444  1  0.50532982  0.15115221  0.29879167  1
  O  O445  1  0.51031937  0.16333398  0.64334658  1
  O  O446  1  0.51388000  0.16358577  0.96071397  1
  O  O447  1  0.50873129  0.67178674  0.30493016  1
  O  O448  1  0.50968248  0.67490497  0.63910379  1
  O  O449  1  0.50427941  0.68185589  0.97200846  1
  O  O450  1  0.33127732  0.48469123  0.20262675  1
  O  O451  1  0.34445797  0.48934009  0.52292420  1
  O  O452  1  0.33799378  0.50691979  0.86854219  1
  O  O453  1  0.32632976  0.99622889  0.19639956  1
  O  O454  1  0.32759210  0.99430475  0.52659433  1
  O  O455  1  0.32718288  0.99845621  0.86143534  1
  O  O456  1  0.83792643  0.49415975  0.19961040  1
  O  O457  1  0.83225381  0.49195696  0.52726065  1
  O  O458  1  0.82748761  0.48962477  0.86281173  1
  O  O459  1  0.83879217  0.99066940  0.19726785  1
  O  O460  1  0.83873465  0.99198029  0.53055010  1
  O  O461  1  0.83640983  0.99089815  0.86369506  1
