# generated using pymatgen
data_Na31Fe20(SO4)36
_symmetry_space_group_name_H-M   'P 1'
_cell_length_a   18.06859512
_cell_length_b   18.06287400
_cell_length_c   19.70037835
_cell_angle_alpha   107.54172905
_cell_angle_beta   107.59311541
_cell_angle_gamma   90.71886207
_symmetry_Int_Tables_number   1
_chemical_formula_structural   Na31Fe20(SO4)36
_chemical_formula_sum   'Na62 Fe40 S72 O288'
_cell_volume   5805.76566511
_cell_formula_units_Z   2
loop_
 _symmetry_equiv_pos_site_id
 _symmetry_equiv_pos_as_xyz
  1  'x, y, z'
loop_
 _atom_site_type_symbol
 _atom_site_label
 _atom_site_symmetry_multiplicity
 _atom_site_fract_x
 _atom_site_fract_y
 _atom_site_fract_z
 _atom_site_occupancy
  Na  Na0  1  0.13915537  0.37060082  0.09578795  1
  Na  Na1  1  0.13381812  0.35551428  0.40448019  1
  Na  Na2  1  0.13999421  0.35943733  0.75591595  1
  Na  Na3  1  0.13189924  0.86461152  0.07951306  1
  Na  Na4  1  0.12813452  0.85844575  0.40211450  1
  Na  Na5  1  0.12613349  0.89734537  0.75262673  1
  Na  Na6  1  0.64279827  0.36296183  0.08973454  1
  Na  Na7  1  0.62898759  0.36276404  0.41356414  1
  Na  Na8  1  0.63766327  0.36997773  0.75232499  1
  Na  Na9  1  0.62785475  0.86859830  0.07952603  1
  Na  Na10  1  0.62840813  0.87041255  0.41683353  1
  Na  Na11  1  0.62843974  0.84878827  0.73683806  1
  Na  Na12  1  0.37761925  0.13883003  0.26103257  1
  Na  Na13  1  0.36361643  0.13974232  0.58448771  1
  Na  Na14  1  0.33385429  0.11361427  0.88515452  1
  Na  Na15  1  0.35402765  0.63231971  0.25033830  1
  Na  Na16  1  0.37224902  0.63671789  0.59509562  1
  Na  Na17  1  0.35253141  0.64802368  0.92008790  1
  Na  Na18  1  0.86318306  0.14996376  0.25152206  1
  Na  Na19  1  0.87174854  0.12689926  0.58494990  1
  Na  Na20  1  0.87335657  0.13784452  0.92449097  1
  Na  Na21  1  0.87220122  0.63772708  0.25173539  1
  Na  Na22  1  0.86146434  0.63850887  0.58926277  1
  Na  Na23  1  0.85685991  0.62784190  0.90192668  1
  Na  Na24  1  0.99688502  0.00272477  0.42500313  1
  Na  Na25  1  0.98533874  0.53659261  0.09120302  1
  Na  Na26  1  0.50385867  0.51943306  0.74299909  1
  Na  Na27  1  0.99952205  0.51386423  0.41624090  1
  Na  Na28  1  0.98506600  0.50286584  0.75119331  1
  Na  Na29  1  0.49640802  -0.05194348  0.84315469  1
  Na  Na30  1  0.44743063  0.00814563  0.06479208  1
  Na  Na31  1  0.45224583  0.49542102  0.40426451  1
  Na  Na32  1  0.49089500  0.50829398  0.08293444  1
  Na  Na33  1  -0.01087555  1.04250234  0.19914316  1
  Na  Na34  1  0.50493490  0.99770154  0.58150045  1
  Na  Na35  1  0.02186778  0.49101226  0.24786230  1
  Na  Na36  1  0.01354691  0.48711280  0.92335245  1
  Na  Na37  1  0.50012900  0.49295152  0.25194746  1
  Na  Na38  1  0.01832116  0.99723264  0.91015188  1
  Na  Na39  1  0.53001351  0.46903124  0.57589774  1
  Na  Na40  1  0.01056417  0.49005333  0.58424993  1
  Na  Na41  1  0.49739429  0.50759531  0.91030691  1
  Na  Na42  1  0.75277697  0.75126545  0.33460893  1
  Na  Na43  1  0.25746775  0.26481849  -0.00681582  1
  Na  Na44  1  0.23867600  0.22494018  0.68554723  1
  Na  Na45  1  0.26885533  0.27012400  0.32912706  1
  Na  Na46  1  0.74826856  0.25031824  0.66643694  1
  Na  Na47  1  0.74423459  0.23929476  0.01720972  1
  Na  Na48  1  0.74929145  0.25295009  0.32780615  1
  Na  Na49  1  0.27142947  0.76657732  0.67135710  1
  Na  Na50  1  0.23783392  0.74174622  0.32946219  1
  Na  Na51  1  0.75601385  0.75193614  -0.00769710  1
  Na  Na52  1  0.26644065  0.78021725  0.83448817  1
  Na  Na53  1  0.24888123  0.74952540  0.50067920  1
  Na  Na54  1  0.74802359  0.24584980  0.83942438  1
  Na  Na55  1  0.75337955  0.75672255  0.16068791  1
  Na  Na56  1  0.74528981  0.24339202  0.50133235  1
  Na  Na57  1  0.75282533  0.75004057  0.81897169  1
  Na  Na58  1  0.74144796  0.74318239  0.51194525  1
  Na  Na59  1  0.25923438  0.26205673  0.16455728  1
  Na  Na60  1  0.25093266  0.75907090  0.15437256  1
  Na  Na61  1  0.25686645  0.25360011  0.49637388  1
  Fe  Fe62  1  0.46686421  0.30521464  0.78539191  1
  Fe  Fe63  1  0.96565713  0.30554784  0.45037109  1
  Fe  Fe64  1  0.96905269  0.80785068  0.45564185  1
  Fe  Fe65  1  0.96488662  0.30545428  0.78609525  1
  Fe  Fe66  1  0.97070924  0.29636501  0.12375315  1
  Fe  Fe67  1  0.46108612  0.80950359  0.45292491  1
  Fe  Fe68  1  0.46016540  0.81530428  0.12136810  1
  Fe  Fe69  1  0.96800242  0.80515691  0.78592660  1
  Fe  Fe70  1  0.96914665  0.80212113  0.12372113  1
  Fe  Fe71  1  0.46406996  0.30727625  0.11512488  1
  Fe  Fe72  1  0.19904061  0.03533613  0.04661546  1
  Fe  Fe73  1  0.19446656  0.53606006  0.05317097  1
  Fe  Fe74  1  0.69319781  0.53548584  0.38282894  1
  Fe  Fe75  1  0.68979864  0.03376629  0.37776016  1
  Fe  Fe76  1  0.68922211  0.03507862  0.04326247  1
  Fe  Fe77  1  0.18794275  0.03959139  0.37593512  1
  Fe  Fe78  1  0.69580641  0.03341658  0.71336468  1
  Fe  Fe79  1  0.69133887  0.53517742  0.04833808  1
  Fe  Fe80  1  0.19235031  0.53079689  0.71860754  1
  Fe  Fe81  1  0.20097130  0.53251284  0.37953185  1
  Fe  Fe82  1  0.04200953  0.69461542  0.55261255  1
  Fe  Fe83  1  0.53128598  0.19669352  0.53844518  1
  Fe  Fe84  1  0.53434036  0.19217846  0.21001718  1
  Fe  Fe85  1  0.04122209  0.69134601  0.88497846  1
  Fe  Fe86  1  0.53488259  0.69391905  0.55138537  1
  Fe  Fe87  1  0.53214233  0.69536294  0.21550295  1
  Fe  Fe88  1  0.53558242  0.18813121  0.87861323  1
  Fe  Fe89  1  0.53334799  0.69624045  0.87842535  1
  Fe  Fe90  1  0.03593039  0.19016130  0.55057719  1
  Fe  Fe91  1  0.03918408  0.18559902  0.87435760  1
  Fe  Fe92  1  0.81265684  0.96330902  0.95405903  1
  Fe  Fe93  1  0.80743244  0.46676333  0.28515828  1
  Fe  Fe94  1  0.81263096  0.96195256  0.62183696  1
  Fe  Fe95  1  0.30697247  0.46387389  0.95039708  1
  Fe  Fe96  1  0.30974915  0.46137627  0.62158472  1
  Fe  Fe97  1  0.30165312  0.96863642  0.62343350  1
  Fe  Fe98  1  0.80508614  0.46625188  0.95278266  1
  Fe  Fe99  1  0.80359399  0.96655478  0.28488187  1
  Fe  Fe100  1  0.30766361  0.96856410  0.28782897  1
  Fe  Fe101  1  0.79648552  0.46809649  0.61923279  1
  S  S102  1  0.35617195  0.14516127  0.08004845  1
  S  S103  1  0.35783188  0.14098882  0.41872317  1
  S  S104  1  0.36517016  0.13807459  0.74606498  1
  S  S105  1  0.36097380  0.64042016  0.08325261  1
  S  S106  1  0.36132074  0.64319688  0.41811183  1
  S  S107  1  0.35792971  0.63366981  0.75783246  1
  S  S108  1  0.85839839  0.13545992  0.08170734  1
  S  S109  1  0.85884182  0.13916217  0.41633602  1
  S  S110  1  0.85899139  0.14011460  0.75130789  1
  S  S111  1  0.85394734  0.64145047  0.08223641  1
  S  S112  1  0.86234295  0.64051640  0.42031162  1
  S  S113  1  0.86917065  0.63677621  0.74979170  1
  S  S114  1  0.13918024  0.36068256  0.25329517  1
  S  S115  1  0.13961741  0.35882525  0.58473506  1
  S  S116  1  0.13759402  0.36236104  0.91778208  1
  S  S117  1  0.13979809  0.86316875  0.24945510  1
  S  S118  1  0.14154175  0.85710179  0.57849974  1
  S  S119  1  0.13658365  0.86304991  0.92112783  1
  S  S120  1  0.63931376  0.36325029  0.24631458  1
  S  S121  1  0.64488156  0.35389572  0.58113203  1
  S  S122  1  0.63977791  0.35994206  0.92000381  1
  S  S123  1  0.63961630  0.85790209  0.25044182  1
  S  S124  1  0.63810878  0.86181631  0.58150843  1
  S  S125  1  0.64754463  0.85822555  0.91566861  1
  S  S126  1  0.07401551  0.17389536  0.04226829  1
  S  S127  1  0.06144611  0.16878305  0.37880631  1
  S  S128  1  0.06415042  0.17047906  0.71013146  1
  S  S129  1  0.06187216  0.66551166  0.04112190  1
  S  S130  1  0.06536575  0.66358730  0.37597781  1
  S  S131  1  0.07456373  0.66576545  0.71065071  1
  S  S132  1  0.56656451  0.17126530  0.04069237  1
  S  S133  1  0.57150658  0.16848791  0.37226516  1
  S  S134  1  0.57374673  0.17331347  0.70730418  1
  S  S135  1  0.56437984  0.66767410  0.04394535  1
  S  S136  1  0.56657576  0.67076762  0.37609610  1
  S  S137  1  0.56430697  0.66010563  0.70570328  1
  S  S138  1  0.33600705  0.43972512  0.12315199  1
  S  S139  1  0.33251777  0.43779684  0.46540646  1
  S  S140  1  0.33049329  0.42704554  0.79064996  1
  S  S141  1  0.32702020  0.93726296  0.12664547  1
  S  S142  1  0.32431865  0.93006677  0.45710297  1
  S  S143  1  0.32366618  0.92511822  0.77879136  1
  S  S144  1  0.83322046  0.43649007  0.12462466  1
  S  S145  1  0.83013119  0.43365998  0.45782126  1
  S  S146  1  0.83449424  0.43052733  0.79284044  1
  S  S147  1  0.82969793  0.93055164  0.12359354  1
  S  S148  1  0.82828882  0.93150561  0.45638125  1
  S  S149  1  0.83006050  0.92951025  0.79106777  1
  S  S150  1  0.44084375  0.33306449  0.28637682  1
  S  S151  1  0.43953562  0.33317169  0.62778847  1
  S  S152  1  0.43460950  0.33262233  0.95689758  1
  S  S153  1  0.42697581  0.82608541  0.28807258  1
  S  S154  1  0.43166910  0.83463860  0.62264827  1
  S  S155  1  0.44002015  0.82966908  0.95823597  1
  S  S156  1  0.92922421  0.33771280  0.29537006  1
  S  S157  1  0.93250532  0.33183079  0.62356445  1
  S  S158  1  0.93267884  0.33330902  0.96194306  1
  S  S159  1  0.92676818  0.83173484  0.29151742  1
  S  S160  1  0.93415273  0.82652827  0.62126220  1
  S  S161  1  0.92863809  0.82107125  0.95507611  1
  S  S162  1  0.18104217  0.07878498  0.21326653  1
  S  S163  1  0.17150259  0.06639543  0.54053571  1
  S  S164  1  0.16887776  0.07059277  0.88222887  1
  S  S165  1  0.16762599  0.56552954  0.20932502  1
  S  S166  1  0.17188914  0.56513465  0.54511731  1
  S  S167  1  0.16644830  0.56270037  0.87747967  1
  S  S168  1  0.67075941  0.06712820  0.20710416  1
  S  S169  1  0.67248640  0.06832517  0.54398784  1
  S  S170  1  0.67296204  0.06610172  0.87575491  1
  S  S171  1  0.66839052  0.56914500  0.21076000  1
  S  S172  1  0.66498863  0.56509416  0.53650339  1
  S  S173  1  0.66451150  0.56367164  0.87617021  1
  O  O174  1  0.36293914  0.22874291  0.08136736  1
  O  O175  1  0.36132722  0.21722314  0.40797895  1
  O  O176  1  0.38030484  0.21360565  0.73151894  1
  O  O177  1  0.37128410  0.71966073  0.07786056  1
  O  O178  1  0.36685126  0.72251886  0.40827778  1
  O  O179  1  0.35910256  0.71126016  0.75016016  1
  O  O180  1  0.87237559  0.21420344  0.07320034  1
  O  O181  1  0.86812651  0.21963323  0.41110247  1
  O  O182  1  0.86573805  0.21869653  0.74120480  1
  O  O183  1  0.86423212  0.72244317  0.07877008  1
  O  O184  1  0.87204928  0.71970079  0.41283043  1
  O  O185  1  0.88252556  0.71269553  0.73698799  1
  O  O186  1  0.27667518  0.13363230  0.08923705  1
  O  O187  1  0.27980524  0.12619474  0.42949541  1
  O  O188  1  0.28974020  0.13640671  0.75790214  1
  O  O189  1  0.28297352  0.63118523  0.09299705  1
  O  O190  1  0.28148327  0.63374422  0.42510113  1
  O  O191  1  0.28193984  0.61619762  0.76992130  1
  O  O192  1  0.77475570  0.12933375  0.07940110  1
  O  O193  1  0.78011046  0.12980631  0.42452935  1
  O  O194  1  0.77983526  0.13099022  0.76014687  1
  O  O195  1  0.77228303  0.63299496  0.08640329  1
  O  O196  1  0.78261764  0.63192168  0.42723499  1
  O  O197  1  0.79881296  0.63393661  0.77061739  1
  O  O198  1  0.12984847  0.28940952  0.27189566  1
  O  O199  1  0.13069514  0.28106564  0.59424252  1
  O  O200  1  0.12606431  0.28335051  0.92341050  1
  O  O201  1  0.13113139  0.79042496  0.26560364  1
  O  O202  1  0.14020884  0.77494774  0.58331508  1
  O  O203  1  0.12099069  0.78775364  0.93404694  1
  O  O204  1  0.63292865  0.28408679  0.25367082  1
  O  O205  1  0.63624079  0.26953387  0.57887359  1
  O  O206  1  0.63084022  0.27981111  0.92567591  1
  O  O207  1  0.63107267  0.77851274  0.25896725  1
  O  O208  1  0.62820863  0.78294609  0.58871827  1
  O  O209  1  0.63683806  0.77924662  0.92375946  1
  O  O210  1  0.21333489  0.36864678  0.23871566  1
  O  O211  1  0.21767463  0.36809803  0.57557584  1
  O  O212  1  0.21587030  0.37118156  0.90920797  1
  O  O213  1  0.21917671  0.87294578  0.24080163  1
  O  O214  1  0.22242278  0.87077082  0.57186938  1
  O  O215  1  0.21051126  0.86789603  0.90809272  1
  O  O216  1  0.71662514  0.37635179  0.23684743  1
  O  O217  1  0.72807816  0.36386488  0.57914955  1
  O  O218  1  0.71739443  0.36883423  0.90867900  1
  O  O219  1  0.71908125  0.86641742  0.24238564  1
  O  O220  1  0.71672724  0.87047169  0.57260796  1
  O  O221  1  0.73061075  0.86584113  0.91481804  1
  O  O222  1  0.41544750  0.13308658  0.14678189  1
  O  O223  1  0.41794303  0.13777928  0.48931954  1
  O  O224  1  0.42758500  0.12923990  0.81156905  1
  O  O225  1  0.42126270  0.62820468  0.14929302  1
  O  O226  1  0.41838082  0.63967256  0.48974331  1
  O  O227  1  0.42071710  0.62572397  0.82440051  1
  O  O228  1  0.90986088  0.12736721  0.15130123  1
  O  O229  1  0.91826528  0.12809659  0.48274388  1
  O  O230  1  0.91763587  0.13544389  0.82052801  1
  O  O231  1  0.90978784  0.62837094  0.14733641  1
  O  O232  1  0.92108395  0.63048193  0.48764438  1
  O  O233  1  0.93684771  0.62259854  0.80984936  1
  O  O234  1  0.36329775  0.09207468  0.01096734  1
  O  O235  1  0.36839241  0.07928611  0.35385856  1
  O  O236  1  0.36828838  0.07547782  0.67588109  1
  O  O237  1  0.36783426  0.58182892  0.01369378  1
  O  O238  1  0.37439820  0.58464858  0.35443522  1
  O  O239  1  0.36757446  0.57502681  0.68940611  1
  O  O240  1  0.86995264  0.07674491  0.01452752  1
  O  O241  1  0.86534480  0.08210842  0.34668441  1
  O  O242  1  0.86566848  0.08032227  0.68365353  1
  O  O243  1  0.86083575  0.58523071  0.01128604  1
  O  O244  1  0.86972889  0.58139427  0.35163335  1
  O  O245  1  0.86657915  0.57480147  0.67802278  1
  O  O246  1  0.07434028  0.36647329  0.18528414  1
  O  O247  1  0.07939404  0.36864006  0.51769574  1
  O  O248  1  0.07765651  0.37468691  0.85162440  1
  O  O249  1  0.08144396  0.86468843  0.17748453  1
  O  O250  1  0.08549064  0.85815615  0.50510241  1
  O  O251  1  0.07137557  0.87417753  0.85656847  1
  O  O252  1  0.57809283  0.37232140  0.17950368  1
  O  O253  1  0.59098632  0.36734695  0.51502691  1
  O  O254  1  0.57864261  0.37168184  0.85523892  1
  O  O255  1  0.58118718  0.86480630  0.18234275  1
  O  O256  1  0.57845935  0.87173565  0.51418963  1
  O  O257  1  0.59425437  0.86651591  0.84677037  1
  O  O258  1  0.13020637  0.42834551  0.31757311  1
  O  O259  1  0.13099435  0.41901454  0.65276540  1
  O  O260  1  0.13000210  0.42083219  0.98701593  1
  O  O261  1  0.12948989  0.92908602  0.31241407  1
  O  O262  1  0.12760702  0.91239072  0.64174198  1
  O  O263  1  0.13238256  0.92621709  0.99090624  1
  O  O264  1  0.63070861  0.42182171  0.31469069  1
  O  O265  1  0.63666550  0.40552685  0.65091785  1
  O  O266  1  0.63581642  0.41731390  0.99083549  1
  O  O267  1  0.63378685  0.91616232  0.31926315  1
  O  O268  1  0.63055244  0.92138419  0.64961332  1
  O  O269  1  0.63821113  0.91755283  0.98352691  1
  O  O270  1  0.03529558  0.19791283  0.09991864  1
  O  O271  1  0.02876114  0.20232105  0.44408458  1
  O  O272  1  0.02559740  0.20764664  0.77107133  1
  O  O273  1  0.02343781  0.69435863  0.09884591  1
  O  O274  1  0.03216556  0.69375791  0.44045308  1
  O  O275  1  0.04595826  0.70418042  0.77520066  1
  O  O276  1  0.52817188  0.20235462  0.10087467  1
  O  O277  1  0.53419259  0.19049297  0.43100643  1
  O  O278  1  0.54216609  0.20281367  0.77178636  1
  O  O279  1  0.53163566  0.69838851  0.10706491  1
  O  O280  1  0.53155723  0.69977176  0.43769381  1
  O  O281  1  0.53036078  0.68141144  0.76797800  1
  O  O282  1  0.30036963  0.46962448  0.05684444  1
  O  O283  1  0.30050901  0.47205245  0.40415261  1
  O  O284  1  0.29736914  0.45845838  0.72672015  1
  O  O285  1  0.29609725  0.97655878  0.06809311  1
  O  O286  1  0.29611126  0.96585883  0.39623287  1
  O  O287  1  0.29801544  0.96500533  0.71830555  1
  O  O288  1  0.80159778  0.47369241  0.06353827  1
  O  O289  1  0.79966426  0.46884909  0.39562593  1
  O  O290  1  0.81349780  0.46405260  0.73162757  1
  O  O291  1  0.80051442  0.96888207  0.06419614  1
  O  O292  1  0.79724063  0.96996698  0.39657987  1
  O  O293  1  0.80031876  0.96583790  0.72921181  1
  O  O294  1  0.47421115  0.29435232  0.22240901  1
  O  O295  1  0.47801408  0.30521172  0.57025150  1
  O  O296  1  0.46642069  0.29741732  0.89338234  1
  O  O297  1  0.46772027  0.79870419  0.22913854  1
  O  O298  1  0.46670036  0.80453377  0.55895868  1
  O  O299  1  0.48130831  0.79542169  0.90303923  1
  O  O300  1  0.95488692  0.30643872  0.22976912  1
  O  O301  1  0.96915129  0.29971511  0.56310771  1
  O  O302  1  0.96633562  0.30476920  0.89923671  1
  O  O303  1  0.95890898  0.81025538  0.22936475  1
  O  O304  1  0.97614460  0.79809715  0.56344987  1
  O  O305  1  0.96218476  0.78760963  0.89246855  1
  O  O306  1  0.20894243  0.03572050  0.27048629  1
  O  O307  1  0.20449328  0.02896623  0.59898854  1
  O  O308  1  0.18847861  0.03429171  0.94434719  1
  O  O309  1  0.20533480  0.54032331  0.27489266  1
  O  O310  1  0.19991983  0.52987562  0.60721494  1
  O  O311  1  0.20044166  0.53072093  0.94143490  1
  O  O312  1  0.69771670  0.02719017  0.26665306  1
  O  O313  1  0.70333668  0.03006212  0.60396499  1
  O  O314  1  0.70368658  0.02652620  0.93425163  1
  O  O315  1  0.70145222  0.53673197  0.27413395  1
  O  O316  1  0.69494236  0.53010797  0.59687929  1
  O  O317  1  0.69678739  0.52884877  0.93948299  1
  O  O318  1  0.09834817  0.09318481  0.03675956  1
  O  O319  1  0.07956278  0.08767538  0.37740638  1
  O  O320  1  0.07907897  0.09284646  0.70989745  1
  O  O321  1  0.08185586  0.58350245  0.03932285  1
  O  O322  1  0.08838907  0.58302825  0.37554787  1
  O  O323  1  0.08162951  0.58078139  0.70633171  1
  O  O324  1  0.58610074  0.09131582  0.03966039  1
  O  O325  1  0.59267312  0.08735834  0.36151923  1
  O  O326  1  0.59143717  0.09109553  0.69947453  1
  O  O327  1  0.58096092  0.58427587  0.03934024  1
  O  O328  1  0.58486736  0.58859646  0.36826918  1
  O  O329  1  0.57221932  0.57570839  0.68487762  1
  O  O330  1  0.41628295  0.41798730  0.12027349  1
  O  O331  1  0.41452059  0.42594631  0.47216896  1
  O  O332  1  0.41386298  0.41411984  0.79737263  1
  O  O333  1  0.40592723  0.91633075  0.12246800  1
  O  O334  1  0.40765381  0.91546287  0.46664802  1
  O  O335  1  0.38502260  0.87625437  0.76392461  1
  O  O336  1  0.91561848  0.42265149  0.13116298  1
  O  O337  1  0.91373882  0.41936500  0.46505121  1
  O  O338  1  0.91937541  0.41447293  0.80722964  1
  O  O339  1  0.90976891  0.90969468  0.12670770  1
  O  O340  1  0.90854422  0.91224879  0.45807454  1
  O  O341  1  0.91061704  0.90930280  0.79510477  1
  O  O342  1  0.42479166  0.41188379  0.28165942  1
  O  O343  1  0.42200648  0.41624291  0.63440942  1
  O  O344  1  0.42103819  0.41620266  0.96010977  1
  O  O345  1  0.40558186  0.90476598  0.29131077  1
  O  O346  1  0.40049519  0.91078640  0.61704664  1
  O  O347  1  0.42812942  0.90977168  0.95933838  1
  O  O348  1  0.91616642  0.42292869  0.30476942  1
  O  O349  1  0.91381826  0.41274673  0.62445655  1
  O  O350  1  0.91722428  0.41736105  0.96998851  1
  O  O351  1  0.90745922  0.91474765  0.30713794  1
  O  O352  1  0.91192318  0.90516595  0.62225718  1
  O  O353  1  0.91278633  0.90226151  0.95782347  1
  O  O354  1  0.10322741  0.09890774  0.21053670  1
  O  O355  1  0.09048328  0.08515869  0.53958409  1
  O  O356  1  0.08251962  0.08041060  0.86554483  1
  O  O357  1  0.08358906  0.56918424  0.19924359  1
  O  O358  1  0.08860420  0.58227046  0.53971769  1
  O  O359  1  0.08253958  0.57413882  0.87175210  1
  O  O360  1  0.58997461  0.08692434  0.19981579  1
  O  O361  1  0.59343512  0.08987646  0.54357773  1
  O  O362  1  0.59183257  0.08289127  0.87282436  1
  O  O363  1  0.58544783  0.58375922  0.20571027  1
  O  O364  1  0.58234498  0.58242472  0.52987080  1
  O  O365  1  0.58500550  0.58738098  0.87885805  1
  O  O366  1  0.14244219  0.22994211  0.05798929  1
  O  O367  1  0.13354279  0.21940644  0.39481742  1
  O  O368  1  0.13298738  0.22538980  0.72514998  1
  O  O369  1  0.13258014  0.71645926  0.05492653  1
  O  O370  1  0.13572315  0.71664274  0.39051976  1
  O  O371  1  0.14901512  0.70613150  0.71867936  1
  O  O372  1  0.63651147  0.22483730  0.05719639  1
  O  O373  1  0.64227093  0.22370852  0.39044146  1
  O  O374  1  0.64535023  0.22554136  0.72296106  1
  O  O375  1  0.63596105  0.71759558  0.05722075  1
  O  O376  1  0.63791466  0.72300251  0.39186816  1
  O  O377  1  0.63792591  0.70989741  0.72515341  1
  O  O378  1  0.28480927  0.36981892  0.11196914  1
  O  O379  1  0.28288705  0.36427268  0.45006626  1
  O  O380  1  0.28252553  0.35554104  0.77906863  1
  O  O381  1  0.27455792  0.86766725  0.11284981  1
  O  O382  1  0.27375085  0.85709472  0.43926038  1
  O  O383  1  0.25469089  0.87240408  0.77005993  1
  O  O384  1  0.78264955  0.36444644  0.10726328  1
  O  O385  1  0.78082728  0.36052361  0.44082440  1
  O  O386  1  0.78367883  0.35856044  0.77718682  1
  O  O387  1  0.77454240  0.86094804  0.10740371  1
  O  O388  1  0.77512020  0.86064762  0.43977479  1
  O  O389  1  0.77603057  0.86115957  0.77712425  1
  O  O390  1  0.36776859  0.28344273  0.27165865  1
  O  O391  1  0.36654505  0.28317673  0.61091532  1
  O  O392  1  0.36296419  0.28673096  0.94734330  1
  O  O393  1  0.35777541  0.76949028  0.26866631  1
  O  O394  1  0.36555127  0.77599672  0.60815337  1
  O  O395  1  0.36648717  0.77989112  0.94029549  1
  O  O396  1  0.85811202  0.29223032  0.28968034  1
  O  O397  1  0.86290400  0.27884320  0.60988724  1
  O  O398  1  0.85936940  0.28373791  0.94557968  1
  O  O399  1  0.85610723  0.77749442  0.27521544  1
  O  O400  1  0.86494878  0.77071107  0.60159511  1
  O  O401  1  0.85633924  0.77001172  0.93950365  1
  O  O402  1  0.23835599  0.14701487  0.23224754  1
  O  O403  1  0.22189558  0.13934487  0.55677373  1
  O  O404  1  0.21512097  0.14751154  0.90864738  1
  O  O405  1  0.20925042  0.64086282  0.21713356  1
  O  O406  1  0.22315177  0.63676224  0.56136827  1
  O  O407  1  0.21128935  0.63551719  0.88872246  1
  O  O408  1  0.72584031  0.13703003  0.22715399  1
  O  O409  1  0.72829718  0.13732581  0.56007100  1
  O  O410  1  0.72483671  0.13919631  0.89537588  1
  O  O411  1  0.71744633  0.64100924  0.22348169  1
  O  O412  1  0.71561065  0.63568736  0.54837917  1
  O  O413  1  0.71790933  0.63288878  0.88979316  1
  O  O414  1  0.49712949  0.33686359  0.02868569  1
  O  O415  1  0.49848189  0.33876365  0.35844301  1
  O  O416  1  0.49647607  0.33692368  0.70314950  1
  O  O417  1  0.49350357  0.83065363  0.03516163  1
  O  O418  1  0.48551426  0.82828801  0.36129247  1
  O  O419  1  0.49446271  0.84853791  0.69313434  1
  O  O420  1  0.99116470  0.33177088  0.03308977  1
  O  O421  1  0.99347200  0.33955489  0.36615974  1
  O  O422  1  0.99159490  0.33972387  0.69835935  1
  O  O423  1  0.98730795  0.82232111  0.02728274  1
  O  O424  1  0.98801450  0.82876999  0.36152590  1
  O  O425  1  0.99185118  0.83038397  0.69499123  1
  O  O426  1  0.17969760  0.02071875  0.13840369  1
  O  O427  1  0.16403271  0.00897840  0.46521771  1
  O  O428  1  0.18317927  0.01792417  0.81720736  1
  O  O429  1  0.17494811  0.50539319  0.13925274  1
  O  O430  1  0.16832551  0.50596384  0.47259230  1
  O  O431  1  0.16502269  0.50036317  0.80637577  1
  O  O432  1  0.67077411  0.00824581  0.13504952  1
  O  O433  1  0.66764087  0.00953683  0.47046686  1
  O  O434  1  0.67119786  0.00996416  0.80220956  1
  O  O435  1  0.66612614  0.50838157  0.13903431  1
  O  O436  1  0.66190784  0.50428960  0.46297371  1
  O  O437  1  0.65346982  0.50300223  0.80449635  1
  O  O438  1  0.00022304  0.16479274  0.30898184  1
  O  O439  1  0.00414626  0.17156065  0.63710474  1
  O  O440  1  0.01480460  0.16685067  0.96711932  1
  O  O441  1  0.00421527  0.65605682  0.30557106  1
  O  O442  1  0.01276201  0.66407279  0.63893764  1
  O  O443  1  0.00391213  0.65635498  0.96490039  1
  O  O444  1  0.51331579  0.16998916  0.30005077  1
  O  O445  1  0.51278407  0.17284751  0.63671196  1
  O  O446  1  0.50747125  0.16723690  0.96773359  1
  O  O447  1  0.50641176  0.66846494  0.30363610  1
  O  O448  1  0.50614576  0.67553103  0.63887578  1
  O  O449  1  0.50402335  0.66316192  0.97191667  1
  O  O450  1  0.34682431  0.50282215  0.19279098  1
  O  O451  1  0.33032745  0.49594722  0.53831919  1
  O  O452  1  0.33214361  0.48981050  0.86174281  1
  O  O453  1  0.33805988  0.99571874  0.20183846  1
  O  O454  1  0.32268113  0.98879084  0.52924692  1
  O  O455  1  0.35246401  0.98697895  0.85128704  1
  O  O456  1  0.83178821  0.49553664  0.19659647  1
  O  O457  1  0.82932625  0.49246384  0.52905842  1
  O  O458  1  0.83139618  0.49012078  0.86375565  1
  O  O459  1  0.83500420  0.98984705  0.19747174  1
  O  O460  1  0.83142287  0.98939078  0.52971572  1
  O  O461  1  0.83584260  0.99171715  0.86350399  1
