# generated using pymatgen
data_Na31Fe20(SO4)36
_symmetry_space_group_name_H-M   'P 1'
_cell_length_a   18.07636654
_cell_length_b   18.06916875
_cell_length_c   19.72417567
_cell_angle_alpha   107.58680416
_cell_angle_beta   107.62089135
_cell_angle_gamma   90.71871281
_symmetry_Int_Tables_number   1
_chemical_formula_structural   Na31Fe20(SO4)36
_chemical_formula_sum   'Na62 Fe40 S72 O288'
_cell_volume   5814.66195372
_cell_formula_units_Z   2
loop_
 _symmetry_equiv_pos_site_id
 _symmetry_equiv_pos_as_xyz
  1  'x, y, z'
loop_
 _atom_site_type_symbol
 _atom_site_label
 _atom_site_symmetry_multiplicity
 _atom_site_fract_x
 _atom_site_fract_y
 _atom_site_fract_z
 _atom_site_occupancy
  Na  Na0  1  0.12875056  0.36332181  0.08651131  1
  Na  Na1  1  0.12985874  0.36740877  0.42056270  1
  Na  Na2  1  0.12727796  0.36369443  0.74523060  1
  Na  Na3  1  0.14252774  0.87550899  0.09568037  1
  Na  Na4  1  0.14366071  0.86509225  0.41975999  1
  Na  Na5  1  0.12879432  0.87093852  0.74897846  1
  Na  Na6  1  0.62578464  0.36216157  0.06946774  1
  Na  Na7  1  0.63123519  0.36587327  0.41527091  1
  Na  Na8  1  0.63566166  0.36590057  0.75256119  1
  Na  Na9  1  0.65411195  0.86412191  0.08320196  1
  Na  Na10  1  0.64416051  0.86414227  0.43933611  1
  Na  Na11  1  0.63617886  0.85788057  0.73628131  1
  Na  Na12  1  0.35700140  0.13311843  0.25146213  1
  Na  Na13  1  0.36244863  0.12192766  0.57318239  1
  Na  Na14  1  0.37307693  0.13388235  0.91656622  1
  Na  Na15  1  0.37191862  0.64685505  0.26468642  1
  Na  Na16  1  0.36146389  0.64083634  0.57593941  1
  Na  Na17  1  0.37309968  0.62467886  0.91646943  1
  Na  Na18  1  0.86481280  0.12711726  0.23840454  1
  Na  Na19  1  0.86242514  0.13633776  0.58172740  1
  Na  Na20  1  0.87196172  0.13504439  0.92370047  1
  Na  Na21  1  0.86715462  0.63487098  0.25334155  1
  Na  Na22  1  0.84159383  0.65618849  0.57921435  1
  Na  Na23  1  0.86061482  0.64199586  0.92128440  1
  Na  Na24  1  0.49369150  0.52294882  0.41016659  1
  Na  Na25  1  0.44842848  -0.01064530  0.41501957  1
  Na  Na26  1  0.98596616  0.51829811  0.74705295  1
  Na  Na27  1  0.49755768  0.03605551  0.74088515  1
  Na  Na28  1  0.99077861  0.02019445  0.06148172  1
  Na  Na29  1  0.49547528  0.48728588  0.77781832  1
  Na  Na30  1  0.52214100  -0.01143226  0.07679165  1
  Na  Na31  1  1.00388796  0.04563333  0.43643459  1
  Na  Na32  1  0.99449800  0.49675511  0.09086273  1
  Na  Na33  1  0.56021989  1.00813837  0.92887484  1
  Na  Na34  1  0.48373245  1.00747347  0.25933931  1
  Na  Na35  1  0.00782621  0.49986598  0.56284849  1
  Na  Na36  1  0.00089014  0.46463305  0.25517803  1
  Na  Na37  1  0.50326175  0.49655247  0.58451629  1
  Na  Na38  1  -0.02004618  1.01487288  0.60440913  1
  Na  Na39  1  0.05128161  0.98939129  0.26349454  1
  Na  Na40  1  0.51105748  0.49974221  0.22417027  1
  Na  Na41  1  0.00819390  0.49174116  0.91733667  1
  Na  Na42  1  0.74874367  0.24538785  0.33059002  1
  Na  Na43  1  0.24699630  0.24965560  0.00125039  1
  Na  Na44  1  0.23679630  0.23367334  0.34400085  1
  Na  Na45  1  0.25649451  0.75645675  0.65946433  1
  Na  Na46  1  0.74086747  0.24010563  0.00432174  1
  Na  Na47  1  0.25550327  0.75477256  -0.00263715  1
  Na  Na48  1  0.23047474  0.23199990  0.66706256  1
  Na  Na49  1  0.74270761  0.24471209  0.66963951  1
  Na  Na50  1  0.26670867  0.76769891  0.33917002  1
  Na  Na51  1  0.74665508  0.74739038  0.34760662  1
  Na  Na52  1  0.24635316  0.24681472  0.83484543  1
  Na  Na53  1  0.74248419  0.23490265  0.16405847  1
  Na  Na54  1  0.74391237  0.24069266  0.84044573  1
  Na  Na55  1  0.25645647  0.75462084  0.82623437  1
  Na  Na56  1  0.22730486  0.22116056  0.50238807  1
  Na  Na57  1  0.26696176  0.76635557  0.16966772  1
  Na  Na58  1  0.75171712  0.75814641  0.83077716  1
  Na  Na59  1  0.76020662  0.75558348  0.15956252  1
  Na  Na60  1  0.24292550  0.24416878  0.17198394  1
  Na  Na61  1  0.75044084  0.25019272  0.49974465  1
  Fe  Fe62  1  0.96574218  0.81042778  0.45787811  1
  Fe  Fe63  1  0.46874435  0.29546880  0.78937543  1
  Fe  Fe64  1  0.46886102  0.80844057  0.12141621  1
  Fe  Fe65  1  0.96130796  0.81796243  0.78434997  1
  Fe  Fe66  1  0.46398136  0.30494671  0.11591722  1
  Fe  Fe67  1  0.46719229  0.80755893  0.78689806  1
  Fe  Fe68  1  0.96863829  0.80711515  0.12097240  1
  Fe  Fe69  1  0.96479584  0.30391409  0.45710408  1
  Fe  Fe70  1  0.46453565  0.30744421  0.45026565  1
  Fe  Fe71  1  0.95939569  0.30807463  0.78315022  1
  Fe  Fe72  1  0.69618893  0.02902506  0.38100311  1
  Fe  Fe73  1  0.18629167  0.03594529  0.71102953  1
  Fe  Fe74  1  0.69269382  0.53782430  0.04571836  1
  Fe  Fe75  1  0.19484871  0.53693103  0.05197591  1
  Fe  Fe76  1  0.19355426  0.53787923  0.38530403  1
  Fe  Fe77  1  0.69457119  0.53404039  0.38322126  1
  Fe  Fe78  1  0.19390962  0.53142925  0.71613085  1
  Fe  Fe79  1  0.68963091  0.54148689  0.71542290  1
  Fe  Fe80  1  0.18888903  0.03447490  0.04149159  1
  Fe  Fe81  1  0.69805821  0.02389742  0.70119802  1
  Fe  Fe82  1  0.02978928  0.19190986  0.87674533  1
  Fe  Fe83  1  0.03432316  0.69090325  0.54712744  1
  Fe  Fe84  1  0.53580207  0.18832825  0.21058154  1
  Fe  Fe85  1  0.53131799  0.70944204  0.54531469  1
  Fe  Fe86  1  0.03164473  0.69640661  0.88110546  1
  Fe  Fe87  1  0.53848020  0.69251040  0.88267470  1
  Fe  Fe88  1  0.02784547  0.20283280  0.20536787  1
  Fe  Fe89  1  0.53408018  0.19120207  0.54276881  1
  Fe  Fe90  1  0.53747889  0.69246846  0.21402056  1
  Fe  Fe91  1  0.03747505  0.69347967  0.22154327  1
  Fe  Fe92  1  0.81245085  0.96671605  0.28572003  1
  Fe  Fe93  1  0.30782740  0.96579901  0.95286017  1
  Fe  Fe94  1  0.80706044  0.46621727  0.95103617  1
  Fe  Fe95  1  0.80620267  0.46475352  0.28358522  1
  Fe  Fe96  1  0.30667103  0.46310589  0.28612838  1
  Fe  Fe97  1  0.30871529  0.46442027  0.95492924  1
  Fe  Fe98  1  0.80083679  0.47121653  0.61732176  1
  Fe  Fe99  1  0.30495564  0.95972142  0.61777819  1
  Fe  Fe100  1  0.80142205  0.96652942  0.95491335  1
  Fe  Fe101  1  0.30777202  0.46403726  0.61915723  1
  S  S102  1  0.35828100  0.14014509  0.08498219  1
  S  S103  1  0.36184821  0.14344689  0.41279990  1
  S  S104  1  0.35656083  0.13760381  0.74739245  1
  S  S105  1  0.35916569  0.64025518  0.08481859  1
  S  S106  1  0.36176377  0.63657240  0.41546417  1
  S  S107  1  0.36101726  0.63618086  0.75388715  1
  S  S108  1  0.85796155  0.13928596  0.07778423  1
  S  S109  1  0.85638152  0.14192914  0.41735349  1
  S  S110  1  0.85734466  0.14164343  0.74775772  1
  S  S111  1  0.86575025  0.63826408  0.08458954  1
  S  S112  1  0.86203593  0.63673418  0.41809340  1
  S  S113  1  0.85962317  0.64420381  0.74855022  1
  S  S114  1  0.14060046  0.36380685  0.25385870  1
  S  S115  1  0.14093441  0.36090453  0.58168690  1
  S  S116  1  0.13761243  0.36354424  0.91690672  1
  S  S117  1  0.14299975  0.85272112  0.24969315  1
  S  S118  1  0.14178985  0.85621632  0.58675070  1
  S  S119  1  0.14096984  0.85689437  0.91578897  1
  S  S120  1  0.64045876  0.35968519  0.24728648  1
  S  S121  1  0.63668810  0.36302212  0.58321643  1
  S  S122  1  0.64077714  0.36370530  0.91395386  1
  S  S123  1  0.64540801  0.85759572  0.24788481  1
  S  S124  1  0.63739925  0.85522255  0.58175808  1
  S  S125  1  0.64049383  0.85800651  0.91953847  1
  S  S126  1  0.07097677  0.17528876  0.04095979  1
  S  S127  1  0.06023775  0.17344560  0.37076936  1
  S  S128  1  0.06182419  0.17453393  0.71215739  1
  S  S129  1  0.06893755  0.66872509  0.04203177  1
  S  S130  1  0.06766041  0.66414224  0.37450577  1
  S  S131  1  0.06737536  0.66308455  0.70877045  1
  S  S132  1  0.56212011  0.16791472  0.04486721  1
  S  S133  1  0.57098387  0.17122924  0.37441408  1
  S  S134  1  0.57369082  0.17149382  0.70647456  1
  S  S135  1  0.57012732  0.67283301  0.04530707  1
  S  S136  1  0.57009130  0.65847021  0.36996992  1
  S  S137  1  0.56290957  0.66908406  0.70980717  1
  S  S138  1  0.32735686  0.43222468  0.12488008  1
  S  S139  1  0.33253463  0.43136178  0.45807138  1
  S  S140  1  0.32625441  0.42399906  0.78834824  1
  S  S141  1  0.33411488  0.93608301  0.12199272  1
  S  S142  1  0.33349376  0.93131447  0.46456069  1
  S  S143  1  0.32910116  0.93186817  0.79189568  1
  S  S144  1  0.82997477  0.43646889  0.12237349  1
  S  S145  1  0.82518054  0.43023157  0.45663546  1
  S  S146  1  0.82865148  0.44010449  0.78901838  1
  S  S147  1  0.84132757  0.92937679  0.12772477  1
  S  S148  1  0.83689855  0.93766281  0.45620471  1
  S  S149  1  0.82508677  0.93224417  0.79366206  1
  S  S150  1  0.43413845  0.33085885  0.28823951  1
  S  S151  1  0.43065855  0.33063274  0.62499738  1
  S  S152  1  0.42661905  0.32951883  0.95679784  1
  S  S153  1  0.44780213  0.83113927  0.29103370  1
  S  S154  1  0.43011454  0.83011839  0.63395007  1
  S  S155  1  0.43331208  0.82761130  0.95687903  1
  S  S156  1  0.92764209  0.32668669  0.29186350  1
  S  S157  1  0.92751925  0.33829096  0.62619126  1
  S  S158  1  0.93510856  0.33972757  0.95588632  1
  S  S159  1  0.93475651  0.82828505  0.29362560  1
  S  S160  1  0.93931332  0.83172031  0.62384120  1
  S  S161  1  0.93246584  0.83022445  0.95636401  1
  S  S162  1  0.16027550  0.07388149  0.20192322  1
  S  S163  1  0.16457011  0.05726902  0.54670523  1
  S  S164  1  0.17268195  0.07090298  0.87679638  1
  S  S165  1  0.17222475  0.56736505  0.21206924  1
  S  S166  1  0.17280201  0.56831874  0.54704879  1
  S  S167  1  0.16740842  0.56682766  0.87715919  1
  S  S168  1  0.66787732  0.06107357  0.21003032  1
  S  S169  1  0.66663314  0.06936621  0.53845902  1
  S  S170  1  0.67425229  0.06552910  0.86771401  1
  S  S171  1  0.67358217  0.56742052  0.20893232  1
  S  S172  1  0.66022238  0.56531497  0.54007109  1
  S  S173  1  0.67153744  0.57019775  0.87333846  1
  O  O174  1  0.36491227  0.22020618  0.07833209  1
  O  O175  1  0.37595864  0.22193272  0.40098005  1
  O  O176  1  0.36726918  0.21521268  0.73606042  1
  O  O177  1  0.36775628  0.72003928  0.07771239  1
  O  O178  1  0.36716096  0.70796027  0.39719547  1
  O  O179  1  0.36654071  0.71801121  0.75230671  1
  O  O180  1  0.86678018  0.21013575  0.05849342  1
  O  O181  1  0.86194899  0.22410451  0.41469082  1
  O  O182  1  0.86186951  0.22463417  0.74486013  1
  O  O183  1  0.87685303  0.71630100  0.07648666  1
  O  O184  1  0.87219172  0.71554775  0.40986184  1
  O  O185  1  0.87298744  0.72303600  0.74443852  1
  O  O186  1  0.27900153  0.12912998  0.09205313  1
  O  O187  1  0.28287534  0.14036495  0.41781336  1
  O  O188  1  0.27393007  0.13245840  0.75025712  1
  O  O189  1  0.28059201  0.63269677  0.09539941  1
  O  O190  1  0.28591933  0.62375718  0.42834872  1
  O  O191  1  0.28441945  0.62384437  0.76667242  1
  O  O192  1  0.78316385  0.12885080  0.09006910  1
  O  O193  1  0.77598030  0.13064723  0.42335176  1
  O  O194  1  0.77471123  0.12745208  0.74924259  1
  O  O195  1  0.78742465  0.63067279  0.09403889  1
  O  O196  1  0.78288835  0.62702029  0.42564359  1
  O  O197  1  0.78074733  0.63512269  0.75650120  1
  O  O198  1  0.12849363  0.28295941  0.25813327  1
  O  O199  1  0.13462894  0.28155964  0.58500539  1
  O  O200  1  0.12887734  0.28436694  0.92390218  1
  O  O201  1  0.13303259  0.76973323  0.25200622  1
  O  O202  1  0.13181945  0.77900523  0.59841860  1
  O  O203  1  0.13160420  0.77762314  0.92418946  1
  O  O204  1  0.63083295  0.27951478  0.25304488  1
  O  O205  1  0.62831327  0.28416813  0.59131807  1
  O  O206  1  0.63936885  0.28805488  0.92639202  1
  O  O207  1  0.63810110  0.77692656  0.25293675  1
  O  O208  1  0.62728019  0.78526626  0.60780092  1
  O  O209  1  0.63158663  0.77777723  0.92435656  1
  O  O210  1  0.22084167  0.36889477  0.24597739  1
  O  O211  1  0.21675360  0.37485012  0.56800434  1
  O  O212  1  0.21594181  0.37198463  0.90719459  1
  O  O213  1  0.21955875  0.86381204  0.24130162  1
  O  O214  1  0.22380540  0.86462424  0.58537692  1
  O  O215  1  0.22112895  0.86469211  0.90898141  1
  O  O216  1  0.71837781  0.36699325  0.23675270  1
  O  O217  1  0.71473232  0.37184930  0.57340303  1
  O  O218  1  0.71629475  0.37757024  0.89848443  1
  O  O219  1  0.72376339  0.86905553  0.23889899  1
  O  O220  1  0.71309963  0.86288243  0.57226298  1
  O  O221  1  0.72177727  0.86928494  0.91590521  1
  O  O222  1  0.41694726  0.13301531  0.15358910  1
  O  O223  1  0.41908465  0.14182769  0.48610086  1
  O  O224  1  0.41208302  0.13010703  0.81510057  1
  O  O225  1  0.41899854  0.62957268  0.15033143  1
  O  O226  1  0.42459231  0.63413929  0.48476511  1
  O  O227  1  0.42372888  0.62358472  0.81763959  1
  O  O228  1  0.92227352  0.13742595  0.14731248  1
  O  O229  1  0.91518744  0.13079829  0.48187028  1
  O  O230  1  0.91145771  0.13866438  0.82058184  1
  O  O231  1  0.92551072  0.62799054  0.15161767  1
  O  O232  1  0.92023095  0.62803281  0.48619940  1
  O  O233  1  0.91851790  0.63044848  0.81506297  1
  O  O234  1  0.36750106  0.08271377  0.01695273  1
  O  O235  1  0.37612209  0.08236292  0.35108581  1
  O  O236  1  0.36520391  0.07615607  0.68016911  1
  O  O237  1  0.36128475  0.58244367  0.01372896  1
  O  O238  1  0.37196395  0.56979507  0.35138709  1
  O  O239  1  0.36470420  0.58154423  0.68198573  1
  O  O240  1  0.86935555  0.07104078  0.01525841  1
  O  O241  1  0.86357684  0.08826837  0.34575009  1
  O  O242  1  0.87179090  0.08827123  0.68292708  1
  O  O243  1  0.87261485  0.57795585  0.01629853  1
  O  O244  1  0.86865258  0.57773335  0.34932000  1
  O  O245  1  0.86591296  0.58540982  0.67901543  1
  O  O246  1  0.08290790  0.37879678  0.19084715  1
  O  O247  1  0.07722225  0.37512719  0.51906843  1
  O  O248  1  0.07756504  0.37501508  0.85091087  1
  O  O249  1  0.08176653  0.86095734  0.18039519  1
  O  O250  1  0.08690864  0.85932944  0.51509711  1
  O  O251  1  0.08367960  0.86333682  0.84679956  1
  O  O252  1  0.57971489  0.37230013  0.18238454  1
  O  O253  1  0.57635036  0.37135404  0.51570424  1
  O  O254  1  0.57712251  0.36710598  0.84577231  1
  O  O255  1  0.58564232  0.86675246  0.18047899  1
  O  O256  1  0.57224209  0.85037175  0.51495046  1
  O  O257  1  0.58453063  0.86511926  0.84876894  1
  O  O258  1  0.13724675  0.42003519  0.32598194  1
  O  O259  1  0.13684223  0.41816203  0.65348204  1
  O  O260  1  0.13155679  0.42252452  0.98628188  1
  O  O261  1  0.13042503  0.90675824  0.31604562  1
  O  O262  1  0.13009026  0.91780879  0.65153321  1
  O  O263  1  0.13399910  0.91579467  0.98391516  1
  O  O264  1  0.63600019  0.41683284  0.31788205  1
  O  O265  1  0.62907673  0.42250794  0.65113521  1
  O  O266  1  0.63386991  0.42592059  0.98054484  1
  O  O267  1  0.63786946  0.91407068  0.31712706  1
  O  O268  1  0.63073073  0.92446490  0.64842735  1
  O  O269  1  0.62758298  0.91599756  0.98423583  1
  O  O270  1  0.03997308  0.20590549  0.10377887  1
  O  O271  1  0.01965263  0.20541190  0.42674930  1
  O  O272  1  0.02981357  0.20877523  0.77737794  1
  O  O273  1  0.03331533  0.69789404  0.10262996  1
  O  O274  1  0.03498259  0.69469051  0.43776900  1
  O  O275  1  0.03269183  0.69318690  0.77033792  1
  O  O276  1  0.52687672  0.20542099  0.10826806  1
  O  O277  1  0.53789835  0.20423871  0.43716549  1
  O  O278  1  0.53415095  0.19562782  0.76410125  1
  O  O279  1  0.52864116  0.69988384  0.10295362  1
  O  O280  1  0.53849155  0.67811737  0.43265275  1
  O  O281  1  0.52470530  0.69776727  0.77017245  1
  O  O282  1  0.29758812  0.46878870  0.06381595  1
  O  O283  1  0.29947376  0.46621884  0.39703416  1
  O  O284  1  0.29946286  0.46248264  0.72805764  1
  O  O285  1  0.29947458  0.96644136  0.05640988  1
  O  O286  1  0.31244403  0.97124724  0.40842082  1
  O  O287  1  0.30040386  0.96916803  0.73156719  1
  O  O288  1  0.79405065  0.47115077  0.05992696  1
  O  O289  1  0.79718556  0.46421609  0.39376728  1
  O  O290  1  0.79654686  0.47582012  0.72763689  1
  O  O291  1  0.81577336  0.96029245  0.06439738  1
  O  O292  1  0.80519536  0.96972774  0.39039577  1
  O  O293  1  0.79458039  0.97015127  0.73439324  1
  O  O294  1  0.47116370  0.30105268  0.22800828  1
  O  O295  1  0.46771001  0.30493458  0.56427824  1
  O  O296  1  0.45934681  0.30358141  0.89509020  1
  O  O297  1  0.47574646  0.79180845  0.22247580  1
  O  O298  1  0.45687432  0.79892172  0.56917696  1
  O  O299  1  0.46909634  0.79755958  0.89568165  1
  O  O300  1  0.96687670  0.30061961  0.23362923  1
  O  O301  1  0.96319790  0.31428736  0.56670061  1
  O  O302  1  0.96639548  0.30511840  0.89105706  1
  O  O303  1  0.97075171  0.79680502  0.23205430  1
  O  O304  1  0.97446273  0.79209502  0.56081897  1
  O  O305  1  0.97092672  0.80402082  0.89578993  1
  O  O306  1  0.17158248  0.03896104  0.26061649  1
  O  O307  1  0.20591339  0.02084245  0.60869858  1
  O  O308  1  0.20192395  0.03088062  0.93591465  1
  O  O309  1  0.20112534  0.52956629  0.27215421  1
  O  O310  1  0.20248139  0.53269219  0.60901761  1
  O  O311  1  0.19746323  0.53275429  0.93957610  1
  O  O312  1  0.70229240  0.03125200  0.27553763  1
  O  O313  1  0.69030618  0.03779054  0.60203597  1
  O  O314  1  0.70225972  0.02452103  0.92499060  1
  O  O315  1  0.70114769  0.52867298  0.26887114  1
  O  O316  1  0.69540502  0.53140077  0.60333566  1
  O  O317  1  0.70696307  0.54022112  0.93781989  1
  O  O318  1  0.08535287  0.09179533  0.03030917  1
  O  O319  1  0.07369334  0.09305117  0.36957021  1
  O  O320  1  0.08588429  0.09607138  0.71421326  1
  O  O321  1  0.08483919  0.58542500  0.03612798  1
  O  O322  1  0.08502681  0.58140495  0.36818269  1
  O  O323  1  0.08192481  0.57897158  0.70220012  1
  O  O324  1  0.58138993  0.09050077  0.05093284  1
  O  O325  1  0.58958681  0.09036180  0.36975224  1
  O  O326  1  0.59948602  0.09251344  0.70345050  1
  O  O327  1  0.59225497  0.59380845  0.04260719  1
  O  O328  1  0.58486612  0.57235077  0.35426019  1
  O  O329  1  0.57829980  0.58549149  0.70382692  1
  O  O330  1  0.40745313  0.41072473  0.12826124  1
  O  O331  1  0.41549002  0.41721192  0.46162276  1
  O  O332  1  0.40607427  0.40254101  0.79252235  1
  O  O333  1  0.41454606  0.91429447  0.12175026  1
  O  O334  1  0.41469846  0.91476311  0.48072903  1
  O  O335  1  0.41013732  0.91268427  0.79926282  1
  O  O336  1  0.91235769  0.42877137  0.12829461  1
  O  O337  1  0.90630952  0.41080295  0.46503983  1
  O  O338  1  0.91166326  0.42574240  0.79442749  1
  O  O339  1  0.92637672  0.91664495  0.14312838  1
  O  O340  1  0.91783865  0.91610158  0.45812928  1
  O  O341  1  0.90499149  0.91350395  0.79421218  1
  O  O342  1  0.41727110  0.41324977  0.29399235  1
  O  O343  1  0.41737591  0.41566961  0.63576820  1
  O  O344  1  0.40659477  0.41099847  0.96757386  1
  O  O345  1  0.43324585  0.91097265  0.28979568  1
  O  O346  1  0.40768805  0.91176180  0.64155437  1
  O  O347  1  0.41420789  0.90878398  0.96157266  1
  O  O348  1  0.90611611  0.40679169  0.29265083  1
  O  O349  1  0.90825910  0.42134117  0.63649495  1
  O  O350  1  0.91650866  0.42198258  0.95513497  1
  O  O351  1  0.92004712  0.91062690  0.29961610  1
  O  O352  1  0.93364720  0.91240359  0.62669068  1
  O  O353  1  0.90973199  0.91039431  0.96235986  1
  O  O354  1  0.07838745  0.09786397  0.18141135  1
  O  O355  1  0.09092296  0.07997550  0.55997054  1
  O  O356  1  0.09516028  0.09449995  0.87632137  1
  O  O357  1  0.09028889  0.58498126  0.20628987  1
  O  O358  1  0.09137442  0.58602140  0.54259552  1
  O  O359  1  0.08441110  0.58295157  0.87047200  1
  O  O360  1  0.58610197  0.08093635  0.20864788  1
  O  O361  1  0.58367524  0.08586574  0.52222872  1
  O  O362  1  0.59262162  0.07898550  0.86102200  1
  O  O363  1  0.59319535  0.58839056  0.20584374  1
  O  O364  1  0.57808631  0.57828752  0.53770287  1
  O  O365  1  0.59015022  0.58680787  0.87143455  1
  O  O366  1  0.14463134  0.22415416  0.05543941  1
  O  O367  1  0.13434115  0.22489841  0.39166973  1
  O  O368  1  0.13181554  0.22845098  0.72632103  1
  O  O369  1  0.14076769  0.71860636  0.05608680  1
  O  O370  1  0.13675720  0.71421417  0.38386078  1
  O  O371  1  0.14079302  0.71146217  0.72436302  1
  O  O372  1  0.63329936  0.22101965  0.06048943  1
  O  O373  1  0.64076508  0.22413772  0.38717614  1
  O  O374  1  0.64246676  0.22894678  0.72438834  1
  O  O375  1  0.63889739  0.72852431  0.06368322  1
  O  O376  1  0.64079483  0.70839506  0.38339464  1
  O  O377  1  0.63592895  0.71840615  0.72983823  1
  O  O378  1  0.27328248  0.36283414  0.10990644  1
  O  O379  1  0.28392601  0.35953211  0.44504988  1
  O  O380  1  0.27070008  0.35498563  0.77142203  1
  O  O381  1  0.28221016  0.86517331  0.10918852  1
  O  O382  1  0.27759818  0.86189586  0.44737311  1
  O  O383  1  0.27489926  0.86107483  0.77462307  1
  O  O384  1  0.78256334  0.36249344  0.10694024  1
  O  O385  1  0.77135936  0.36021252  0.44125216  1
  O  O386  1  0.77949326  0.36726162  0.77257133  1
  O  O387  1  0.79290530  0.85690792  0.11411794  1
  O  O388  1  0.78414546  0.86823481  0.44200460  1
  O  O389  1  0.77348485  0.86227141  0.78083804  1
  O  O390  1  0.36241295  0.27978460  0.27166148  1
  O  O391  1  0.35749937  0.28104414  0.60624080  1
  O  O392  1  0.35615704  0.27608510  0.94310976  1
  O  O393  1  0.37381845  0.78278624  0.27667368  1
  O  O394  1  0.36420332  0.77843613  0.63053829  1
  O  O395  1  0.36293532  0.77400911  0.94115213  1
  O  O396  1  0.85710912  0.27244816  0.27475591  1
  O  O397  1  0.85667111  0.28560998  0.61078549  1
  O  O398  1  0.86318887  0.29153412  0.94392844  1
  O  O399  1  0.86166610  0.77765995  0.27574155  1
  O  O400  1  0.86641341  0.78563519  0.60958320  1
  O  O401  1  0.86408796  0.77409870  0.93783079  1
  O  O402  1  0.21811479  0.14346075  0.22284498  1
  O  O403  1  0.21872670  0.12708414  0.55985302  1
  O  O404  1  0.22962348  0.13947391  0.89392915  1
  O  O405  1  0.22552910  0.63690706  0.22756133  1
  O  O406  1  0.22449162  0.63884975  0.56260273  1
  O  O407  1  0.21804557  0.63826841  0.89152966  1
  O  O408  1  0.71771333  0.13289187  0.22212080  1
  O  O409  1  0.71902110  0.14171617  0.55596450  1
  O  O410  1  0.72653432  0.13876485  0.88963973  1
  O  O411  1  0.72758531  0.63792263  0.22732115  1
  O  O412  1  0.70788101  0.63572921  0.55074749  1
  O  O413  1  0.72016514  0.63874039  0.87932756  1
  O  O414  1  0.48784748  0.32938768  0.02817641  1
  O  O415  1  0.49306535  0.33313365  0.36111431  1
  O  O416  1  0.48901359  0.32954323  0.69705696  1
  O  O417  1  0.49356160  0.83182576  0.02955464  1
  O  O418  1  0.50885457  0.83108277  0.35860771  1
  O  O419  1  0.49658984  0.83788680  0.70500005  1
  O  O420  1  0.99709378  0.34924266  0.02640975  1
  O  O421  1  0.98473785  0.33353902  0.36662654  1
  O  O422  1  0.98722815  0.33917112  0.69891906  1
  O  O423  1  0.99280141  0.83285647  0.02862857  1
  O  O424  1  0.99284286  0.82582093  0.36474912  1
  O  O425  1  0.99811707  0.82741557  0.69581739  1
  O  O426  1  0.16528182  0.01418621  0.13090142  1
  O  O427  1  0.15063221  -0.00080152  0.47328272  1
  O  O428  1  0.16873136  0.01162919  0.80380653  1
  O  O429  1  0.16747360  0.50729558  0.13839909  1
  O  O430  1  0.17133068  0.50828201  0.47551563  1
  O  O431  1  0.16583257  0.50620368  0.80552673  1
  O  O432  1  0.66140346  -0.00146082  0.14063453  1
  O  O433  1  0.67345908  0.00805191  0.47074776  1
  O  O434  1  0.67568710  0.01125980  0.79310904  1
  O  O435  1  0.66914518  0.50901223  0.13587686  1
  O  O436  1  0.65667524  0.50314410  0.46765010  1
  O  O437  1  0.66345918  0.50566978  0.80118921  1
  O  O438  1  0.00892565  0.17203255  0.29403717  1
  O  O439  1  -0.00061548  0.16717392  0.64287961  1
  O  O440  1  0.01085990  0.17885317  0.97096777  1
  O  O441  1  0.00390161  0.65939423  0.30285190  1
  O  O442  1  0.00859287  0.66075166  0.63626640  1
  O  O443  1  0.00884568  0.66519444  0.96873874  1
  O  O444  1  0.50908232  0.16745757  0.30243106  1
  O  O445  1  0.51535102  0.16608007  0.63222428  1
  O  O446  1  0.50413962  0.16061488  0.97279823  1
  O  O447  1  0.50796467  0.65895944  0.29904960  1
  O  O448  1  0.50550329  0.66824520  0.63744591  1
  O  O449  1  0.51137134  0.66875778  0.97139453  1
  O  O450  1  0.33273772  0.49280750  0.19742744  1
  O  O451  1  0.33796284  0.49159892  0.53175939  1
  O  O452  1  0.32835031  0.48455987  0.86026572  1
  O  O453  1  0.34195807  0.99818560  0.19189779  1
  O  O454  1  0.32587738  0.99008152  0.53840458  1
  O  O455  1  0.32975326  0.99089399  0.86429450  1
  O  O456  1  0.82794414  0.49430707  0.19497258  1
  O  O457  1  0.82561662  0.49248326  0.52698948  1
  O  O458  1  0.82981191  0.49904147  0.86108101  1
  O  O459  1  0.83576183  0.99072688  0.19714274  1
  O  O460  1  0.84410289  1.00094964  0.52541719  1
  O  O461  1  0.83197933  0.99080293  0.86881113  1
