# generated using pymatgen
data_Na31Fe20(SO4)36
_symmetry_space_group_name_H-M   'P 1'
_cell_length_a   18.07606110
_cell_length_b   18.07859194
_cell_length_c   19.71406916
_cell_angle_alpha   107.57723797
_cell_angle_beta   107.57535392
_cell_angle_gamma   90.74380913
_symmetry_Int_Tables_number   1
_chemical_formula_structural   Na31Fe20(SO4)36
_chemical_formula_sum   'Na62 Fe40 S72 O288'
_cell_volume   5816.29280333
_cell_formula_units_Z   2
loop_
 _symmetry_equiv_pos_site_id
 _symmetry_equiv_pos_as_xyz
  1  'x, y, z'
loop_
 _atom_site_type_symbol
 _atom_site_label
 _atom_site_symmetry_multiplicity
 _atom_site_fract_x
 _atom_site_fract_y
 _atom_site_fract_z
 _atom_site_occupancy
  Na  Na0  1  0.12856873  0.36544036  0.08362941  1
  Na  Na1  1  0.13782249  0.36354479  0.42170541  1
  Na  Na2  1  0.12841107  0.35494228  0.73660495  1
  Na  Na3  1  0.13374627  0.85811939  0.07207601  1
  Na  Na4  1  0.13171144  0.87120772  0.41823938  1
  Na  Na5  1  0.13507508  0.86508162  0.76085399  1
  Na  Na6  1  0.63316939  0.36201152  0.08395933  1
  Na  Na7  1  0.64276757  0.36915426  0.42172840  1
  Na  Na8  1  0.64258998  0.37721023  0.75938367  1
  Na  Na9  1  0.62977164  0.86521808  0.07794765  1
  Na  Na10  1  0.63703499  0.86515366  0.41408662  1
  Na  Na11  1  0.63649124  0.87017371  0.75352847  1
  Na  Na12  1  0.36900382  0.13088094  0.25093440  1
  Na  Na13  1  0.36863223  0.14104088  0.58604967  1
  Na  Na14  1  0.35925926  0.12638233  0.91479426  1
  Na  Na15  1  0.36944598  0.62789973  0.24542183  1
  Na  Na16  1  0.36916882  0.63444764  0.58544535  1
  Na  Na17  1  0.37155946  0.65117484  0.92692049  1
  Na  Na18  1  0.85929473  0.13528742  0.24196189  1
  Na  Na19  1  0.86638331  0.14447655  0.58699163  1
  Na  Na20  1  0.87256068  0.14454452  0.92799457  1
  Na  Na21  1  0.86857607  0.63339904  0.25819443  1
  Na  Na22  1  0.86472176  0.63516026  0.58604286  1
  Na  Na23  1  0.84613388  0.62739730  0.90587251  1
  Na  Na24  1  1.00354261  -0.00735583  0.73952698  1
  Na  Na25  1  0.45998980  0.00307774  0.08426658  1
  Na  Na26  1  0.50342410  0.54868611  0.76384856  1
  Na  Na27  1  0.98946768  0.01945747  0.08319152  1
  Na  Na28  1  0.49693203  0.00711348  0.40212283  1
  Na  Na29  1  0.54056981  0.48495784  0.35887381  1
  Na  Na30  1  0.99455213  0.51258720  0.39825008  1
  Na  Na31  1  0.96244494  0.49342433  0.09029560  1
  Na  Na32  1  0.98080976  0.51714435  0.75663321  1
  Na  Na33  1  0.00333875  0.95761321  0.90604567  1
  Na  Na34  1  -0.02403509  0.50871970  0.93024943  1
  Na  Na35  1  0.49257150  0.98995363  0.90877658  1
  Na  Na36  1  0.54972547  0.49770320  0.59044183  1
  Na  Na37  1  0.50945927  0.50140272  0.92934354  1
  Na  Na38  1  -0.00331780  0.99688560  0.26556480  1
  Na  Na39  1  -0.01413611  1.03944964  0.53135021  1
  Na  Na40  1  0.50535879  0.98931317  0.59660390  1
  Na  Na41  1  0.01240358  0.48150489  0.58226181  1
  Na  Na42  1  0.24757368  0.24430088  0.00196683  1
  Na  Na43  1  0.75593780  0.26169537  0.66515125  1
  Na  Na44  1  0.24351339  0.74719919  0.67515742  1
  Na  Na45  1  0.75253006  0.74543064  0.67261961  1
  Na  Na46  1  0.25333211  0.25294114  0.65204428  1
  Na  Na47  1  0.25163680  0.75312258  0.32727313  1
  Na  Na48  1  0.75869283  0.25502415  0.32020331  1
  Na  Na49  1  0.24172162  0.24428230  0.34502513  1
  Na  Na50  1  0.76284094  0.26431978  0.00450041  1
  Na  Na51  1  0.73562992  0.74122825  0.00835755  1
  Na  Na52  1  0.24968375  0.74747016  0.50137585  1
  Na  Na53  1  0.72186291  0.72159985  0.83565398  1
  Na  Na54  1  0.24373744  0.24332792  0.17154539  1
  Na  Na55  1  0.73899721  0.73782113  0.18084162  1
  Na  Na56  1  0.74997258  0.74379912  0.49206129  1
  Na  Na57  1  0.24610142  0.74933977  0.84993874  1
  Na  Na58  1  0.24582572  0.24748369  0.82858462  1
  Na  Na59  1  0.76052959  0.26476498  0.83627939  1
  Na  Na60  1  0.25947643  0.75712645  0.15338592  1
  Na  Na61  1  0.75852883  0.25612584  0.49154990  1
  Fe  Fe62  1  0.46629388  0.80649523  0.11747861  1
  Fe  Fe63  1  0.46693023  0.30802752  0.12095660  1
  Fe  Fe64  1  0.96919661  0.29916971  0.45602240  1
  Fe  Fe65  1  0.96350746  0.80778560  0.11985381  1
  Fe  Fe66  1  0.96213662  0.80876796  0.45099533  1
  Fe  Fe67  1  0.96881023  0.30793353  0.78783066  1
  Fe  Fe68  1  0.46696771  0.80354316  0.79000306  1
  Fe  Fe69  1  0.46535992  0.30788227  0.78631491  1
  Fe  Fe70  1  0.46347103  0.30912857  0.45362654  1
  Fe  Fe71  1  0.46315838  0.80756407  0.45074111  1
  Fe  Fe72  1  0.19328740  0.03372066  0.71188807  1
  Fe  Fe73  1  0.69984732  0.53073883  0.04805813  1
  Fe  Fe74  1  0.19134594  0.53699629  0.04601990  1
  Fe  Fe75  1  0.19100269  0.03925878  0.38308453  1
  Fe  Fe76  1  0.68820440  0.03306267  0.37664309  1
  Fe  Fe77  1  0.69376454  0.03951852  0.71652331  1
  Fe  Fe78  1  0.19963485  0.02720416  0.04115404  1
  Fe  Fe79  1  0.19451122  0.53498585  0.71781847  1
  Fe  Fe80  1  0.69079047  0.03833314  0.04715296  1
  Fe  Fe81  1  0.19152937  0.53187615  0.37607759  1
  Fe  Fe82  1  0.03366938  0.69243230  0.21398779  1
  Fe  Fe83  1  0.53550964  0.68896761  0.54083126  1
  Fe  Fe84  1  0.02889360  0.70099983  0.88066778  1
  Fe  Fe85  1  0.54151935  0.68409878  0.21368549  1
  Fe  Fe86  1  0.53721864  0.18906586  0.21309734  1
  Fe  Fe87  1  0.03444622  0.19263370  0.88087795  1
  Fe  Fe88  1  0.03378500  0.69633125  0.55019390  1
  Fe  Fe89  1  0.53415377  0.19552064  0.54865889  1
  Fe  Fe90  1  0.53206329  0.19211665  0.88334669  1
  Fe  Fe91  1  0.02895113  0.20384703  0.21077114  1
  Fe  Fe92  1  0.30469022  0.96648116  0.28447430  1
  Fe  Fe93  1  0.80098125  0.46416573  0.29159313  1
  Fe  Fe94  1  0.30833441  0.46686098  0.95603689  1
  Fe  Fe95  1  0.31020443  0.46364056  0.28705748  1
  Fe  Fe96  1  0.79784602  0.47126551  0.62177248  1
  Fe  Fe97  1  0.80489112  0.96335323  0.28507852  1
  Fe  Fe98  1  0.31130013  0.96249175  0.62097656  1
  Fe  Fe99  1  0.80600013  0.96702982  0.94722090  1
  Fe  Fe100  1  0.80731056  0.96494506  0.61696927  1
  Fe  Fe101  1  0.30961679  0.46558815  0.61942137  1
  S  S102  1  0.36107203  0.14226337  0.08647416  1
  S  S103  1  0.36131803  0.14061612  0.41759157  1
  S  S104  1  0.36178267  0.13889346  0.74772353  1
  S  S105  1  0.36226323  0.63930685  0.08378495  1
  S  S106  1  0.35580053  0.64052655  0.41374214  1
  S  S107  1  0.35713703  0.63957083  0.75126170  1
  S  S108  1  0.85947976  0.13708517  0.08130246  1
  S  S109  1  0.85530799  0.13546806  0.41510916  1
  S  S110  1  0.85874553  0.14208893  0.74748945  1
  S  S111  1  0.86098498  0.64176385  0.08522306  1
  S  S112  1  0.86571008  0.63654207  0.41761968  1
  S  S113  1  0.85977069  0.64035570  0.75210046  1
  S  S114  1  0.14452912  0.36023812  0.25161108  1
  S  S115  1  0.14252243  0.36312319  0.58547359  1
  S  S116  1  0.14307978  0.36025378  0.91641625  1
  S  S117  1  0.13908148  0.86068508  0.25046824  1
  S  S118  1  0.13918019  0.85962637  0.58289499  1
  S  S119  1  0.13582800  0.85910900  0.91488786  1
  S  S120  1  0.63934523  0.35385068  0.25013155  1
  S  S121  1  0.63946533  0.35669233  0.58106599  1
  S  S122  1  0.63628678  0.35902744  0.92179871  1
  S  S123  1  0.63905851  0.85852728  0.25035172  1
  S  S124  1  0.63793805  0.86278096  0.58326590  1
  S  S125  1  0.64295614  0.86514166  0.91251209  1
  S  S126  1  0.07057369  0.15857935  0.03869776  1
  S  S127  1  0.06699115  0.17209568  0.37155655  1
  S  S128  1  0.06391072  0.16471456  0.70831325  1
  S  S129  1  0.06508717  0.67054818  0.04419068  1
  S  S130  1  0.07219026  0.67332187  0.37761338  1
  S  S131  1  0.06929852  0.66568350  0.70886548  1
  S  S132  1  0.56267553  0.16461242  0.03963707  1
  S  S133  1  0.56675341  0.17149364  0.37807641  1
  S  S134  1  0.57033730  0.17525119  0.71136905  1
  S  S135  1  0.57003969  0.66883373  0.04610173  1
  S  S136  1  0.56641180  0.67857901  0.37854099  1
  S  S137  1  0.56379336  0.67332238  0.70498507  1
  S  S138  1  0.32484619  0.42808161  0.12169793  1
  S  S139  1  0.33390908  0.43536812  0.45870655  1
  S  S140  1  0.32958368  0.43133395  0.79192728  1
  S  S141  1  0.32917426  0.93201087  0.12783897  1
  S  S142  1  0.33211116  0.93480308  0.45753570  1
  S  S143  1  0.32940276  0.93080850  0.78751809  1
  S  S144  1  0.82436387  0.43193340  0.12984912  1
  S  S145  1  0.83207978  0.42875053  0.45876219  1
  S  S146  1  0.83714109  0.43128487  0.79208950  1
  S  S147  1  0.83118172  0.93246703  0.12501698  1
  S  S148  1  0.82712653  0.93188277  0.45670292  1
  S  S149  1  0.83278369  0.94220009  0.78622515  1
  S  S150  1  0.43365258  0.32648136  0.28986834  1
  S  S151  1  0.43554608  0.33510323  0.62871747  1
  S  S152  1  0.42728528  0.32632850  0.95522170  1
  S  S153  1  0.43035879  0.82939050  0.28942707  1
  S  S154  1  0.43397125  0.82745170  0.62197604  1
  S  S155  1  0.43933465  0.83404157  0.95716071  1
  S  S156  1  0.93037261  0.32758422  0.29668333  1
  S  S157  1  0.93150045  0.33474179  0.62474512  1
  S  S158  1  0.94189490  0.33023924  0.95866728  1
  S  S159  1  0.93263089  0.83139527  0.28976420  1
  S  S160  1  0.93319911  0.83145153  0.62112486  1
  S  S161  1  0.92650573  0.83093664  0.95947383  1
  S  S162  1  0.17166758  0.06763541  0.20879495  1
  S  S163  1  0.17929904  0.06637012  0.54633902  1
  S  S164  1  0.16812881  0.06919632  0.87288791  1
  S  S165  1  0.16833405  0.56703624  0.20704425  1
  S  S166  1  0.16969446  0.56928344  0.54157285  1
  S  S167  1  0.16829219  0.56881043  0.87638899  1
  S  S168  1  0.66649840  0.06295472  0.20641461  1
  S  S169  1  0.66710031  0.06796985  0.54211689  1
  S  S170  1  0.67066100  0.07478955  0.87794837  1
  S  S171  1  0.67827288  0.56594920  0.21141677  1
  S  S172  1  0.66914799  0.56589528  0.53604502  1
  S  S173  1  0.66491503  0.56088508  0.88456008  1
  O  O174  1  0.36797006  0.22428049  0.08359068  1
  O  O175  1  0.37060432  0.21870010  0.40760961  1
  O  O176  1  0.37056861  0.21783109  0.73846466  1
  O  O177  1  0.37152656  0.71816369  0.07611704  1
  O  O178  1  0.36301516  0.72060966  0.40706247  1
  O  O179  1  0.36551896  0.71791879  0.74173525  1
  O  O180  1  0.86575122  0.21076508  0.06730432  1
  O  O181  1  0.86557270  0.21634167  0.41119997  1
  O  O182  1  0.87086230  0.21925575  0.73644464  1
  O  O183  1  0.86776956  0.72310961  0.08120974  1
  O  O184  1  0.88057628  0.70998427  0.40165126  1
  O  O185  1  0.87116577  0.71387049  0.73830795  1
  O  O186  1  0.28237411  0.13058415  0.09486534  1
  O  O187  1  0.28139330  0.13048401  0.42110964  1
  O  O188  1  0.28174219  0.12980351  0.75392216  1
  O  O189  1  0.28327250  0.63000390  0.09290400  1
  O  O190  1  0.27602210  0.62974222  0.42055508  1
  O  O191  1  0.27545658  0.63099806  0.75530672  1
  O  O192  1  0.78327397  0.12300832  0.09311182  1
  O  O193  1  0.77311920  0.12688758  0.41859662  1
  O  O194  1  0.77846674  0.13798377  0.75420005  1
  O  O195  1  0.77938880  0.63160992  0.09016077  1
  O  O196  1  0.79138851  0.63213730  0.43042436  1
  O  O197  1  0.78522309  0.63029459  0.76544032  1
  O  O198  1  0.13331533  0.27920644  0.25645480  1
  O  O199  1  0.13486658  0.28864224  0.59796127  1
  O  O200  1  0.13465081  0.28214942  0.92665719  1
  O  O201  1  0.12875556  0.78285034  0.26071074  1
  O  O202  1  0.12971334  0.78060651  0.59203948  1
  O  O203  1  0.12400679  0.78261973  0.92890728  1
  O  O204  1  0.63278114  0.27171529  0.25291144  1
  O  O205  1  0.63196934  0.27482905  0.58456712  1
  O  O206  1  0.61955956  0.28389302  0.93535106  1
  O  O207  1  0.63071416  0.78103620  0.26007917  1
  O  O208  1  0.62956180  0.78373752  0.59045140  1
  O  O209  1  0.64195986  0.78716346  0.91958266  1
  O  O210  1  0.22765268  0.36751344  0.25003602  1
  O  O211  1  0.22081262  0.37661653  0.57701731  1
  O  O212  1  0.22364920  0.36974618  0.91119576  1
  O  O213  1  0.22024589  0.86802348  0.24690703  1
  O  O214  1  0.21741453  0.86541600  0.57215884  1
  O  O215  1  0.21251518  0.86685094  0.90626951  1
  O  O216  1  0.72188146  0.36786286  0.25022783  1
  O  O217  1  0.71705743  0.36614520  0.56989833  1
  O  O218  1  0.71378657  0.36092158  0.91417911  1
  O  O219  1  0.71873014  0.86835812  0.24300041  1
  O  O220  1  0.71641319  0.87251196  0.57454950  1
  O  O221  1  0.71665135  0.88016226  0.89495745  1
  O  O222  1  0.42048884  0.13388130  0.15531425  1
  O  O223  1  0.41892229  0.13531407  0.48789616  1
  O  O224  1  0.41876439  0.13324196  0.81755694  1
  O  O225  1  0.42123787  0.63104897  0.15126779  1
  O  O226  1  0.41406159  0.63325437  0.48168202  1
  O  O227  1  0.41365043  0.62960688  0.81740711  1
  O  O228  1  0.92154369  0.13156174  0.14988052  1
  O  O229  1  0.91023933  0.12503847  0.48195969  1
  O  O230  1  0.91522710  0.13421663  0.81644835  1
  O  O231  1  0.91689288  0.63532502  0.15661907  1
  O  O232  1  0.92978879  0.62756234  0.48366522  1
  O  O233  1  0.92360261  0.63108543  0.81941008  1
  O  O234  1  0.37104720  0.08651739  0.01983047  1
  O  O235  1  0.37449024  0.07992902  0.35273707  1
  O  O236  1  0.37218303  0.07991932  0.68130533  1
  O  O237  1  0.36749336  0.58026214  0.01451290  1
  O  O238  1  0.36331971  0.58298934  0.34474949  1
  O  O239  1  0.36471072  0.58036799  0.68169901  1
  O  O240  1  0.87075279  0.07290044  0.01613104  1
  O  O241  1  0.86213007  0.07903814  0.34467609  1
  O  O242  1  0.86586298  0.08097821  0.68007635  1
  O  O243  1  0.87459923  0.58510475  0.02083129  1
  O  O244  1  0.87137313  0.57057797  0.35040723  1
  O  O245  1  0.86833450  0.57531378  0.68546034  1
  O  O246  1  0.09018721  0.37133544  0.18584284  1
  O  O247  1  0.08196737  0.37006962  0.51716990  1
  O  O248  1  0.08715216  0.36456816  0.84548719  1
  O  O249  1  0.08309696  0.86658660  0.18019512  1
  O  O250  1  0.07951451  0.86734872  0.51524611  1
  O  O251  1  0.07373140  0.86655244  0.84961135  1
  O  O252  1  0.58463201  0.35932203  0.17870582  1
  O  O253  1  0.57911590  0.36539036  0.51311825  1
  O  O254  1  0.57640231  0.36760580  0.85396766  1
  O  O255  1  0.58129882  0.86551930  0.18145605  1
  O  O256  1  0.57783936  0.87291641  0.51644788  1
  O  O257  1  0.57752513  0.87539362  0.84943471  1
  O  O258  1  0.13923719  0.41621598  0.32341238  1
  O  O259  1  0.13190800  0.42664800  0.65137570  1
  O  O260  1  0.13240118  0.42073029  0.98204206  1
  O  O261  1  0.12857390  0.92202291  0.31621445  1
  O  O262  1  0.13363129  0.91860622  0.65151102  1
  O  O263  1  0.12891139  0.92091542  0.98431149  1
  O  O264  1  0.62525272  0.40751569  0.31551921  1
  O  O265  1  0.63178591  0.41253680  0.64865033  1
  O  O266  1  0.62918577  0.42328800  0.98889903  1
  O  O267  1  0.63046907  0.91887205  0.31783181  1
  O  O268  1  0.62927519  0.92211733  0.65154220  1
  O  O269  1  0.63989692  0.92375895  0.98373352  1
  O  O270  1  0.03736513  0.18203280  0.10065258  1
  O  O271  1  0.03015789  0.19974417  0.43046479  1
  O  O272  1  0.03266795  0.19947721  0.77352154  1
  O  O273  1  0.02835571  0.69992137  0.10554830  1
  O  O274  1  0.03911601  0.70464231  0.44015559  1
  O  O275  1  0.03831555  0.68708632  0.77162355  1
  O  O276  1  0.52746893  0.19657659  0.10155610  1
  O  O277  1  0.52769806  0.20132703  0.43729441  1
  O  O278  1  0.53441036  0.20245502  0.77264494  1
  O  O279  1  0.53897343  0.69880385  0.11191764  1
  O  O280  1  0.52246556  0.70704605  0.43593064  1
  O  O281  1  0.52641029  0.70577620  0.76356986  1
  O  O282  1  0.29670855  0.46818976  0.06306199  1
  O  O283  1  0.30645736  0.47323934  0.39832953  1
  O  O284  1  0.30095868  0.46818117  0.73111793  1
  O  O285  1  0.30128624  0.96852570  0.06828158  1
  O  O286  1  0.30002418  0.97114824  0.39711334  1
  O  O287  1  0.29811247  0.96471127  0.72309627  1
  O  O288  1  0.79575632  0.47904146  0.07687287  1
  O  O289  1  0.80944721  0.46330381  0.39702402  1
  O  O290  1  0.80655236  0.45127008  0.72228123  1
  O  O291  1  0.80233914  0.96446195  0.06164506  1
  O  O292  1  0.79439016  0.96518472  0.39366416  1
  O  O293  1  0.79261171  0.97753065  0.72487902  1
  O  O294  1  0.47238312  0.29746086  0.23065654  1
  O  O295  1  0.46990394  0.30277782  0.56587640  1
  O  O296  1  0.46076613  0.29413686  0.89220504  1
  O  O297  1  0.46623375  0.80204452  0.22885644  1
  O  O298  1  0.46861293  0.79639298  0.55937972  1
  O  O299  1  0.47357039  0.79953430  0.89679317  1
  O  O300  1  0.96753595  0.30390031  0.23772671  1
  O  O301  1  0.96524206  0.30755077  0.56354173  1
  O  O302  1  0.97281351  0.29444154  0.89159593  1
  O  O303  1  0.97229211  0.80300228  0.23060891  1
  O  O304  1  0.96380998  0.79764520  0.55491844  1
  O  O305  1  0.96034091  0.79989484  0.89899801  1
  O  O306  1  0.20136519  0.03087659  0.27053556  1
  O  O307  1  0.21001323  0.02468658  0.60457083  1
  O  O308  1  0.19575116  0.03984195  0.93661989  1
  O  O309  1  0.19734792  0.52890860  0.26686317  1
  O  O310  1  0.20058391  0.53478219  0.60314643  1
  O  O311  1  0.20027831  0.53312864  0.93827174  1
  O  O312  1  0.69511872  0.02503438  0.26665151  1
  O  O313  1  0.69746797  0.03207091  0.60310156  1
  O  O314  1  0.70430897  0.04032709  0.93978774  1
  O  O315  1  0.70714614  0.52400017  0.26759457  1
  O  O316  1  0.69712367  0.53141591  0.59818250  1
  O  O317  1  0.70122351  0.52949979  0.94895401  1
  O  O318  1  0.08692530  0.07477514  0.02652245  1
  O  O319  1  0.08729215  0.09011605  0.36667877  1
  O  O320  1  0.08664742  0.08505100  0.70936505  1
  O  O321  1  0.08233909  0.58824806  0.03827299  1
  O  O322  1  0.08934661  0.59170763  0.37347480  1
  O  O323  1  0.08561981  0.58125309  0.69342604  1
  O  O324  1  0.57905424  0.08222508  0.03546174  1
  O  O325  1  0.58460239  0.09055612  0.37636304  1
  O  O326  1  0.58931308  0.09337206  0.70349562  1
  O  O327  1  0.60171737  0.59198157  0.04737594  1
  O  O328  1  0.58966009  0.60263884  0.37910052  1
  O  O329  1  0.57977416  0.59327334  0.70399011  1
  O  O330  1  0.40280302  0.40438977  0.12288115  1
  O  O331  1  0.41589866  0.41734831  0.46620341  1
  O  O332  1  0.41215884  0.41493475  0.79959513  1
  O  O333  1  0.40904272  0.90997411  0.12993664  1
  O  O334  1  0.41430652  0.91828144  0.46089372  1
  O  O335  1  0.40652209  0.90250433  0.78494011  1
  O  O336  1  0.90190631  0.41323677  0.12916525  1
  O  O337  1  0.91451650  0.40982822  0.47158938  1
  O  O338  1  0.92185821  0.41415726  0.80103500  1
  O  O339  1  0.91555694  0.91884119  0.13520871  1
  O  O340  1  0.90876460  0.91512637  0.45990239  1
  O  O341  1  0.91387665  0.93600075  0.78700988  1
  O  O342  1  0.41468429  0.40747130  0.29336858  1
  O  O343  1  0.41952252  0.41713288  0.63342586  1
  O  O344  1  0.41068572  0.40751644  0.95842241  1
  O  O345  1  0.40840995  0.91014613  0.29635219  1
  O  O346  1  0.41540360  0.90840089  0.62261881  1
  O  O347  1  0.43308269  0.91774806  0.96621303  1
  O  O348  1  0.90336388  0.40764807  0.30279924  1
  O  O349  1  0.91689742  0.41854124  0.63602885  1
  O  O350  1  0.92906439  0.41166912  0.96267310  1
  O  O351  1  0.91342714  0.91231956  0.29247744  1
  O  O352  1  0.90975377  0.91117748  0.62041470  1
  O  O353  1  0.91360210  0.91526340  0.96507725  1
  O  O354  1  0.09002139  0.08450372  0.20295428  1
  O  O355  1  0.10347288  0.08977266  0.54807758  1
  O  O356  1  0.08421932  0.08542104  0.86049291  1
  O  O357  1  0.08705270  0.58592534  0.20125574  1
  O  O358  1  0.08691633  0.58496489  0.53494196  1
  O  O359  1  0.08795369  0.58860436  0.87483439  1
  O  O360  1  0.58453257  0.08037909  0.20010456  1
  O  O361  1  0.58442188  0.08446194  0.53684719  1
  O  O362  1  0.58919156  0.08969758  0.87528645  1
  O  O363  1  0.59960345  0.58670270  0.21179331  1
  O  O364  1  0.58822805  0.58853384  0.53593383  1
  O  O365  1  0.58355946  0.57349539  0.88255121  1
  O  O366  1  0.14231682  0.21065586  0.05499317  1
  O  O367  1  0.13735567  0.22392563  0.38570622  1
  O  O368  1  0.13407735  0.21665535  0.72031703  1
  O  O369  1  0.13643821  0.72202102  0.06185416  1
  O  O370  1  0.14347401  0.72427772  0.39070452  1
  O  O371  1  0.14130958  0.71749561  0.72509184  1
  O  O372  1  0.63281799  0.21410323  0.05127631  1
  O  O373  1  0.63798682  0.22356866  0.39506499  1
  O  O374  1  0.64016992  0.22856790  0.72659836  1
  O  O375  1  0.63560723  0.72682465  0.05815626  1
  O  O376  1  0.63355236  0.73685622  0.39890010  1
  O  O377  1  0.63622192  0.72448246  0.72031282  1
  O  O378  1  0.26778412  0.36015843  0.10523613  1
  O  O379  1  0.28109550  0.36472646  0.44104459  1
  O  O380  1  0.27788245  0.35875676  0.77323129  1
  O  O381  1  0.27533571  0.86433085  0.11684472  1
  O  O382  1  0.28137710  0.86276534  0.44188105  1
  O  O383  1  0.27263185  0.86443938  0.77500169  1
  O  O384  1  0.76728278  0.36356824  0.10884550  1
  O  O385  1  0.77821244  0.35694465  0.43884497  1
  O  O386  1  0.78877743  0.35977270  0.78413448  1
  O  O387  1  0.78176452  0.86086551  0.11208179  1
  O  O388  1  0.77768963  0.86211833  0.44684714  1
  O  O389  1  0.78679698  0.86763653  0.77033662  1
  O  O390  1  0.36349470  0.27325335  0.27373436  1
  O  O391  1  0.36472724  0.28463115  0.61515319  1
  O  O392  1  0.35578523  0.27505151  0.94098307  1
  O  O393  1  0.36069667  0.77470327  0.27395910  1
  O  O394  1  0.36178487  0.77663914  0.60651138  1
  O  O395  1  0.36456550  0.78836763  0.94247747  1
  O  O396  1  0.86402936  0.27093697  0.28299742  1
  O  O397  1  0.85799307  0.28433574  0.60797074  1
  O  O398  1  0.86747097  0.28117140  0.94112360  1
  O  O399  1  0.86290536  0.77832745  0.27275105  1
  O  O400  1  0.86378080  0.77876325  0.60901737  1
  O  O401  1  0.85331532  0.78473164  0.94812691  1
  O  O402  1  0.22464380  0.13976683  0.22849174  1
  O  O403  1  0.23675045  0.13306869  0.56222581  1
  O  O404  1  0.21848970  0.14117635  0.88546750  1
  O  O405  1  0.22167347  0.63802269  0.22451844  1
  O  O406  1  0.22007875  0.64184144  0.55690507  1
  O  O407  1  0.22162891  0.63682982  0.88829674  1
  O  O408  1  0.71915384  0.13362534  0.22428280  1
  O  O409  1  0.71851439  0.13923968  0.55735451  1
  O  O410  1  0.72040329  0.14681052  0.89134936  1
  O  O411  1  0.73288089  0.63494229  0.22771082  1
  O  O412  1  0.72162268  0.63753827  0.55238062  1
  O  O413  1  0.71325134  0.63622163  0.90166409  1
  O  O414  1  0.48754863  0.32751179  0.02652315  1
  O  O415  1  0.49240337  0.33138282  0.36363841  1
  O  O416  1  0.49651045  0.33699082  0.70043137  1
  O  O417  1  0.49532998  0.82919555  0.03056523  1
  O  O418  1  0.49039924  0.83496727  0.36299414  1
  O  O419  1  0.49264755  0.83100679  0.69398008  1
  O  O420  1  1.00058877  0.32692174  0.02675355  1
  O  O421  1  0.99151601  0.33631785  0.37121161  1
  O  O422  1  0.99010427  0.33013882  0.69541287  1
  O  O423  1  0.98694828  0.83501802  0.03317611  1
  O  O424  1  0.99149306  0.83514752  0.36316401  1
  O  O425  1  0.99732201  0.84125926  0.69018198  1
  O  O426  1  0.17242566  0.00963181  0.13719771  1
  O  O427  1  0.17334413  0.00745253  0.47126612  1
  O  O428  1  0.16965058  0.00745600  0.80257140  1
  O  O429  1  0.16705586  0.50879757  0.13426912  1
  O  O430  1  0.16836630  0.50995289  0.46924779  1
  O  O431  1  0.16165077  0.50641242  0.80360199  1
  O  O432  1  0.66583123  0.00446404  0.13403606  1
  O  O433  1  0.66348746  0.00835655  0.46912437  1
  O  O434  1  0.66822673  0.01488990  0.80559301  1
  O  O435  1  0.67118721  0.50921679  0.13483376  1
  O  O436  1  0.66008475  0.50631870  0.46368703  1
  O  O437  1  0.66652734  0.50501776  0.81420933  1
  O  O438  1  0.00781043  0.16510497  0.29648149  1
  O  O439  1  0.00129832  0.15600940  0.63812125  1
  O  O440  1  0.01097281  0.16098157  0.96757154  1
  O  O441  1  0.01170593  0.67126154  0.30590740  1
  O  O442  1  0.00883388  0.66946601  0.63890436  1
  O  O443  1  0.00550106  0.66829259  0.97205998  1
  O  O444  1  0.50947585  0.16790538  0.30452882  1
  O  O445  1  0.50941659  0.17219079  0.63906540  1
  O  O446  1  0.50019307  0.15921016  0.96718879  1
  O  O447  1  0.50839838  0.67487122  0.30416953  1
  O  O448  1  0.50681782  0.66924368  0.62965847  1
  O  O449  1  0.50494481  0.65535068  0.97735712  1
  O  O450  1  0.33023924  0.48731743  0.19549191  1
  O  O451  1  0.33407365  0.49457852  0.53064540  1
  O  O452  1  0.32948290  0.49002986  0.86361725  1
  O  O453  1  0.33671601  0.99346435  0.20215524  1
  O  O454  1  0.33722856  0.99263952  0.53148303  1
  O  O455  1  0.34222990  0.99402367  0.85794725  1
  O  O456  1  0.82836322  0.48594347  0.20744322  1
  O  O457  1  0.82806022  0.48794127  0.52879118  1
  O  O458  1  0.84094971  0.49636417  0.85895370  1
  O  O459  1  0.83138460  0.99344386  0.19647453  1
  O  O460  1  0.83178210  0.99559990  0.52815260  1
  O  O461  1  0.83268529  0.99862166  0.85996723  1
