# generated using pymatgen
data_Na31Fe20(SO4)36
_symmetry_space_group_name_H-M   'P 1'
_cell_length_a   18.06862979
_cell_length_b   18.06702198
_cell_length_c   19.70133689
_cell_angle_alpha   107.55279806
_cell_angle_beta   107.58482912
_cell_angle_gamma   90.72973135
_symmetry_Int_Tables_number   1
_chemical_formula_structural   Na31Fe20(SO4)36
_chemical_formula_sum   'Na62 Fe40 S72 O288'
_cell_volume   5807.15232921
_cell_formula_units_Z   2
loop_
 _symmetry_equiv_pos_site_id
 _symmetry_equiv_pos_as_xyz
  1  'x, y, z'
loop_
 _atom_site_type_symbol
 _atom_site_label
 _atom_site_symmetry_multiplicity
 _atom_site_fract_x
 _atom_site_fract_y
 _atom_site_fract_z
 _atom_site_occupancy
  Na  Na0  1  0.13242300  0.36263119  0.08247574  1
  Na  Na1  1  0.12815996  0.35831858  0.40924671  1
  Na  Na2  1  0.12954661  0.37540077  0.75266537  1
  Na  Na3  1  0.13185176  0.86349688  0.07848602  1
  Na  Na4  1  0.13862379  0.85276721  0.40975163  1
  Na  Na5  1  0.12928709  0.86745053  0.74941384  1
  Na  Na6  1  0.63560502  0.37933270  0.08600469  1
  Na  Na7  1  0.67860209  0.37166439  0.45635176  1
  Na  Na8  1  0.63113913  0.34483890  0.73560370  1
  Na  Na9  1  0.65309728  0.86634392  0.10398399  1
  Na  Na10  1  0.63486226  0.86129303  0.41102085  1
  Na  Na11  1  0.63319593  0.86914014  0.75484080  1
  Na  Na12  1  0.36671577  0.13537204  0.25359479  1
  Na  Na13  1  0.36908168  0.13700643  0.59193507  1
  Na  Na14  1  0.37050850  0.13191300  0.91750792  1
  Na  Na15  1  0.36029365  0.63736288  0.25703058  1
  Na  Na16  1  0.36120984  0.62043604  0.57159242  1
  Na  Na17  1  0.37087441  0.63365815  0.92089597  1
  Na  Na18  1  0.86785026  0.14287976  0.26206719  1
  Na  Na19  1  0.83626045  0.15583782  0.57251363  1
  Na  Na20  1  0.86479891  0.13129631  0.91056488  1
  Na  Na21  1  0.85040862  0.63420215  0.23005179  1
  Na  Na22  1  0.86434128  0.63487982  0.58496052  1
  Na  Na23  1  0.87923061  0.63075545  0.92025819  1
  Na  Na24  1  0.49485455  0.00825489  0.40927978  1
  Na  Na25  1  0.98853918  0.03759758  0.09185139  1
  Na  Na26  1  0.48063603  0.49432640  0.43246327  1
  Na  Na27  1  0.50906806  0.00614406  0.05844313  1
  Na  Na28  1  0.51436914  0.47297661  0.75119282  1
  Na  Na29  1  0.99042673  0.51852254  0.06672132  1
  Na  Na30  1  0.48714499  0.01283616  0.76225026  1
  Na  Na31  1  0.97410810  0.00660262  0.41374241  1
  Na  Na32  1  1.01223299  0.48562679  0.41657348  1
  Na  Na33  1  -0.02074092  1.01438479  0.60160624  1
  Na  Na34  1  -0.01475938  1.01332006  0.25109550  1
  Na  Na35  1  0.52451638  0.47367014  0.93384106  1
  Na  Na36  1  0.52075036  0.99442870  0.24159510  1
  Na  Na37  1  0.51643156  0.49618747  0.24008728  1
  Na  Na38  1  0.01068692  0.98513586  0.90397560  1
  Na  Na39  1  0.03770654  0.48765449  0.25525716  1
  Na  Na40  1  -0.00734315  0.48826901  0.59463169  1
  Na  Na41  1  0.50753992  0.98666125  0.58015315  1
  Na  Na42  1  0.24036869  0.73854226  0.66810955  1
  Na  Na43  1  0.74246625  0.73548391  0.02301643  1
  Na  Na44  1  0.75654019  0.26086386  -0.00889584  1
  Na  Na45  1  0.74163554  0.74134029  0.67146316  1
  Na  Na46  1  0.76356118  0.25675764  0.34487812  1
  Na  Na47  1  0.75930351  0.76957668  0.30963960  1
  Na  Na48  1  0.23304774  0.73771872  0.00399850  1
  Na  Na49  1  0.23522674  0.23810056  0.33409535  1
  Na  Na50  1  0.25531978  0.25385440  -0.00389695  1
  Na  Na51  1  0.26023160  0.26113346  0.66688700  1
  Na  Na52  1  0.24617100  0.73991138  0.49231799  1
  Na  Na53  1  0.23608398  0.24081605  0.17032137  1
  Na  Na54  1  0.24854211  0.24884004  0.50110808  1
  Na  Na55  1  0.75155987  0.75400309  0.49767383  1
  Na  Na56  1  0.76073958  0.26210009  0.16473656  1
  Na  Na57  1  0.75366569  0.74431230  0.84126794  1
  Na  Na58  1  0.75847119  0.26003455  0.81879233  1
  Na  Na59  1  0.23591412  0.73882687  0.84114907  1
  Na  Na60  1  0.26738453  0.26028191  0.82788274  1
  Na  Na61  1  0.23920662  0.73837167  0.17898711  1
  Fe  Fe62  1  0.46191277  0.80420076  0.11383834  1
  Fe  Fe63  1  0.96705293  0.81169063  0.11918359  1
  Fe  Fe64  1  0.96838432  0.29995775  0.12324137  1
  Fe  Fe65  1  0.96438651  0.80971064  0.44892064  1
  Fe  Fe66  1  0.96024819  0.31740500  0.78590090  1
  Fe  Fe67  1  0.46539504  0.80765123  0.78671314  1
  Fe  Fe68  1  0.96511957  0.79837909  0.78718587  1
  Fe  Fe69  1  0.46757437  0.30472376  0.45578062  1
  Fe  Fe70  1  0.46426645  0.30860916  0.12206506  1
  Fe  Fe71  1  0.46360186  0.80333772  0.44714854  1
  Fe  Fe72  1  0.69388872  0.03465067  0.04731887  1
  Fe  Fe73  1  0.69371723  0.03641883  0.71521641  1
  Fe  Fe74  1  0.69639678  0.53638588  0.38478340  1
  Fe  Fe75  1  0.19332605  0.03396451  0.04742948  1
  Fe  Fe76  1  0.69772218  0.53027461  0.70703204  1
  Fe  Fe77  1  0.19173000  0.53610966  0.71541235  1
  Fe  Fe78  1  0.19182072  0.03166757  0.71255233  1
  Fe  Fe79  1  0.69936661  0.03116858  0.38014411  1
  Fe  Fe80  1  0.18467810  0.53518152  0.04007349  1
  Fe  Fe81  1  0.19381057  0.03311067  0.38071893  1
  Fe  Fe82  1  0.03727697  0.69392719  0.21710010  1
  Fe  Fe83  1  0.02771347  0.20178141  0.54569652  1
  Fe  Fe84  1  0.53248393  0.19945707  0.87895313  1
  Fe  Fe85  1  0.53818411  0.19201033  0.55127401  1
  Fe  Fe86  1  0.53430079  0.68704668  0.20870404  1
  Fe  Fe87  1  0.03453631  0.19091539  0.87487517  1
  Fe  Fe88  1  0.53424237  0.69334563  0.54744636  1
  Fe  Fe89  1  0.03260487  0.68985500  0.54161054  1
  Fe  Fe90  1  0.53523810  0.69029686  0.88059429  1
  Fe  Fe91  1  0.53593943  0.19701434  0.21761937  1
  Fe  Fe92  1  0.80130610  0.46983941  0.95628995  1
  Fe  Fe93  1  0.80740054  0.96691178  0.62172887  1
  Fe  Fe94  1  0.30690189  0.96543576  0.94917571  1
  Fe  Fe95  1  0.30612423  0.46381558  0.62138673  1
  Fe  Fe96  1  0.80669307  0.96468069  0.95223646  1
  Fe  Fe97  1  0.80897172  0.47082359  0.28583389  1
  Fe  Fe98  1  0.29652440  0.46724963  0.28870590  1
  Fe  Fe99  1  0.31015761  0.46564290  0.95513489  1
  Fe  Fe100  1  0.30517905  0.96331637  0.61542814  1
  Fe  Fe101  1  0.30686468  0.96095858  0.28162552  1
  S  S102  1  0.36168216  0.13922369  0.08465581  1
  S  S103  1  0.36465811  0.13445323  0.41498857  1
  S  S104  1  0.35836727  0.13557911  0.75204642  1
  S  S105  1  0.35717065  0.64065007  0.08502928  1
  S  S106  1  0.36187350  0.63656265  0.41755302  1
  S  S107  1  0.35943249  0.64207986  0.74748731  1
  S  S108  1  0.85392827  0.14081826  0.08049428  1
  S  S109  1  0.86369284  0.13450021  0.41840185  1
  S  S110  1  0.86145788  0.14105560  0.74798915  1
  S  S111  1  0.86491611  0.64249673  0.08219136  1
  S  S112  1  0.85553465  0.64836281  0.41329165  1
  S  S113  1  0.85510096  0.64288178  0.74962180  1
  S  S114  1  0.14040155  0.35361978  0.24687349  1
  S  S115  1  0.14128944  0.35894566  0.58591937  1
  S  S116  1  0.14193035  0.35630759  0.91645718  1
  S  S117  1  0.14269577  0.85913895  0.25092166  1
  S  S118  1  0.13964548  0.85846816  0.58016253  1
  S  S119  1  0.14176040  0.86089386  0.91328158  1
  S  S120  1  0.64027604  0.36295685  0.25282074  1
  S  S121  1  0.63723171  0.36065855  0.58681467  1
  S  S122  1  0.64319624  0.35696124  0.91182182  1
  S  S123  1  0.63275968  0.86146390  0.24927758  1
  S  S124  1  0.63813066  0.86067750  0.58301322  1
  S  S125  1  0.63832561  0.86000897  0.91894600  1
  S  S126  1  0.06362548  0.16372430  0.03568814  1
  S  S127  1  0.06805646  0.16219353  0.37905781  1
  S  S128  1  0.07538291  0.17393237  0.71074115  1
  S  S129  1  0.06803641  0.67640067  0.04536574  1
  S  S130  1  0.05809097  0.66545654  0.37496810  1
  S  S131  1  0.06557509  0.67227345  0.70561598  1
  S  S132  1  0.57012073  0.17812666  0.04503742  1
  S  S133  1  0.57160086  0.16777395  0.37640410  1
  S  S134  1  0.56396987  0.15778915  0.70747979  1
  S  S135  1  0.56342562  0.66979658  0.04177038  1
  S  S136  1  0.56741513  0.67029872  0.37516881  1
  S  S137  1  0.57169485  0.67257446  0.71108862  1
  S  S138  1  0.32702366  0.43188553  0.12596111  1
  S  S139  1  0.32762161  0.42304659  0.45673861  1
  S  S140  1  0.33828405  0.44215324  0.79536259  1
  S  S141  1  0.33124006  0.93272800  0.12195716  1
  S  S142  1  0.33304470  0.93148125  0.45831351  1
  S  S143  1  0.32940063  0.92932322  0.78692563  1
  S  S144  1  0.84017683  0.43321342  0.12667811  1
  S  S145  1  0.84021401  0.44959167  0.45742347  1
  S  S146  1  0.82152595  0.43387388  0.79256692  1
  S  S147  1  0.83312990  0.93937439  0.12387194  1
  S  S148  1  0.82811094  0.93057911  0.45986270  1
  S  S149  1  0.82698142  0.92978261  0.78833485  1
  S  S150  1  0.42756171  0.32847946  0.29057930  1
  S  S151  1  0.42959764  0.32430782  0.62303923  1
  S  S152  1  0.43374556  0.32960731  0.96096489  1
  S  S153  1  0.43192594  0.83079708  0.28887606  1
  S  S154  1  0.43231784  0.83053829  0.62315530  1
  S  S155  1  0.43102505  0.83076919  0.95569847  1
  S  S156  1  0.93172929  0.33357975  0.29145508  1
  S  S157  1  0.93711910  0.33213811  0.62942351  1
  S  S158  1  0.93204910  0.32583517  0.95611922  1
  S  S159  1  0.94048043  0.83601613  0.28964605  1
  S  S160  1  0.93210626  0.83095802  0.62422514  1
  S  S161  1  0.93646248  0.84548057  0.96209729  1
  S  S162  1  0.16936314  0.06059021  0.20889862  1
  S  S163  1  0.17070799  0.06887152  0.54365543  1
  S  S164  1  0.17240266  0.06839337  0.87623636  1
  S  S165  1  0.16589587  0.56416679  0.20344283  1
  S  S166  1  0.16851230  0.56211930  0.54232620  1
  S  S167  1  0.17500770  0.56942068  0.88089325  1
  S  S168  1  0.66417056  0.07092308  0.20788909  1
  S  S169  1  0.66232797  0.06209930  0.53978489  1
  S  S170  1  0.66960121  0.06853274  0.87632220  1
  S  S171  1  0.66967041  0.56844415  0.21268762  1
  S  S172  1  0.66464878  0.56852547  0.54146086  1
  S  S173  1  0.67181670  0.57061682  0.87330670  1
  O  O174  1  0.36881299  0.21713261  0.07407693  1
  O  O175  1  0.37291744  0.21047090  0.40127225  1
  O  O176  1  0.36231326  0.21241431  0.74284610  1
  O  O177  1  0.36421901  0.71922543  0.07452869  1
  O  O178  1  0.37484429  0.71406507  0.40726249  1
  O  O179  1  0.37152644  0.72032397  0.73786152  1
  O  O180  1  0.86503989  0.22028231  0.07342326  1
  O  O181  1  0.87002305  0.21126368  0.40986278  1
  O  O182  1  0.87023829  0.22197984  0.74673376  1
  O  O183  1  0.87850339  0.71966113  0.07011017  1
  O  O184  1  0.86369756  0.72931946  0.40834402  1
  O  O185  1  0.86087458  0.72746852  0.74919287  1
  O  O186  1  0.28224798  0.12896638  0.09179653  1
  O  O187  1  0.28583445  0.12733233  0.42417480  1
  O  O188  1  0.28156959  0.12155780  0.76382196  1
  O  O189  1  0.27652515  0.63015490  0.08945610  1
  O  O190  1  0.28812434  0.62909265  0.43131612  1
  O  O191  1  0.27915810  0.63746412  0.75439970  1
  O  O192  1  0.77217335  0.13431461  0.08439822  1
  O  O193  1  0.78740117  0.12036234  0.43157740  1
  O  O194  1  0.78369757  0.12878127  0.75870712  1
  O  O195  1  0.78822604  0.63688092  0.09080252  1
  O  O196  1  0.77718772  0.63838975  0.42273563  1
  O  O197  1  0.76806360  0.63133840  0.74689213  1
  O  O198  1  0.13642338  0.27356435  0.24955040  1
  O  O199  1  0.12954042  0.27933121  0.59562517  1
  O  O200  1  0.13156655  0.27741384  0.92542396  1
  O  O201  1  0.13484289  0.78048198  0.25897811  1
  O  O202  1  0.13141346  0.77854406  0.58639546  1
  O  O203  1  0.13801828  0.78353270  0.92130507  1
  O  O204  1  0.63095262  0.28249281  0.25789879  1
  O  O205  1  0.62004701  0.28607759  0.60142533  1
  O  O206  1  0.63225918  0.27284957  0.90992981  1
  O  O207  1  0.61920361  0.78471465  0.26132611  1
  O  O208  1  0.62965894  0.78184122  0.59152031  1
  O  O209  1  0.63003625  0.78135331  0.92767303  1
  O  O210  1  0.21840251  0.36916119  0.23612400  1
  O  O211  1  0.22574954  0.36396817  0.58817872  1
  O  O212  1  0.22206298  0.36357001  0.90941474  1
  O  O213  1  0.22067348  0.86747231  0.23957731  1
  O  O214  1  0.21866979  0.86802182  0.57129381  1
  O  O215  1  0.21846572  0.87490959  0.90051048  1
  O  O216  1  0.71652428  0.37179886  0.23983369  1
  O  O217  1  0.71321832  0.36638093  0.57818513  1
  O  O218  1  0.72796853  0.36552648  0.91530285  1
  O  O219  1  0.70861728  0.86735100  0.23917545  1
  O  O220  1  0.71674496  0.87031926  0.57493779  1
  O  O221  1  0.71569862  0.86920028  0.90735582  1
  O  O222  1  0.42036578  0.13421470  0.15405553  1
  O  O223  1  0.42453237  0.12752556  0.48305752  1
  O  O224  1  0.42018137  0.12807663  0.81957547  1
  O  O225  1  0.41350066  0.63743270  0.15651445  1
  O  O226  1  0.42656776  0.62651320  0.48291141  1
  O  O227  1  0.41643597  0.63514687  0.81678449  1
  O  O228  1  0.90973219  0.12897595  0.14640280  1
  O  O229  1  0.92565423  0.12981839  0.49093951  1
  O  O230  1  0.92209281  0.12764190  0.81255007  1
  O  O231  1  0.92611438  0.63343760  0.14936364  1
  O  O232  1  0.91453888  0.64001956  0.48127557  1
  O  O233  1  0.90537256  0.63684789  0.81985092  1
  O  O234  1  0.37257737  0.07892422  0.01826023  1
  O  O235  1  0.37312086  0.07192245  0.34855410  1
  O  O236  1  0.36735850  0.07447652  0.68449864  1
  O  O237  1  0.36961229  0.58147360  0.02011746  1
  O  O238  1  0.36703326  0.57535712  0.34854256  1
  O  O239  1  0.36620038  0.58162066  0.67999114  1
  O  O240  1  0.86097809  0.08313056  0.01025897  1
  O  O241  1  0.87502798  0.07288464  0.35529239  1
  O  O242  1  0.86529766  0.08535399  0.67607535  1
  O  O243  1  0.87382018  0.58051001  0.01514190  1
  O  O244  1  0.86278195  0.59244389  0.34393124  1
  O  O245  1  0.86592503  0.59132347  0.68196720  1
  O  O246  1  0.08052798  0.36208382  0.17757015  1
  O  O247  1  0.08965971  0.36557135  0.51637386  1
  O  O248  1  0.08377795  0.36408411  0.84893473  1
  O  O249  1  0.08307947  0.87040284  0.18494383  1
  O  O250  1  0.08078121  0.86833838  0.51344123  1
  O  O251  1  0.07920276  0.87001973  0.84729993  1
  O  O252  1  0.57733856  0.37394732  0.18777500  1
  O  O253  1  0.57604954  0.36704210  0.51819109  1
  O  O254  1  0.59245096  0.37119620  0.84422726  1
  O  O255  1  0.57060081  0.87120719  0.18230635  1
  O  O256  1  0.57811332  0.86819577  0.51477572  1
  O  O257  1  0.57782272  0.86708615  0.85081406  1
  O  O258  1  0.13011068  0.41110172  0.31306080  1
  O  O259  1  0.13150768  0.41883424  0.65304672  1
  O  O260  1  0.13616019  0.41547913  0.98526491  1
  O  O261  1  0.13855721  0.91734877  0.32106677  1
  O  O262  1  0.13313231  0.91606794  0.64980352  1
  O  O263  1  0.13551790  0.92121828  0.98231020  1
  O  O264  1  0.63511752  0.41990584  0.32289252  1
  O  O265  1  0.62928740  0.42493735  0.65446536  1
  O  O266  1  0.63062880  0.40850571  0.97986663  1
  O  O267  1  0.62444489  0.92364881  0.31691890  1
  O  O268  1  0.62915532  0.91986010  0.65057951  1
  O  O269  1  0.63179981  0.91963689  0.98736201  1
  O  O270  1  0.02527580  0.19059878  0.09344108  1
  O  O271  1  0.04525365  0.18871997  0.44881315  1
  O  O272  1  0.03480963  0.20056436  0.76808726  1
  O  O273  1  0.03819338  0.70813449  0.11184427  1
  O  O274  1  0.02335135  0.70578951  0.43672104  1
  O  O275  1  0.02873807  0.70039081  0.76436449  1
  O  O276  1  0.53097808  0.20503657  0.10497118  1
  O  O277  1  0.53707071  0.19796254  0.43885578  1
  O  O278  1  0.52583397  0.18035863  0.76537684  1
  O  O279  1  0.52424128  0.70280304  0.10228061  1
  O  O280  1  0.53321736  0.70211878  0.43784230  1
  O  O281  1  0.53348257  0.69821369  0.77156193  1
  O  O282  1  0.30133242  0.46833127  0.06484091  1
  O  O283  1  0.30365909  0.45691614  0.39537839  1
  O  O284  1  0.29929038  0.47694746  0.73375419  1
  O  O285  1  0.30043149  0.96811711  0.06018125  1
  O  O286  1  0.30101876  0.96533012  0.39606686  1
  O  O287  1  0.29597418  0.96263830  0.72400081  1
  O  O288  1  0.81863768  0.46782476  0.06569327  1
  O  O289  1  0.79976011  0.47935487  0.39032252  1
  O  O290  1  0.79195839  0.47479738  0.73525500  1
  O  O291  1  0.79816879  0.96994520  0.05732180  1
  O  O292  1  0.79488169  0.95969980  0.39642612  1
  O  O293  1  0.79845066  0.96806588  0.72791008  1
  O  O294  1  0.46624076  0.29977742  0.23034703  1
  O  O295  1  0.45721873  0.29004047  0.55567038  1
  O  O296  1  0.47146769  0.30067517  0.90271115  1
  O  O297  1  0.46345644  0.79918408  0.22564096  1
  O  O298  1  0.46822658  0.80033764  0.56180704  1
  O  O299  1  0.46592771  0.79878049  0.89409630  1
  O  O300  1  0.95894233  0.30325912  0.22534961  1
  O  O301  1  0.97345168  0.29314228  0.56838935  1
  O  O302  1  0.97091142  0.29926994  0.89606269  1
  O  O303  1  0.97528551  0.79700661  0.22828620  1
  O  O304  1  0.96990174  0.80279146  0.56402843  1
  O  O305  1  0.97089710  0.82242890  0.90111789  1
  O  O306  1  0.20746608  0.02687219  0.27142131  1
  O  O307  1  0.20122003  0.03254024  0.60531889  1
  O  O308  1  0.20488169  0.03423081  0.93909273  1
  O  O309  1  0.19357829  0.52813712  0.26318504  1
  O  O310  1  0.20115677  0.53047234  0.60796458  1
  O  O311  1  0.20892644  0.52618756  0.93825089  1
  O  O312  1  0.68413073  0.03664954  0.26888443  1
  O  O313  1  0.69681218  0.02894696  0.60301352  1
  O  O314  1  0.69693227  0.02925866  0.93530580  1
  O  O315  1  0.70004826  0.53368203  0.27644330  1
  O  O316  1  0.68743870  0.53339862  0.60253839  1
  O  O317  1  0.69874412  0.53041778  0.92945446  1
  O  O318  1  0.08205177  0.08066206  0.03047811  1
  O  O319  1  0.08873056  0.07904982  0.36962765  1
  O  O320  1  0.09086571  0.09090245  0.70285864  1
  O  O321  1  0.08643073  0.59443276  0.04289764  1
  O  O322  1  0.06419323  0.58411227  0.37317703  1
  O  O323  1  0.08697092  0.59142375  0.69993397  1
  O  O324  1  0.59124086  0.09784967  0.04175241  1
  O  O325  1  0.58576792  0.08414287  0.37026501  1
  O  O326  1  0.58036121  0.07320838  0.69627854  1
  O  O327  1  0.57524862  0.58919500  0.03558770  1
  O  O328  1  0.58495342  0.58864134  0.37030180  1
  O  O329  1  0.59677543  0.59382557  0.70637105  1
  O  O330  1  0.40977360  0.41416346  0.13629835  1
  O  O331  1  0.41066317  0.40584116  0.46742620  1
  O  O332  1  0.42064887  0.43660013  0.80092393  1
  O  O333  1  0.41320334  0.91539915  0.12664561  1
  O  O334  1  0.41537033  0.91443551  0.46089612  1
  O  O335  1  0.41113458  0.91398888  0.78957680  1
  O  O336  1  0.92290349  0.41385483  0.13949459  1
  O  O337  1  0.92343837  0.44708275  0.46378692  1
  O  O338  1  0.90031801  0.41275541  0.79271045  1
  O  O339  1  0.91507759  0.92117567  0.12580476  1
  O  O340  1  0.91222309  0.91711149  0.46641465  1
  O  O341  1  0.90654656  0.90815722  0.79242088  1
  O  O342  1  0.40849413  0.40955936  0.29567592  1
  O  O343  1  0.40730660  0.40455605  0.62628469  1
  O  O344  1  0.41218627  0.40954415  0.96181778  1
  O  O345  1  0.41655251  0.91411376  0.29402121  1
  O  O346  1  0.41776727  0.91391439  0.62929437  1
  O  O347  1  0.41221586  0.91199653  0.95836454  1
  O  O348  1  0.91070740  0.41613003  0.29686689  1
  O  O349  1  0.92587285  0.41087404  0.62798200  1
  O  O350  1  0.91325699  0.40699252  0.96409865  1
  O  O351  1  0.93302290  0.91728359  0.29150194  1
  O  O352  1  0.91387340  0.91282981  0.62908641  1
  O  O353  1  0.92142840  0.93068409  0.97419293  1
  O  O354  1  0.08877199  0.07159864  0.20674324  1
  O  O355  1  0.08938078  0.08706323  0.53867472  1
  O  O356  1  0.09134050  0.08496969  0.87281017  1
  O  O357  1  0.08333170  0.58295476  0.19901372  1
  O  O358  1  0.08962549  0.58761623  0.54317551  1
  O  O359  1  0.10130623  0.59320266  0.88706327  1
  O  O360  1  0.57874063  0.08676505  0.19212281  1
  O  O361  1  0.57742529  0.07126982  0.53345057  1
  O  O362  1  0.58951406  0.09011680  0.87175701  1
  O  O363  1  0.58748253  0.58675319  0.21125557  1
  O  O364  1  0.58201927  0.58747255  0.52933915  1
  O  O365  1  0.58787878  0.58537731  0.86518062  1
  O  O366  1  0.13645992  0.21431730  0.05245904  1
  O  O367  1  0.13848915  0.21388431  0.39040607  1
  O  O368  1  0.14754565  0.22574581  0.73022336  1
  O  O369  1  0.14229679  0.72640456  0.06293914  1
  O  O370  1  0.13329592  0.71110768  0.39130515  1
  O  O371  1  0.13705990  0.72594766  0.72209872  1
  O  O372  1  0.63922689  0.23339063  0.06228292  1
  O  O373  1  0.64211294  0.21683408  0.38812554  1
  O  O374  1  0.63649129  0.20771218  0.72531578  1
  O  O375  1  0.63435429  0.72279040  0.06040289  1
  O  O376  1  0.63785907  0.72238886  0.38982021  1
  O  O377  1  0.63930975  0.73095473  0.72932064  1
  O  O378  1  0.27507511  0.35913924  0.10628735  1
  O  O379  1  0.27594807  0.35086219  0.44098100  1
  O  O380  1  0.29251775  0.36622342  0.77854473  1
  O  O381  1  0.27992132  0.86202527  0.10779432  1
  O  O382  1  0.28387856  0.86160924  0.44860807  1
  O  O383  1  0.28003772  0.85751384  0.77394664  1
  O  O384  1  0.78542572  0.36251863  0.10873247  1
  O  O385  1  0.79816856  0.37200386  0.43938726  1
  O  O386  1  0.76711756  0.36461781  0.77631771  1
  O  O387  1  0.78379412  0.86771367  0.11054004  1
  O  O388  1  0.78062992  0.85831199  0.44982335  1
  O  O389  1  0.77047033  0.86214418  0.77225650  1
  O  O390  1  0.35706555  0.27388863  0.27174912  1
  O  O391  1  0.35983799  0.27130399  0.61134220  1
  O  O392  1  0.36288740  0.27590381  0.94547951  1
  O  O393  1  0.36109037  0.78224217  0.27847563  1
  O  O394  1  0.35973930  0.78094701  0.60686530  1
  O  O395  1  0.36040859  0.77962883  0.94289292  1
  O  O396  1  0.86021122  0.28241205  0.27955093  1
  O  O397  1  0.86677044  0.28401202  0.61924396  1
  O  O398  1  0.86078254  0.27082611  0.93464517  1
  O  O399  1  0.86731142  0.78947100  0.27639706  1
  O  O400  1  0.85957378  0.77942955  0.60628225  1
  O  O401  1  0.86367637  0.79621584  0.94597353  1
  O  O402  1  0.21890908  0.13358569  0.22335638  1
  O  O403  1  0.22375773  0.13983931  0.56001887  1
  O  O404  1  0.22383802  0.13947628  0.89066974  1
  O  O405  1  0.21768427  0.63441761  0.21745107  1
  O  O406  1  0.22286689  0.63138283  0.55560424  1
  O  O407  1  0.23449501  0.63654332  0.89743285  1
  O  O408  1  0.71571245  0.14245754  0.22473173  1
  O  O409  1  0.70449838  0.13678020  0.55311053  1
  O  O410  1  0.72523838  0.13668322  0.89196390  1
  O  O411  1  0.71911498  0.64162895  0.23043473  1
  O  O412  1  0.71741585  0.63977825  0.55833094  1
  O  O413  1  0.72224173  0.64458133  0.89377129  1
  O  O414  1  0.49068603  0.33635932  0.03646045  1
  O  O415  1  0.48636005  0.33056457  0.36297561  1
  O  O416  1  0.49358391  0.33041271  0.69152361  1
  O  O417  1  0.49185953  0.83725547  0.02868570  1
  O  O418  1  0.49363338  0.83544871  0.36146608  1
  O  O419  1  0.49151158  0.83193982  0.69552185  1
  O  O420  1  0.98912580  0.32362143  0.02817950  1
  O  O421  1  0.99460860  0.33916566  0.36059418  1
  O  O422  1  0.99812074  0.33429051  0.70318590  1
  O  O423  1  0.99563343  0.84282716  0.03325449  1
  O  O424  1  0.99823338  0.83700190  0.36399811  1
  O  O425  1  0.98903198  0.83132506  0.69691600  1
  O  O426  1  0.17013289  0.00297582  0.13593093  1
  O  O427  1  0.17104459  0.00826573  0.47286465  1
  O  O428  1  0.17021559  0.00770749  0.80454649  1
  O  O429  1  0.15931608  0.50513735  0.12844305  1
  O  O430  1  0.15838968  0.49939612  0.47227656  1
  O  O431  1  0.16964314  0.51235344  0.80543154  1
  O  O432  1  0.66560613  0.01038215  0.13640797  1
  O  O433  1  0.66302402  0.00205881  0.46842009  1
  O  O434  1  0.66532510  0.00845379  0.80276491  1
  O  O435  1  0.66749976  0.50971623  0.14313376  1
  O  O436  1  0.66562361  0.50844598  0.47047495  1
  O  O437  1  0.66933855  0.51630468  0.79712047  1
  O  O438  1  0.00274774  0.15902226  0.31302981  1
  O  O439  1  0.01865329  0.17192674  0.63612064  1
  O  O440  1  0.00713542  0.15933530  0.96052451  1
  O  O441  1  0.00243610  0.66780385  0.30206466  1
  O  O442  1  0.00747563  0.66888940  0.63126220  1
  O  O443  1  0.00897410  0.67678538  0.97728431  1
  O  O444  1  0.50931231  0.16434529  0.30402052  1
  O  O445  1  0.50652278  0.15830621  0.63426203  1
  O  O446  1  0.51102786  0.17412691  0.97203921  1
  O  O447  1  0.50618774  0.66770306  0.30351691  1
  O  O448  1  0.51131176  0.66965474  0.63898945  1
  O  O449  1  0.50524740  0.67348873  0.96917306  1
  O  O450  1  0.32503833  0.49015192  0.19720991  1
  O  O451  1  0.32558097  0.48277481  0.52770456  1
  O  O452  1  0.33373556  0.49709534  0.86779355  1
  O  O453  1  0.33492950  0.99315067  0.19448271  1
  O  O454  1  0.34000185  0.99397594  0.53137094  1
  O  O455  1  0.33188667  0.99017417  0.85869171  1
  O  O456  1  0.83638243  0.49345039  0.19683264  1
  O  O457  1  0.83129879  0.50573087  0.52481126  1
  O  O458  1  0.82907111  0.49122873  0.86805342  1
  O  O459  1  0.83810625  1.00264117  0.19235131  1
  O  O460  1  0.83235703  0.99229094  0.53272250  1
  O  O461  1  0.83105649  0.99021372  0.86113664  1
