# generated using pymatgen
data_Na31Fe20(SO4)36
_symmetry_space_group_name_H-M   'P 1'
_cell_length_a   18.07344928
_cell_length_b   18.07556223
_cell_length_c   19.70185393
_cell_angle_alpha   107.59246974
_cell_angle_beta   107.59891188
_cell_angle_gamma   90.73091232
_symmetry_Int_Tables_number   1
_chemical_formula_structural   Na31Fe20(SO4)36
_chemical_formula_sum   'Na62 Fe40 S72 O288'
_cell_volume   5809.63403100
_cell_formula_units_Z   2
loop_
 _symmetry_equiv_pos_site_id
 _symmetry_equiv_pos_as_xyz
  1  'x, y, z'
loop_
 _atom_site_type_symbol
 _atom_site_label
 _atom_site_symmetry_multiplicity
 _atom_site_fract_x
 _atom_site_fract_y
 _atom_site_fract_z
 _atom_site_occupancy
  Na  Na0  1  0.13007968  0.36497472  0.07935094  1
  Na  Na1  1  0.13711995  0.36831470  0.42445171  1
  Na  Na2  1  0.14820423  0.35139061  0.74875224  1
  Na  Na3  1  0.14398153  0.87111801  0.09660758  1
  Na  Na4  1  0.12066296  0.85138237  0.40262177  1
  Na  Na5  1  0.13677817  0.85894755  0.74126004  1
  Na  Na6  1  0.64165395  0.37222428  0.08783567  1
  Na  Na7  1  0.67284950  0.37400695  0.44743674  1
  Na  Na8  1  0.63030268  0.37397903  0.74969639  1
  Na  Na9  1  0.61604707  0.86272064  0.08082083  1
  Na  Na10  1  0.62402781  0.86335606  0.41222250  1
  Na  Na11  1  0.63577214  0.86558300  0.75292659  1
  Na  Na12  1  0.35972147  0.13501467  0.24981892  1
  Na  Na13  1  0.36334154  0.13925967  0.58887729  1
  Na  Na14  1  0.35726873  0.13655712  0.90880678  1
  Na  Na15  1  0.35649897  0.62950525  0.24470777  1
  Na  Na16  1  0.36584957  0.64281041  0.59422026  1
  Na  Na17  1  0.36564364  0.64721965  0.92545124  1
  Na  Na18  1  0.86967750  0.13505836  0.25621802  1
  Na  Na19  1  0.86051444  0.13142932  0.57396452  1
  Na  Na20  1  0.86413186  0.13402211  0.91449046  1
  Na  Na21  1  0.87148856  0.64546813  0.25667668  1
  Na  Na22  1  0.86056797  0.61737338  0.56971504  1
  Na  Na23  1  0.87827372  0.63087565  0.92384292  1
  Na  Na24  1  0.98403926  0.51041721  0.43414947  1
  Na  Na25  1  0.52719820  0.48614747  0.40899939  1
  Na  Na26  1  0.99645287  -0.00929489  0.09918189  1
  Na  Na27  1  0.99477121  0.54933828  0.08656912  1
  Na  Na28  1  0.46217692  -0.00013914  0.27759555  1
  Na  Na29  1  0.99432593  0.00743789  0.74051578  1
  Na  Na30  1  0.95804867  0.50558848  0.72709944  1
  Na  Na31  1  0.48657018  0.00955072  0.75413813  1
  Na  Na32  1  0.52521854  0.50039587  0.05157648  1
  Na  Na33  1  0.01367742  0.98767238  0.91862838  1
  Na  Na34  1  0.01304770  0.96762265  0.52750397  1
  Na  Na35  1  0.54179771  0.49509968  0.24976211  1
  Na  Na36  1  0.50608381  0.49419425  0.59743677  1
  Na  Na37  1  -0.00786035  0.51384144  0.25279746  1
  Na  Na38  1  0.50638529  0.97738136  0.93312641  1
  Na  Na39  1  0.49670413  0.55337020  0.87871270  1
  Na  Na40  1  0.50366259  0.99724140  0.56732469  1
  Na  Na41  1  0.00484719  0.97770520  0.28330722  1
  Na  Na42  1  0.24548094  0.24142720  0.34080740  1
  Na  Na43  1  0.74710505  0.74418731  0.66794141  1
  Na  Na44  1  0.74461022  0.23732118  0.34663167  1
  Na  Na45  1  0.25871845  0.26121122  -0.01319268  1
  Na  Na46  1  0.75635210  0.25760492  -0.00526886  1
  Na  Na47  1  0.26733862  0.76705062  -0.00237961  1
  Na  Na48  1  0.75967907  0.75502230  0.33573816  1
  Na  Na49  1  0.23687209  0.74847523  0.32697962  1
  Na  Na50  1  0.72034469  0.72225107  0.00106384  1
  Na  Na51  1  0.76178623  0.27113638  0.64401340  1
  Na  Na52  1  0.26376236  0.75900476  0.81585558  1
  Na  Na53  1  0.74926595  0.73907498  0.49670453  1
  Na  Na54  1  0.74809104  0.25083085  0.17314197  1
  Na  Na55  1  0.27507665  0.78117623  0.16799579  1
  Na  Na56  1  0.24178730  0.24049728  0.51413603  1
  Na  Na57  1  0.75481728  0.26089906  0.82276849  1
  Na  Na58  1  0.73925995  0.73847966  0.84336750  1
  Na  Na59  1  0.73602351  0.73728812  0.16627358  1
  Na  Na60  1  0.25114760  0.25371942  0.16397756  1
  Na  Na61  1  0.23588426  0.74117329  0.50926998  1
  Fe  Fe62  1  0.46813963  0.30669836  0.11904496  1
  Fe  Fe63  1  0.96695253  0.80114148  0.12236481  1
  Fe  Fe64  1  0.46551583  0.30627965  0.45241771  1
  Fe  Fe65  1  0.46154311  0.31483647  0.78849882  1
  Fe  Fe66  1  0.96596505  0.80795454  0.78497941  1
  Fe  Fe67  1  0.96613193  0.30810232  0.45821760  1
  Fe  Fe68  1  0.96652983  0.30899457  0.12388723  1
  Fe  Fe69  1  0.45891784  0.80542820  0.45076934  1
  Fe  Fe70  1  0.46908935  0.79773382  0.78794598  1
  Fe  Fe71  1  0.96701181  0.30893633  0.78393077  1
  Fe  Fe72  1  0.20222411  0.03120134  0.37913847  1
  Fe  Fe73  1  0.19266879  0.03976041  0.71540015  1
  Fe  Fe74  1  0.69197834  0.03568149  0.71479564  1
  Fe  Fe75  1  0.68789312  0.03525719  0.38037363  1
  Fe  Fe76  1  0.19141447  0.53121496  0.38129961  1
  Fe  Fe77  1  0.18800099  0.53548159  0.71220724  1
  Fe  Fe78  1  0.19433339  0.03640139  0.05090769  1
  Fe  Fe79  1  0.69506792  0.03386792  0.05016438  1
  Fe  Fe80  1  0.18934967  0.53446843  0.04711816  1
  Fe  Fe81  1  0.70136838  0.53311672  0.70934292  1
  Fe  Fe82  1  0.03333371  0.70070819  0.54705010  1
  Fe  Fe83  1  0.53470957  0.19349639  0.54889047  1
  Fe  Fe84  1  0.52865882  0.69583594  0.20965012  1
  Fe  Fe85  1  0.03347360  0.19459227  0.21659663  1
  Fe  Fe86  1  0.53408883  0.18924145  0.21293626  1
  Fe  Fe87  1  0.03931869  0.69173403  0.87879726  1
  Fe  Fe88  1  0.53346650  0.69016030  0.54295754  1
  Fe  Fe89  1  0.03471500  0.19433048  0.88062306  1
  Fe  Fe90  1  0.53376453  0.19447301  0.88205962  1
  Fe  Fe91  1  0.03881503  0.18719305  0.54953411  1
  Fe  Fe92  1  0.79573145  0.47530156  0.29150291  1
  Fe  Fe93  1  0.30839810  0.46521752  0.62312957  1
  Fe  Fe94  1  0.30969611  0.46540252  0.28824010  1
  Fe  Fe95  1  0.31111227  0.96908392  0.95673043  1
  Fe  Fe96  1  0.30586467  0.46496025  0.94985363  1
  Fe  Fe97  1  0.80197787  0.95996785  0.28710226  1
  Fe  Fe98  1  0.80444418  0.96468584  0.61643462  1
  Fe  Fe99  1  0.30810521  0.96498900  0.62107739  1
  Fe  Fe100  1  0.80993337  0.96530297  0.95379745  1
  Fe  Fe101  1  0.80246622  0.46750177  0.95800769  1
  S  S102  1  0.35793654  0.14579786  0.08242963  1
  S  S103  1  0.36431926  0.14076241  0.41731298  1
  S  S104  1  0.36163261  0.14153620  0.75162148  1
  S  S105  1  0.35558342  0.63632182  0.08596713  1
  S  S106  1  0.35533000  0.64041748  0.41892327  1
  S  S107  1  0.35832287  0.63613106  0.75049378  1
  S  S108  1  0.86005533  0.13959796  0.08477437  1
  S  S109  1  0.86261006  0.13478221  0.41437718  1
  S  S110  1  0.85965634  0.14133542  0.75034861  1
  S  S111  1  0.85902712  0.64262306  0.08093310  1
  S  S112  1  0.86260010  0.63967567  0.41716454  1
  S  S113  1  0.86106661  0.64716111  0.75268666  1
  S  S114  1  0.14368925  0.35588079  0.25248201  1
  S  S115  1  0.14294066  0.35816596  0.58557893  1
  S  S116  1  0.14001218  0.36019369  0.91695957  1
  S  S117  1  0.13405909  0.86391880  0.24907425  1
  S  S118  1  0.14394441  0.86337928  0.58761053  1
  S  S119  1  0.14026218  0.86217052  0.91554525  1
  S  S120  1  0.63976346  0.35688503  0.25204327  1
  S  S121  1  0.63672039  0.36110327  0.58380132  1
  S  S122  1  0.63818660  0.35586462  0.91696394  1
  S  S123  1  0.63428381  0.85790291  0.25093868  1
  S  S124  1  0.63890990  0.86036873  0.58383790  1
  S  S125  1  0.64312631  0.86221857  0.91566675  1
  S  S126  1  0.06488354  0.16915777  0.04161644  1
  S  S127  1  0.07229492  0.16992120  0.37875024  1
  S  S128  1  0.06428981  0.16487696  0.70829330  1
  S  S129  1  0.07608334  0.67838484  0.04506692  1
  S  S130  1  0.07063484  0.66302538  0.37667823  1
  S  S131  1  0.06614473  0.67143169  0.71022493  1
  S  S132  1  0.56778701  0.16960323  0.04294023  1
  S  S133  1  0.56726280  0.17173279  0.37523674  1
  S  S134  1  0.56524942  0.16491450  0.70917503  1
  S  S135  1  0.56149094  0.66649804  0.04101710  1
  S  S136  1  0.55999661  0.66788674  0.37454323  1
  S  S137  1  0.57208377  0.67241967  0.70746260  1
  S  S138  1  0.33086085  0.42894886  0.12535799  1
  S  S139  1  0.33275888  0.43304836  0.45933276  1
  S  S140  1  0.33373569  0.43689214  0.79529818  1
  S  S141  1  0.33195076  0.94371878  0.12326744  1
  S  S142  1  0.32604461  0.93119297  0.46046608  1
  S  S143  1  0.33348445  0.93734723  0.79335984  1
  S  S144  1  0.82952432  0.42803862  0.12851017  1
  S  S145  1  0.84080072  0.42865866  0.45604250  1
  S  S146  1  0.82938221  0.43156180  0.78997775  1
  S  S147  1  0.82750757  0.92745837  0.12216873  1
  S  S148  1  0.81927789  0.93143847  0.45469913  1
  S  S149  1  0.83206983  0.93625768  0.79087255  1
  S  S150  1  0.43413446  0.32932040  0.29032814  1
  S  S151  1  0.43181296  0.33018430  0.62367596  1
  S  S152  1  0.43330506  0.33040628  0.95891509  1
  S  S153  1  0.42801708  0.82094465  0.29034022  1
  S  S154  1  0.43409201  0.83045517  0.62562895  1
  S  S155  1  0.43032998  0.83542559  0.95559842  1
  S  S156  1  0.93614912  0.33116693  0.29308721  1
  S  S157  1  0.93987191  0.32248965  0.62339361  1
  S  S158  1  0.92981908  0.32858661  0.95894395  1
  S  S159  1  0.92494775  0.83033599  0.28914852  1
  S  S160  1  0.93046109  0.83079496  0.62530721  1
  S  S161  1  0.93590085  0.83528340  0.95919869  1
  S  S162  1  0.16675849  0.07284732  0.20840483  1
  S  S163  1  0.17341754  0.06572262  0.54179999  1
  S  S164  1  0.16613414  0.06680533  0.87622557  1
  S  S165  1  0.16471277  0.55596924  0.20950458  1
  S  S166  1  0.17107044  0.56810074  0.54445843  1
  S  S167  1  0.17180085  0.56898549  0.87655377  1
  S  S168  1  0.67272093  0.06768327  0.21151911  1
  S  S169  1  0.66824075  0.06888153  0.54571278  1
  S  S170  1  0.67025788  0.06924776  0.87699361  1
  S  S171  1  0.66794918  0.57013637  0.20890988  1
  S  S172  1  0.66598820  0.56734337  0.54151786  1
  S  S173  1  0.68210134  0.56771847  0.87250235  1
  O  O174  1  0.36836736  0.22641604  0.07724332  1
  O  O175  1  0.37160592  0.22208884  0.41083390  1
  O  O176  1  0.37402032  0.21920170  0.74396677  1
  O  O177  1  0.35696795  0.71384551  0.07756739  1
  O  O178  1  0.36031967  0.72018667  0.41199551  1
  O  O179  1  0.36942910  0.71475247  0.74180989  1
  O  O180  1  0.86964809  0.21846587  0.07710427  1
  O  O181  1  0.87639689  0.21201449  0.40372836  1
  O  O182  1  0.86747931  0.22155618  0.74553489  1
  O  O183  1  0.87757044  0.71653293  0.06391839  1
  O  O184  1  0.87120589  0.71511127  0.40593454  1
  O  O185  1  0.86776052  0.73018297  0.75232631  1
  O  O186  1  0.27797875  0.13759492  0.08892500  1
  O  O187  1  0.28397706  0.13261227  0.42431011  1
  O  O188  1  0.28380681  0.13141451  0.76030937  1
  O  O189  1  0.28110541  0.61993478  0.10092134  1
  O  O190  1  0.27715483  0.62736629  0.42711648  1
  O  O191  1  0.27606946  0.62835386  0.75294323  1
  O  O192  1  0.78133052  0.13106597  0.09357948  1
  O  O193  1  0.78307636  0.13030893  0.42206174  1
  O  O194  1  0.78181664  0.13063631  0.76073469  1
  O  O195  1  0.77794049  0.64177494  0.08039417  1
  O  O196  1  0.78976649  0.62641157  0.43213928  1
  O  O197  1  0.78035253  0.63482020  0.75693371  1
  O  O198  1  0.13345174  0.27608222  0.25880733  1
  O  O199  1  0.13640009  0.27846505  0.59167807  1
  O  O200  1  0.12872959  0.28187676  0.92724811  1
  O  O201  1  0.12203665  0.79064680  0.26311192  1
  O  O202  1  0.13025556  0.78750412  0.59973564  1
  O  O203  1  0.13275341  0.78285342  0.92252661  1
  O  O204  1  0.63463387  0.27320273  0.24966123  1
  O  O205  1  0.62365292  0.28478627  0.59733620  1
  O  O206  1  0.63039002  0.27427818  0.92278046  1
  O  O207  1  0.62533785  0.77851493  0.26326680  1
  O  O208  1  0.62886443  0.78052706  0.58930037  1
  O  O209  1  0.64025715  0.78480386  0.92312960  1
  O  O210  1  0.22402319  0.36480889  0.24741133  1
  O  O211  1  0.22099053  0.37015711  0.57491645  1
  O  O212  1  0.22070154  0.36800442  0.91316547  1
  O  O213  1  0.20687877  0.87246902  0.23284263  1
  O  O214  1  0.22672592  0.86882009  0.58694609  1
  O  O215  1  0.21840490  0.87349991  0.90747799  1
  O  O216  1  0.71848382  0.37270413  0.24441714  1
  O  O217  1  0.71392234  0.36673686  0.57607027  1
  O  O218  1  0.71915512  0.36399982  0.91137795  1
  O  O219  1  0.71696756  0.86335613  0.24844891  1
  O  O220  1  0.71756359  0.86824582  0.57495047  1
  O  O221  1  0.71999316  0.87801199  0.90353156  1
  O  O222  1  0.41543129  0.13766674  0.15087464  1
  O  O223  1  0.42074943  0.13629694  0.48884167  1
  O  O224  1  0.42157778  0.13107238  0.81941458  1
  O  O225  1  0.41962543  0.63005087  0.15323497  1
  O  O226  1  0.41519566  0.63384259  0.48698455  1
  O  O227  1  0.41274248  0.62801048  0.81866111  1
  O  O228  1  0.91925811  0.12990364  0.15204452  1
  O  O229  1  0.92126801  0.12590182  0.48200591  1
  O  O230  1  0.92039473  0.13127131  0.81714807  1
  O  O231  1  0.91389290  0.63678441  0.15070154  1
  O  O232  1  0.92878721  0.62940844  0.48153701  1
  O  O233  1  0.91850191  0.63843430  0.82193419  1
  O  O234  1  0.36504955  0.08957342  0.01310678  1
  O  O235  1  0.37455696  0.08424231  0.35155853  1
  O  O236  1  0.37099966  0.08079785  0.68435172  1
  O  O237  1  0.36326196  0.57694986  0.01764176  1
  O  O238  1  0.36439351  0.58321013  0.35019453  1
  O  O239  1  0.36681712  0.57733025  0.68149276  1
  O  O240  1  0.86720097  0.08077085  0.01599221  1
  O  O241  1  0.86766990  0.07379657  0.34576513  1
  O  O242  1  0.86681863  0.08333085  0.68141299  1
  O  O243  1  0.87076400  0.57729392  0.01681829  1
  O  O244  1  0.86818458  0.57691281  0.34699147  1
  O  O245  1  0.87268062  0.59353515  0.68567251  1
  O  O246  1  0.08656009  0.36295345  0.18298767  1
  O  O247  1  0.08287438  0.36595611  0.51802025  1
  O  O248  1  0.08346572  0.36475033  0.84675229  1
  O  O249  1  0.06813217  0.87442452  0.18320695  1
  O  O250  1  0.09142220  0.87025832  0.51749630  1
  O  O251  1  0.08017197  0.87107246  0.84773636  1
  O  O252  1  0.58080480  0.36740461  0.18339489  1
  O  O253  1  0.57611265  0.36771269  0.51499931  1
  O  O254  1  0.58181511  0.35915287  0.84490627  1
  O  O255  1  0.57897168  0.86191520  0.18241705  1
  O  O256  1  0.57871409  0.87258501  0.51874251  1
  O  O257  1  0.58103537  0.87071958  0.84902626  1
  O  O258  1  0.13394290  0.41321363  0.32021668  1
  O  O259  1  0.13737277  0.41624451  0.65500786  1
  O  O260  1  0.13039391  0.42006307  0.98379628  1
  O  O261  1  0.12854119  0.92923702  0.31662913  1
  O  O262  1  0.13396299  0.92617175  0.65365421  1
  O  O263  1  0.12937186  0.92046803  0.98323015  1
  O  O264  1  0.62779819  0.40906313  0.31963448  1
  O  O265  1  0.62709034  0.42429792  0.64972352  1
  O  O266  1  0.62738353  0.41223996  0.98239549  1
  O  O267  1  0.62700625  0.91831924  0.31906474  1
  O  O268  1  0.63425121  0.91830660  0.65455157  1
  O  O269  1  0.63452511  0.92249654  0.98394209  1
  O  O270  1  0.02853409  0.19881144  0.10240607  1
  O  O271  1  0.03757699  0.19799408  0.44067125  1
  O  O272  1  0.02744760  0.19854681  0.76950137  1
  O  O273  1  0.03727110  0.70846293  0.10292259  1
  O  O274  1  0.05270016  0.69546249  0.44747044  1
  O  O275  1  0.02684115  0.70215651  0.77039259  1
  O  O276  1  0.52982335  0.19799777  0.10307220  1
  O  O277  1  0.53276520  0.20197438  0.43767134  1
  O  O278  1  0.53081545  0.19427435  0.77084895  1
  O  O279  1  0.53517935  0.68192475  0.11004075  1
  O  O280  1  0.52213607  0.70378225  0.43486955  1
  O  O281  1  0.53603975  0.70031346  0.76673030  1
  O  O282  1  0.30130564  0.46158915  0.06237157  1
  O  O283  1  0.30186171  0.46832225  0.39755008  1
  O  O284  1  0.29992821  0.46927108  0.73194877  1
  O  O285  1  0.29348521  0.97797736  0.05842945  1
  O  O286  1  0.30001210  0.96772809  0.40129170  1
  O  O287  1  0.30282638  0.97393740  0.73240800  1
  O  O288  1  0.80650219  0.46206877  0.06772017  1
  O  O289  1  0.81775012  0.45842602  0.39013547  1
  O  O290  1  0.80280097  0.47393350  0.73405960  1
  O  O291  1  0.80045064  0.96756510  0.06269414  1
  O  O292  1  0.78623269  0.97101725  0.39583393  1
  O  O293  1  0.80200938  0.97291423  0.73003074  1
  O  O294  1  0.47143387  0.29842696  0.23024925  1
  O  O295  1  0.46806016  0.29906095  0.56260402  1
  O  O296  1  0.46817165  0.30030913  0.89662632  1
  O  O297  1  0.46801008  0.78676585  0.23298691  1
  O  O298  1  0.47159655  0.80179755  0.56520392  1
  O  O299  1  0.46320566  0.81294305  0.89224473  1
  O  O300  1  0.97295142  0.29869399  0.23122597  1
  O  O301  1  0.97583683  0.28623750  0.56156389  1
  O  O302  1  0.96773529  0.30224108  0.89858355  1
  O  O303  1  0.94963452  0.80956097  0.22041219  1
  O  O304  1  0.96583997  0.80143639  0.56586484  1
  O  O305  1  0.97503199  0.80756400  0.90046613  1
  O  O306  1  0.19566449  0.04472319  0.27245186  1
  O  O307  1  0.20414054  0.03109213  0.60458083  1
  O  O308  1  0.19605397  0.03247726  0.93840894  1
  O  O309  1  0.20311082  0.52033175  0.27081287  1
  O  O310  1  0.19984529  0.53029260  0.60498793  1
  O  O311  1  0.19953603  0.53090402  0.93710273  1
  O  O312  1  0.70051860  0.02836822  0.27069445  1
  O  O313  1  0.69898657  0.02999945  0.60579382  1
  O  O314  1  0.70179127  0.03674618  0.94020215  1
  O  O315  1  0.69673219  0.53455715  0.27066114  1
  O  O316  1  0.69395625  0.53997712  0.60803263  1
  O  O317  1  0.70465902  0.52254668  0.92568779  1
  O  O318  1  0.08341449  0.08738132  0.03671661  1
  O  O319  1  0.09403873  0.08973199  0.37232733  1
  O  O320  1  0.08144386  0.08380253  0.70917794  1
  O  O321  1  0.09215843  0.59691536  0.04368967  1
  O  O322  1  0.08913017  0.57889302  0.36960415  1
  O  O323  1  0.08196762  0.59017693  0.70742126  1
  O  O324  1  0.58745150  0.08844128  0.03687929  1
  O  O325  1  0.58497762  0.08989898  0.37023851  1
  O  O326  1  0.57993717  0.08074172  0.70170841  1
  O  O327  1  0.58586740  0.58751936  0.02241336  1
  O  O328  1  0.56613880  0.58547652  0.36857446  1
  O  O329  1  0.59571530  0.59234485  0.70205606  1
  O  O330  1  0.41315711  0.41141717  0.13325590  1
  O  O331  1  0.41515804  0.41674560  0.46456104  1
  O  O332  1  0.41659861  0.42238150  0.79914491  1
  O  O333  1  0.40966751  0.92627156  0.12258189  1
  O  O334  1  0.40701964  0.90874546  0.46647661  1
  O  O335  1  0.41612811  0.92220734  0.79861917  1
  O  O336  1  0.91393189  0.41202196  0.14325327  1
  O  O337  1  0.92578944  0.41434618  0.46827146  1
  O  O338  1  0.90813883  0.40827462  0.78738541  1
  O  O339  1  0.90939093  0.90927785  0.12626492  1
  O  O340  1  0.89594651  0.91016568  0.45361206  1
  O  O341  1  0.91507414  0.92116487  0.79735262  1
  O  O342  1  0.41653893  0.41114465  0.29428904  1
  O  O343  1  0.41521034  0.41161307  0.62647658  1
  O  O344  1  0.41315282  0.41109674  0.96315328  1
  O  O345  1  0.40253571  0.89482863  0.28317258  1
  O  O346  1  0.41968778  0.91406064  0.63312613  1
  O  O347  1  0.40995249  0.91837494  0.96229198  1
  O  O348  1  0.92163433  0.41290569  0.29772169  1
  O  O349  1  0.92247118  0.40038610  0.62303078  1
  O  O350  1  0.90887538  0.40880717  0.96796251  1
  O  O351  1  0.90480876  0.91374225  0.30156223  1
  O  O352  1  0.91022785  0.91276194  0.63026408  1
  O  O353  1  0.92309101  0.92023597  0.96702788  1
  O  O354  1  0.08339214  0.09101911  0.19881410  1
  O  O355  1  0.09143566  0.08238258  0.53912157  1
  O  O356  1  0.08220216  0.08131574  0.86937305  1
  O  O357  1  0.08205797  0.56005956  0.20409225  1
  O  O358  1  0.09145815  0.58980544  0.54103802  1
  O  O359  1  0.08972991  0.58587980  0.86801242  1
  O  O360  1  0.59448532  0.09124790  0.21014099  1
  O  O361  1  0.58778211  0.08748517  0.54537454  1
  O  O362  1  0.58778578  0.08524223  0.87068568  1
  O  O363  1  0.59016045  0.59865990  0.21478842  1
  O  O364  1  0.58188596  0.58506170  0.53246936  1
  O  O365  1  0.60668141  0.59576706  0.86960053  1
  O  O366  1  0.13538139  0.22147531  0.05672055  1
  O  O367  1  0.14180456  0.22491355  0.39416754  1
  O  O368  1  0.13469879  0.21374902  0.72068372  1
  O  O369  1  0.14821623  0.72863389  0.06043139  1
  O  O370  1  0.14109733  0.71101947  0.38223955  1
  O  O371  1  0.13793108  0.72359332  0.73028517  1
  O  O372  1  0.63848630  0.22309744  0.06040326  1
  O  O373  1  0.63656081  0.22346528  0.38778376  1
  O  O374  1  0.63748665  0.21375516  0.72348517  1
  O  O375  1  0.62812059  0.72722436  0.06092715  1
  O  O376  1  0.63519535  0.71498688  0.39421849  1
  O  O377  1  0.64179035  0.72719326  0.72183130  1
  O  O378  1  0.27836665  0.35777565  0.11046213  1
  O  O379  1  0.28168406  0.36122373  0.44339951  1
  O  O380  1  0.28653428  0.36626260  0.78592682  1
  O  O381  1  0.27729315  0.87264340  0.10605026  1
  O  O382  1  0.27188344  0.86249733  0.44734985  1
  O  O383  1  0.28280536  0.86622530  0.77785518  1
  O  O384  1  0.77873962  0.35468367  0.11059111  1
  O  O385  1  0.79324474  0.35350460  0.43644024  1
  O  O386  1  0.77325230  0.36073357  0.76896522  1
  O  O387  1  0.77424974  0.85707166  0.10368755  1
  O  O388  1  0.76363023  0.86317419  0.44067815  1
  O  O389  1  0.78118025  0.86469519  0.77419849  1
  O  O390  1  0.36250994  0.27782683  0.27420486  1
  O  O391  1  0.36068907  0.27926194  0.60841578  1
  O  O392  1  0.36528950  0.27691392  0.94652401  1
  O  O393  1  0.36017458  0.76505828  0.27833125  1
  O  O394  1  0.36209948  0.77993134  0.60740053  1
  O  O395  1  0.35646995  0.78335608  0.93478898  1
  O  O396  1  0.86394642  0.27952642  0.27473521  1
  O  O397  1  0.87116798  0.26897660  0.61091530  1
  O  O398  1  0.85974421  0.27228514  0.93936807  1
  O  O399  1  0.85355847  0.77800358  0.27344967  1
  O  O400  1  0.86018849  0.77955235  0.61428369  1
  O  O401  1  0.86210961  0.78719070  0.93955806  1
  O  O402  1  0.21731430  0.14305538  0.21764069  1
  O  O403  1  0.22367822  0.13702373  0.55666070  1
  O  O404  1  0.21498356  0.13927916  0.89149551  1
  O  O405  1  0.20946897  0.63174474  0.22722128  1
  O  O406  1  0.22615554  0.63576060  0.55866345  1
  O  O407  1  0.22421402  0.64083404  0.89559966  1
  O  O408  1  0.72953567  0.13643680  0.22889810  1
  O  O409  1  0.72062530  0.13934967  0.56254497  1
  O  O410  1  0.72094252  0.14021140  0.88972575  1
  O  O411  1  0.72352232  0.63732039  0.22131340  1
  O  O412  1  0.71617688  0.63942004  0.55514472  1
  O  O413  1  0.74302284  0.63481001  0.89375025  1
  O  O414  1  0.49604365  0.33622524  0.03137293  1
  O  O415  1  0.49268384  0.33430143  0.36396072  1
  O  O416  1  0.49082304  0.33201513  0.69630342  1
  O  O417  1  0.48742369  0.83511205  0.02482851  1
  O  O418  1  0.48694374  0.83224431  0.36667060  1
  O  O419  1  0.49194164  0.83102791  0.69867560  1
  O  O420  1  0.98883885  0.32774073  0.03112776  1
  O  O421  1  0.99474600  0.32965754  0.36439433  1
  O  O422  1  1.00115293  0.32578074  0.69639311  1
  O  O423  1  0.99191215  0.83600841  0.03331014  1
  O  O424  1  0.98883533  0.82882320  0.35403379  1
  O  O425  1  0.99145752  0.83884562  0.70025354  1
  O  O426  1  0.16184707  0.00979400  0.13628549  1
  O  O427  1  0.17016792  0.00592452  0.46985771  1
  O  O428  1  0.16556627  0.00743444  0.80438773  1
  O  O429  1  0.16861143  0.50114214  0.13637984  1
  O  O430  1  0.16655639  0.50576092  0.47201163  1
  O  O431  1  0.17308558  0.51005714  0.80513282  1
  O  O432  1  0.66806968  0.00909122  0.13787590  1
  O  O433  1  0.66297347  0.01053742  0.47232210  1
  O  O434  1  0.66846436  0.00826854  0.80515492  1
  O  O435  1  0.65171424  0.50892546  0.13606523  1
  O  O436  1  0.66334093  0.50465829  0.47324325  1
  O  O437  1  0.67838225  0.51192004  0.79585768  1
  O  O438  1  0.01103806  0.16711987  0.30672725  1
  O  O439  1  0.00392502  0.15678736  0.63442759  1
  O  O440  1  0.00548771  0.16506717  0.96821827  1
  O  O441  1  0.00396744  0.65641097  0.31013822  1
  O  O442  1  0.00906614  0.67168290  0.63792671  1
  O  O443  1  0.01841453  0.67362585  0.97025978  1
  O  O444  1  0.50492282  0.16681695  0.30274424  1
  O  O445  1  0.50531057  0.16357894  0.63715935  1
  O  O446  1  0.50816262  0.16754488  0.97058660  1
  O  O447  1  0.50542670  0.67224848  0.30142065  1
  O  O448  1  0.51145336  0.66627536  0.63332337  1
  O  O449  1  0.49539331  0.67110834  0.97786294  1
  O  O450  1  0.33173959  0.48925634  0.19702263  1
  O  O451  1  0.33482772  0.49223131  0.53162978  1
  O  O452  1  0.33868144  0.49960643  0.86758747  1
  O  O453  1  0.33272244  1.00371045  0.19334960  1
  O  O454  1  0.33488887  0.99225113  0.53553822  1
  O  O455  1  0.33450389  0.99750711  0.86551367  1
  O  O456  1  0.82516000  0.48634424  0.19993322  1
  O  O457  1  0.83323404  0.48692222  0.52188911  1
  O  O458  1  0.83715945  0.48440135  0.86639758  1
  O  O459  1  0.83059488  0.98624696  0.19507563  1
  O  O460  1  0.82481284  0.99180078  0.52901115  1
  O  O461  1  0.83394578  0.99510626  0.86383415  1
