# generated using pymatgen
data_Na31Fe20(SO4)36
_symmetry_space_group_name_H-M   'P 1'
_cell_length_a   18.07010294
_cell_length_b   18.07700182
_cell_length_c   19.69781993
_cell_angle_alpha   107.57485125
_cell_angle_beta   107.55732349
_cell_angle_gamma   90.70241720
_symmetry_Int_Tables_number   1
_chemical_formula_structural   Na31Fe20(SO4)36
_chemical_formula_sum   'Na62 Fe40 S72 O288'
_cell_volume   5810.34626130
_cell_formula_units_Z   2
loop_
 _symmetry_equiv_pos_site_id
 _symmetry_equiv_pos_as_xyz
  1  'x, y, z'
loop_
 _atom_site_type_symbol
 _atom_site_label
 _atom_site_symmetry_multiplicity
 _atom_site_fract_x
 _atom_site_fract_y
 _atom_site_fract_z
 _atom_site_occupancy
  Na  Na0  1  0.13771337  0.35789363  0.09121325  1
  Na  Na1  1  0.12488897  0.35497207  0.40001934  1
  Na  Na2  1  0.15314714  0.37129532  0.76480655  1
  Na  Na3  1  0.12447584  0.87095881  0.08671521  1
  Na  Na4  1  0.12744397  0.87789925  0.42104615  1
  Na  Na5  1  0.14677263  0.86205212  0.75145699  1
  Na  Na6  1  0.62708097  0.37482957  0.08028619  1
  Na  Na7  1  0.62813593  0.35868578  0.40060915  1
  Na  Na8  1  0.63387998  0.36846788  0.75197012  1
  Na  Na9  1  0.64360861  0.86497697  0.08710151  1
  Na  Na10  1  0.63828199  0.85983563  0.41853074  1
  Na  Na11  1  0.62960006  0.86812413  0.74813002  1
  Na  Na12  1  0.36672917  0.15059247  0.24646968  1
  Na  Na13  1  0.36089615  0.14534328  0.59352514  1
  Na  Na14  1  0.34780799  0.12701406  0.89862854  1
  Na  Na15  1  0.36093850  0.62429703  0.24654772  1
  Na  Na16  1  0.36144330  0.63531588  0.58769702  1
  Na  Na17  1  0.36623595  0.63519297  0.91791086  1
  Na  Na18  1  0.87369074  0.13218243  0.25379637  1
  Na  Na19  1  0.87391071  0.12836194  0.58641830  1
  Na  Na20  1  0.87156461  0.14448431  0.93388502  1
  Na  Na21  1  0.86734060  0.62804642  0.23719643  1
  Na  Na22  1  0.85710565  0.63239020  0.57429303  1
  Na  Na23  1  0.88011545  0.63580239  0.92910577  1
  Na  Na24  1  0.49297396  0.50853855  0.76476880  1
  Na  Na25  1  0.45494643  0.51003481  0.40414265  1
  Na  Na26  1  1.00636942  0.51672473  0.40192118  1
  Na  Na27  1  0.48898988  0.00846891  0.42239764  1
  Na  Na28  1  1.04498481  -0.01575547  0.68998433  1
  Na  Na29  1  0.49592503  0.03959633  0.08879125  1
  Na  Na30  1  1.00401764  0.48597689  0.77698764  1
  Na  Na31  1  0.99048602  0.49989850  0.07124967  1
  Na  Na32  1  0.99296762  0.05296222  0.12489162  1
  Na  Na33  1  0.47389352  0.50851211  0.98098270  1
  Na  Na34  1  0.49884606  1.01635436  0.89787899  1
  Na  Na35  1  0.00298190  0.99462422  0.90494733  1
  Na  Na36  1  0.50850123  0.48709951  0.58354810  1
  Na  Na37  1  0.48476148  0.99956812  0.61045815  1
  Na  Na38  1  0.49609852  0.48759151  0.23733905  1
  Na  Na39  1  -0.00878742  0.42099280  0.21630890  1
  Na  Na40  1  0.49099519  1.01435988  0.24664234  1
  Na  Na41  1  0.01180697  0.48883656  0.58196582  1
  Na  Na42  1  0.23976254  0.24458355  0.00832509  1
  Na  Na43  1  0.24843317  0.74981127  0.00204700  1
  Na  Na44  1  0.24355296  0.74938006  0.34170223  1
  Na  Na45  1  0.25317522  0.26732744  0.30905617  1
  Na  Na46  1  0.74382220  0.24525399  0.32667277  1
  Na  Na47  1  0.75015538  0.25000396  0.66395160  1
  Na  Na48  1  0.77011560  0.75254179  0.00588698  1
  Na  Na49  1  0.75852168  0.26169634  -0.00170830  1
  Na  Na50  1  0.75743418  0.75703623  0.65383224  1
  Na  Na51  1  0.74599379  0.74057987  0.34070491  1
  Na  Na52  1  0.23979273  0.74038439  0.51450604  1
  Na  Na53  1  0.25833919  0.75302900  0.82536704  1
  Na  Na54  1  0.25591421  0.25246269  0.82247378  1
  Na  Na55  1  0.74921151  0.73702200  0.16741863  1
  Na  Na56  1  0.75060584  0.25241486  0.49607789  1
  Na  Na57  1  0.24035977  0.24320641  0.50563262  1
  Na  Na58  1  0.76017981  0.26322151  0.16165596  1
  Na  Na59  1  0.25030306  0.74521252  0.16872690  1
  Na  Na60  1  0.75189202  0.75139712  0.83155039  1
  Na  Na61  1  0.75230035  0.25410559  0.83458770  1
  Fe  Fe62  1  0.46445499  0.30560333  0.44415147  1
  Fe  Fe63  1  0.96365965  0.30409984  0.45302680  1
  Fe  Fe64  1  0.46351276  0.29849741  0.11916582  1
  Fe  Fe65  1  0.96395183  0.80741831  0.45277457  1
  Fe  Fe66  1  0.46158245  0.30724097  0.78628435  1
  Fe  Fe67  1  0.46503545  0.80660613  0.78633553  1
  Fe  Fe68  1  0.46493920  0.81055120  0.45474363  1
  Fe  Fe69  1  0.46640164  0.80941212  0.12062770  1
  Fe  Fe70  1  0.96682702  0.80453572  0.78466694  1
  Fe  Fe71  1  0.96312792  0.30861101  0.78964438  1
  Fe  Fe72  1  0.19041391  0.03498942  0.04719710  1
  Fe  Fe73  1  0.20568548  0.52450575  0.04110236  1
  Fe  Fe74  1  0.69478328  0.03302049  0.71372930  1
  Fe  Fe75  1  0.69245017  0.03485694  0.05133930  1
  Fe  Fe76  1  0.69286388  0.03253730  0.38062845  1
  Fe  Fe77  1  0.19785990  0.53282348  0.71553841  1
  Fe  Fe78  1  0.68874353  0.53922469  0.38225478  1
  Fe  Fe79  1  0.19786069  0.52684330  0.36856088  1
  Fe  Fe80  1  0.18267766  0.03931753  0.37467982  1
  Fe  Fe81  1  0.69083932  0.53558034  0.71443050  1
  Fe  Fe82  1  0.03647408  0.70012897  0.20629456  1
  Fe  Fe83  1  0.03390490  0.69244508  0.88028651  1
  Fe  Fe84  1  0.53223946  0.69413865  0.54842554  1
  Fe  Fe85  1  0.53274888  0.19352580  0.54651234  1
  Fe  Fe86  1  0.53808377  0.69805697  0.88856041  1
  Fe  Fe87  1  0.53829083  0.19191753  0.87986345  1
  Fe  Fe88  1  0.03176900  0.18936430  0.87996142  1
  Fe  Fe89  1  0.03933678  0.69002241  0.54703659  1
  Fe  Fe90  1  0.53519663  0.69072253  0.21436534  1
  Fe  Fe91  1  0.03874639  0.18536760  0.54701919  1
  Fe  Fe92  1  0.29969636  0.96823598  0.62285342  1
  Fe  Fe93  1  0.80077298  0.47124796  0.28242721  1
  Fe  Fe94  1  0.81319059  0.96300066  0.28699110  1
  Fe  Fe95  1  0.81005933  0.96050340  0.61855852  1
  Fe  Fe96  1  0.30872979  0.46052195  0.62044864  1
  Fe  Fe97  1  0.80489771  0.46641316  0.62044092  1
  Fe  Fe98  1  0.81211849  0.96473596  0.95863843  1
  Fe  Fe99  1  0.30773736  0.96480365  0.28619213  1
  Fe  Fe100  1  0.30359748  0.96702487  0.94867260  1
  Fe  Fe101  1  0.79742372  0.46902701  0.95803232  1
  S  S102  1  0.35706522  0.13640753  0.07956971  1
  S  S103  1  0.35899989  0.14086795  0.41464276  1
  S  S104  1  0.36744738  0.13540649  0.75046595  1
  S  S105  1  0.36406949  0.64304042  0.08437853  1
  S  S106  1  0.35825558  0.64639589  0.41955157  1
  S  S107  1  0.36455418  0.63822363  0.75224632  1
  S  S108  1  0.85168514  0.14191103  0.08328450  1
  S  S109  1  0.85735971  0.14044651  0.42012970  1
  S  S110  1  0.85724231  0.13844736  0.74797214  1
  S  S111  1  0.87002708  0.63850502  0.08074359  1
  S  S112  1  0.86310376  0.63843493  0.42033151  1
  S  S113  1  0.85786221  0.63951007  0.74798388  1
  S  S114  1  0.13940091  0.36375557  0.25535277  1
  S  S115  1  0.13773262  0.36060274  0.58374872  1
  S  S116  1  0.13669788  0.35782667  0.91547241  1
  S  S117  1  0.14543164  0.86051506  0.25331198  1
  S  S118  1  0.13836432  0.85491749  0.58026201  1
  S  S119  1  0.14155192  0.85817835  0.91547852  1
  S  S120  1  0.63597322  0.36512760  0.24706157  1
  S  S121  1  0.63839893  0.35976058  0.58155098  1
  S  S122  1  0.63333284  0.35877454  0.91248482  1
  S  S123  1  0.64217007  0.85803756  0.25167298  1
  S  S124  1  0.63948363  0.85951490  0.58491881  1
  S  S125  1  0.64161589  0.86093264  0.91758460  1
  S  S126  1  0.06458639  0.15886120  0.03752439  1
  S  S127  1  0.06261923  0.17317417  0.37980998  1
  S  S128  1  0.06752944  0.18061884  0.71456319  1
  S  S129  1  0.08223961  0.66885667  0.04137416  1
  S  S130  1  0.07247008  0.67349317  0.37442277  1
  S  S131  1  0.06755657  0.66581935  0.70853332  1
  S  S132  1  0.56646277  0.16984449  0.04103151  1
  S  S133  1  0.56358658  0.16403259  0.37592418  1
  S  S134  1  0.57167941  0.16967740  0.70679956  1
  S  S135  1  0.56824052  0.67467683  0.04825099  1
  S  S136  1  0.56405032  0.67044025  0.37759192  1
  S  S137  1  0.56564060  0.66968126  0.70973973  1
  S  S138  1  0.33198375  0.43004306  0.12290625  1
  S  S139  1  0.33309582  0.43514428  0.46069419  1
  S  S140  1  0.33937205  0.43676242  0.79337010  1
  S  S141  1  0.33157612  0.93393049  0.12437019  1
  S  S142  1  0.33619366  0.93792609  0.46198478  1
  S  S143  1  0.33273136  0.92602648  0.79094361  1
  S  S144  1  0.82300134  0.43856578  0.11817316  1
  S  S145  1  0.82324880  0.43001778  0.45760750  1
  S  S146  1  0.82382423  0.43325736  0.79007094  1
  S  S147  1  0.83551955  0.93804607  0.12468485  1
  S  S148  1  0.82745537  0.92968053  0.45574487  1
  S  S149  1  0.82767032  0.93007864  0.78958987  1
  S  S150  1  0.43796428  0.33167234  0.28770175  1
  S  S151  1  0.43659200  0.33194896  0.62188765  1
  S  S152  1  0.42935826  0.31712469  0.95285615  1
  S  S153  1  0.43628725  0.83428523  0.29370832  1
  S  S154  1  0.43026340  0.82810013  0.62339931  1
  S  S155  1  0.43471565  0.83476951  0.96034109  1
  S  S156  1  0.91893690  0.33725756  0.29757545  1
  S  S157  1  0.93135851  0.33633549  0.62702819  1
  S  S158  1  0.92809586  0.33149686  0.95574734  1
  S  S159  1  0.92997727  0.82121212  0.28934230  1
  S  S160  1  0.93414658  0.82496955  0.62441063  1
  S  S161  1  0.93505192  0.82910269  0.95349652  1
  S  S162  1  0.17821544  0.06918670  0.21600339  1
  S  S163  1  0.17572981  0.07079698  0.54248878  1
  S  S164  1  0.16279775  0.06039433  0.87095451  1
  S  S165  1  0.17311047  0.57629861  0.20439641  1
  S  S166  1  0.17168872  0.56263733  0.54045936  1
  S  S167  1  0.17446714  0.57042261  0.87736447  1
  S  S168  1  0.66749018  0.05765371  0.21139720  1
  S  S169  1  0.66969563  0.06578544  0.54283657  1
  S  S170  1  0.67384300  0.06684338  0.87562552  1
  S  S171  1  0.66644085  0.56911031  0.21255637  1
  S  S172  1  0.66210075  0.56468133  0.54146955  1
  S  S173  1  0.67160458  0.57298746  0.87490259  1
  O  O174  1  0.36825849  0.21639791  0.07342125  1
  O  O175  1  0.36969391  0.21877980  0.40497138  1
  O  O176  1  0.38002470  0.21270986  0.73854059  1
  O  O177  1  0.36786936  0.72564493  0.08115417  1
  O  O178  1  0.36762872  0.72848637  0.41744768  1
  O  O179  1  0.37276577  0.71597719  0.74280769  1
  O  O180  1  0.85958597  0.21546028  0.06840535  1
  O  O181  1  0.86249111  0.22117458  0.41397394  1
  O  O182  1  0.86531946  0.21609736  0.73655100  1
  O  O183  1  0.88465800  0.70793104  0.06117296  1
  O  O184  1  0.86899277  0.71883279  0.41559057  1
  O  O185  1  0.86717388  0.71894614  0.74096355  1
  O  O186  1  0.27661074  0.12816724  0.08321624  1
  O  O187  1  0.27923042  0.13148381  0.41956402  1
  O  O188  1  0.29321350  0.12982284  0.76428547  1
  O  O189  1  0.28303058  0.62748511  0.08668300  1
  O  O190  1  0.27839295  0.63479425  0.42474487  1
  O  O191  1  0.28615360  0.62852502  0.76138040  1
  O  O192  1  0.76894404  0.13150486  0.08635700  1
  O  O193  1  0.77763990  0.12921638  0.42768416  1
  O  O194  1  0.77714066  0.13110056  0.75507973  1
  O  O195  1  0.79612996  0.63641881  0.09649358  1
  O  O196  1  0.78762678  0.62542112  0.43313786  1
  O  O197  1  0.77841427  0.63086626  0.75517120  1
  O  O198  1  0.12641926  0.29457218  0.27683315  1
  O  O199  1  0.12734468  0.28208920  0.58948192  1
  O  O200  1  0.12070197  0.28028605  0.92532153  1
  O  O201  1  0.13225094  0.78051736  0.26116861  1
  O  O202  1  0.13239877  0.77076173  0.57821453  1
  O  O203  1  0.13210620  0.77717350  0.91811087  1
  O  O204  1  0.63560173  0.29239224  0.26457279  1
  O  O205  1  0.63018881  0.28113933  0.59049139  1
  O  O206  1  0.63334196  0.27717596  0.91886142  1
  O  O207  1  0.63079802  0.77960945  0.26074101  1
  O  O208  1  0.62882293  0.78181555  0.59553122  1
  O  O209  1  0.63501261  0.78317686  0.92936145  1
  O  O210  1  0.22140524  0.37972636  0.26226699  1
  O  O211  1  0.21572219  0.36993042  0.57351116  1
  O  O212  1  0.20947437  0.35924907  0.89814389  1
  O  O213  1  0.22805778  0.86391280  0.24976592  1
  O  O214  1  0.21599444  0.86862048  0.57065509  1
  O  O215  1  0.21986552  0.86720423  0.90525096  1
  O  O216  1  0.71137854  0.37956977  0.23304082  1
  O  O217  1  0.71919898  0.36941220  0.57771171  1
  O  O218  1  0.71233949  0.37265105  0.90424585  1
  O  O219  1  0.72050287  0.86370058  0.24183010  1
  O  O220  1  0.72027975  0.86804113  0.58180036  1
  O  O221  1  0.72083186  0.86997601  0.90978083  1
  O  O222  1  0.41424689  0.12334069  0.14446178  1
  O  O223  1  0.41631010  0.13534667  0.48577612  1
  O  O224  1  0.43090889  0.12523395  0.81564874  1
  O  O225  1  0.41909635  0.63951800  0.15672874  1
  O  O226  1  0.41614907  0.63735088  0.48921040  1
  O  O227  1  0.42491309  0.63158702  0.82063379  1
  O  O228  1  0.90569165  0.13719253  0.15339762  1
  O  O229  1  0.91597783  0.13497381  0.48888800  1
  O  O230  1  0.91443448  0.13191690  0.81685331  1
  O  O231  1  0.93399177  0.63146623  0.14863166  1
  O  O232  1  0.92668015  0.62799833  0.48519796  1
  O  O233  1  0.91664130  0.62908624  0.81485846  1
  O  O234  1  0.36587708  0.07951612  0.00903077  1
  O  O235  1  0.37289683  0.08013968  0.35033110  1
  O  O236  1  0.37234132  0.07495366  0.68094638  1
  O  O237  1  0.37963132  0.58978882  0.01961620  1
  O  O238  1  0.37043516  0.59140354  0.35348705  1
  O  O239  1  0.37298021  0.57740259  0.68530216  1
  O  O240  1  0.86311209  0.07721592  0.01818621  1
  O  O241  1  0.86508469  0.08375197  0.35156208  1
  O  O242  1  0.86452967  0.07759316  0.68058755  1
  O  O243  1  0.87497692  0.56843827  0.01687699  1
  O  O244  1  0.87034232  0.58241336  0.35023195  1
  O  O245  1  0.86406899  0.58158311  0.67833149  1
  O  O246  1  0.08596587  0.36100362  0.18115755  1
  O  O247  1  0.07687216  0.37369061  0.51852224  1
  O  O248  1  0.07257649  0.37323182  0.85359066  1
  O  O249  1  0.09034408  0.86990715  0.18714068  1
  O  O250  1  0.07751519  0.86589743  0.51456690  1
  O  O251  1  0.08096904  0.87028081  0.85017335  1
  O  O252  1  0.57240633  0.36507319  0.17731422  1
  O  O253  1  0.58206979  0.36694259  0.51189979  1
  O  O254  1  0.57587791  0.35985250  0.83981769  1
  O  O255  1  0.58289222  0.86808807  0.18481114  1
  O  O256  1  0.58346321  0.86499290  0.51435367  1
  O  O257  1  0.58298592  0.86410665  0.84714689  1
  O  O258  1  0.11640606  0.43262209  0.31350845  1
  O  O259  1  0.13216032  0.42004242  0.65372967  1
  O  O260  1  0.13920498  0.41791887  0.98815755  1
  O  O261  1  0.14214161  0.91802409  0.32430894  1
  O  O262  1  0.13129556  0.90556549  0.65064955  1
  O  O263  1  0.13740987  0.91388521  0.98650420  1
  O  O264  1  0.62500562  0.43014509  0.31083204  1
  O  O265  1  0.62624158  0.41912298  0.64772761  1
  O  O266  1  0.61801981  0.41382289  0.97575979  1
  O  O267  1  0.63596810  0.91715914  0.32076980  1
  O  O268  1  0.62709228  0.92047842  0.64997202  1
  O  O269  1  0.63011067  0.92115078  0.98276781  1
  O  O270  1  0.03061461  0.17375623  0.09724117  1
  O  O271  1  0.02589913  0.20261034  0.44375296  1
  O  O272  1  0.02441311  0.20709174  0.77238604  1
  O  O273  1  0.05101288  0.69690793  0.10445575  1
  O  O274  1  0.02715973  0.69795863  0.42930596  1
  O  O275  1  0.02880423  0.69532461  0.76802431  1
  O  O276  1  0.52733484  0.19805728  0.09861874  1
  O  O277  1  0.53291605  0.20005700  0.44146482  1
  O  O278  1  0.53863058  0.19837184  0.76894374  1
  O  O279  1  0.53039483  0.70967420  0.10888056  1
  O  O280  1  0.52939301  0.70304763  0.44022347  1
  O  O281  1  0.53286998  0.70093741  0.77298152  1
  O  O282  1  0.30359354  0.46558270  0.06090745  1
  O  O283  1  0.30675624  0.47782409  0.40634727  1
  O  O284  1  0.30087113  0.46629934  0.72676618  1
  O  O285  1  0.30073583  0.96830205  0.06231596  1
  O  O286  1  0.31063217  0.97400122  0.40122526  1
  O  O287  1  0.30567215  0.95463811  0.72698793  1
  O  O288  1  0.77836928  0.46917309  0.05846974  1
  O  O289  1  0.79308071  0.46388357  0.39543475  1
  O  O290  1  0.79378505  0.46896125  0.72742049  1
  O  O291  1  0.78943723  0.96883807  0.06123151  1
  O  O292  1  0.79962448  0.96946660  0.39662622  1
  O  O293  1  0.79873386  0.96720150  0.72865221  1
  O  O294  1  0.46680349  0.29355148  0.22367602  1
  O  O295  1  0.47106670  0.30337068  0.55885840  1
  O  O296  1  0.47123393  0.28912129  0.89403764  1
  O  O297  1  0.47267115  0.80421812  0.23330037  1
  O  O298  1  0.47137873  0.80220028  0.56487640  1
  O  O299  1  0.47054156  0.80226147  0.89871555  1
  O  O300  1  0.94300460  0.31100498  0.23140632  1
  O  O301  1  0.96685643  0.30586740  0.56646366  1
  O  O302  1  0.95640134  0.29491087  0.88874838  1
  O  O303  1  0.96830143  0.79203393  0.23103183  1
  O  O304  1  0.97052875  0.79425524  0.56366936  1
  O  O305  1  0.96806732  0.79451505  0.88813461  1
  O  O306  1  0.20933307  0.02510677  0.27284961  1
  O  O307  1  0.20566619  0.03326399  0.60093526  1
  O  O308  1  0.19673055  0.02651239  0.93500482  1
  O  O309  1  0.19457659  0.54476061  0.26700706  1
  O  O310  1  0.20189680  0.52966367  0.60437989  1
  O  O311  1  0.19814666  0.53458470  0.93705244  1
  O  O312  1  0.70694301  0.02265855  0.27270971  1
  O  O313  1  0.69988717  0.02949405  0.60365543  1
  O  O314  1  0.70173412  0.02901522  0.93513146  1
  O  O315  1  0.70585893  0.54444464  0.28208157  1
  O  O316  1  0.69290562  0.52797743  0.60260016  1
  O  O317  1  0.70159754  0.53848735  0.93455402  1
  O  O318  1  0.08418156  0.07409660  0.01958254  1
  O  O319  1  0.08482210  0.09390501  0.37883940  1
  O  O320  1  0.09129354  0.10408820  0.71295132  1
  O  O321  1  0.10533917  0.58891263  0.03405867  1
  O  O322  1  0.09493700  0.59445410  0.37456827  1
  O  O323  1  0.08624452  0.58409452  0.70383607  1
  O  O324  1  0.58687250  0.08854684  0.04062477  1
  O  O325  1  0.58372339  0.08335034  0.37780099  1
  O  O326  1  0.59090488  0.08811198  0.69997402  1
  O  O327  1  0.58379867  0.59595752  0.04691572  1
  O  O328  1  0.57736044  0.58754975  0.37273698  1
  O  O329  1  0.57983690  0.58626508  0.70236918  1
  O  O330  1  0.40878000  0.39776770  0.11885693  1
  O  O331  1  0.41619069  0.41750022  0.46412401  1
  O  O332  1  0.41763484  0.41428385  0.78609138  1
  O  O333  1  0.41369224  0.91605668  0.12865491  1
  O  O334  1  0.42071536  0.92171544  0.47060530  1
  O  O335  1  0.41713263  0.91043531  0.80427852  1
  O  O336  1  0.90331623  0.43077781  0.11525325  1
  O  O337  1  0.90564632  0.41302965  0.46741447  1
  O  O338  1  0.90448757  0.41454259  0.79307247  1
  O  O339  1  0.91532834  0.93630044  0.12339182  1
  O  O340  1  0.90685537  0.90880867  0.46036646  1
  O  O341  1  0.90776959  0.90870834  0.79218195  1
  O  O342  1  0.43491798  0.41516300  0.29636556  1
  O  O343  1  0.42528049  0.41683767  0.63258994  1
  O  O344  1  0.40955487  0.39506295  0.95569661  1
  O  O345  1  0.41920061  0.91684745  0.29785072  1
  O  O346  1  0.40691467  0.90694677  0.62558409  1
  O  O347  1  0.41658244  0.91591751  0.96414328  1
  O  O348  1  0.90532365  0.42318660  0.31190594  1
  O  O349  1  0.91519392  0.41938707  0.63210953  1
  O  O350  1  0.90055906  0.40849284  0.95219002  1
  O  O351  1  0.90504530  0.89873091  0.28850377  1
  O  O352  1  0.91572535  0.90623680  0.62817543  1
  O  O353  1  0.91444977  0.90880195  0.95100133  1
  O  O354  1  0.10270672  0.09054133  0.22095726  1
  O  O355  1  0.09521637  0.08932412  0.54019561  1
  O  O356  1  0.08159815  0.07948437  0.86925760  1
  O  O357  1  0.08963006  0.59387141  0.18750650  1
  O  O358  1  0.08793946  0.57827030  0.53454027  1
  O  O359  1  0.09196815  0.59002836  0.86444041  1
  O  O360  1  0.58626486  0.06585625  0.21026203  1
  O  O361  1  0.58808205  0.08470301  0.53798891  1
  O  O362  1  0.59285866  0.08602457  0.87109269  1
  O  O363  1  0.58716504  0.58953553  0.21761129  1
  O  O364  1  0.57947989  0.58057412  0.53732636  1
  O  O365  1  0.59055882  0.59440118  0.87093774  1
  O  O366  1  0.13409982  0.21201537  0.05200864  1
  O  O367  1  0.13384282  0.22752498  0.40109404  1
  O  O368  1  0.13410469  0.23916497  0.73362484  1
  O  O369  1  0.14945562  0.72494121  0.05291836  1
  O  O370  1  0.14212833  0.73072925  0.39795157  1
  O  O371  1  0.13806261  0.71849432  0.72570284  1
  O  O372  1  0.63579882  0.22306188  0.05502470  1
  O  O373  1  0.63462911  0.21413338  0.38747001  1
  O  O374  1  0.64145442  0.22212725  0.71896348  1
  O  O375  1  0.63912917  0.72737423  0.06322092  1
  O  O376  1  0.63687428  0.71829489  0.39210534  1
  O  O377  1  0.63794673  0.71856931  0.72338875  1
  O  O378  1  0.27446388  0.36534376  0.11119332  1
  O  O379  1  0.28267512  0.36291102  0.44303447  1
  O  O380  1  0.29010313  0.36810228  0.78593539  1
  O  O381  1  0.28021476  0.86365981  0.11141272  1
  O  O382  1  0.28546793  0.86631303  0.44543925  1
  O  O383  1  0.28390304  0.85567106  0.78185086  1
  O  O384  1  0.78079236  0.36313182  0.10962462  1
  O  O385  1  0.77140517  0.35868133  0.44295386  1
  O  O386  1  0.77192278  0.36070110  0.77165913  1
  O  O387  1  0.79299840  0.86119740  0.11118971  1
  O  O388  1  0.77189207  0.86080434  0.43806868  1
  O  O389  1  0.77309851  0.85980113  0.77210417  1
  O  O390  1  0.36382105  0.28898695  0.27811368  1
  O  O391  1  0.36245449  0.28482414  0.60395505  1
  O  O392  1  0.35975465  0.26102801  0.93248897  1
  O  O393  1  0.36560030  0.78336021  0.27967425  1
  O  O394  1  0.36290457  0.77153951  0.60601734  1
  O  O395  1  0.36342273  0.78267952  0.94482352  1
  O  O396  1  0.84689444  0.29002530  0.28954429  1
  O  O397  1  0.85884000  0.28598771  0.61149389  1
  O  O398  1  0.85964963  0.27730963  0.94568486  1
  O  O399  1  0.86159959  0.76556548  0.27623734  1
  O  O400  1  0.86458401  0.77311596  0.61138219  1
  O  O401  1  0.86266411  0.77757329  0.93691124  1
  O  O402  1  0.23595105  0.13592112  0.23358636  1
  O  O403  1  0.22687943  0.14198621  0.55641789  1
  O  O404  1  0.21323959  0.13265503  0.88680291  1
  O  O405  1  0.22611453  0.64868482  0.22321513  1
  O  O406  1  0.22130957  0.63441300  0.55600158  1
  O  O407  1  0.22800378  0.64094552  0.89373615  1
  O  O408  1  0.71348647  0.13187944  0.22556764  1
  O  O409  1  0.72185271  0.13688889  0.55836535  1
  O  O410  1  0.72619620  0.13773115  0.89110087  1
  O  O411  1  0.71538655  0.63999285  0.22116564  1
  O  O412  1  0.71259310  0.63649498  0.55820252  1
  O  O413  1  0.72370698  0.64224298  0.88477338  1
  O  O414  1  0.48716600  0.31578032  0.02578830  1
  O  O415  1  0.49729090  0.32577139  0.35929764  1
  O  O416  1  0.49487246  0.32723751  0.69177986  1
  O  O417  1  0.49456459  0.83741978  0.03247546  1
  O  O418  1  0.49546104  0.83942291  0.36755992  1
  O  O419  1  0.49006014  0.83269698  0.69673213  1
  O  O420  1  0.99294609  0.34283143  0.02461694  1
  O  O421  1  0.98293406  0.33718447  0.36776101  1
  O  O422  1  0.98929158  0.34113361  0.70122261  1
  O  O423  1  0.99488805  0.83285001  0.02257007  1
  O  O424  1  0.98889285  0.83002903  0.36440135  1
  O  O425  1  0.99556559  0.83021356  0.69756431  1
  O  O426  1  0.17141512  0.01154481  0.14012861  1
  O  O427  1  0.17189575  0.01257029  0.46800379  1
  O  O428  1  0.15796798  -0.00051066  0.80053968  1
  O  O429  1  0.17987801  0.51599920  0.13556140  1
  O  O430  1  0.16971838  0.50270676  0.46900412  1
  O  O431  1  0.17497566  0.51007862  0.80548642  1
  O  O432  1  0.66617037  0.00094139  0.13738487  1
  O  O433  1  0.66652847  0.00580240  0.47048779  1
  O  O434  1  0.67054372  0.00783489  0.80221993  1
  O  O435  1  0.65855436  0.50473514  0.14539496  1
  O  O436  1  0.66048451  0.50642442  0.46880329  1
  O  O437  1  0.66154922  0.51129246  0.79941690  1
  O  O438  1  0.00360890  0.17159894  0.31067434  1
  O  O439  1  0.00878739  0.17773857  0.64027378  1
  O  O440  1  0.00382581  0.15995407  0.96466248  1
  O  O441  1  0.01954929  0.66892074  0.29838864  1
  O  O442  1  0.00893811  0.66171117  0.63483940  1
  O  O443  1  0.01842137  0.66561610  0.97020664  1
  O  O444  1  0.50104165  0.15469739  0.30582889  1
  O  O445  1  0.50925674  0.16526229  0.63449856  1
  O  O446  1  0.50889732  0.15753705  0.96431894  1
  O  O447  1  0.50385126  0.67059916  0.30646367  1
  O  O448  1  0.50520646  0.66918350  0.63845755  1
  O  O449  1  0.50875967  0.67408403  0.97513734  1
  O  O450  1  0.35093766  0.49228137  0.19552891  1
  O  O451  1  0.33944726  0.49030710  0.53766509  1
  O  O452  1  0.35298028  0.50158193  0.86297302  1
  O  O453  1  0.33796048  0.99421681  0.19785351  1
  O  O454  1  0.33883120  0.99640723  0.53509923  1
  O  O455  1  0.33316570  0.99020497  0.86124031  1
  O  O456  1  0.82883522  0.49489292  0.19470251  1
  O  O457  1  0.82309634  0.49118176  0.52894592  1
  O  O458  1  0.82328096  0.49200795  0.86049225  1
  O  O459  1  0.83104969  0.99382792  0.19702269  1
  O  O460  1  0.82964431  0.98858334  0.52920862  1
  O  O461  1  0.83214207  0.98931734  0.86231996  1
