# generated using pymatgen
data_Na31Fe20(SO4)36
_symmetry_space_group_name_H-M   'P 1'
_cell_length_a   18.08248991
_cell_length_b   18.07235842
_cell_length_c   19.72283577
_cell_angle_alpha   107.55681436
_cell_angle_beta   107.58544213
_cell_angle_gamma   90.75525833
_symmetry_Int_Tables_number   1
_chemical_formula_structural   Na31Fe20(SO4)36
_chemical_formula_sum   'Na62 Fe40 S72 O288'
_cell_volume   5819.16813924
_cell_formula_units_Z   2
loop_
 _symmetry_equiv_pos_site_id
 _symmetry_equiv_pos_as_xyz
  1  'x, y, z'
loop_
 _atom_site_type_symbol
 _atom_site_label
 _atom_site_symmetry_multiplicity
 _atom_site_fract_x
 _atom_site_fract_y
 _atom_site_fract_z
 _atom_site_occupancy
  Na  Na0  1  0.13768236  0.36722919  0.08671715  1
  Na  Na1  1  0.13080935  0.37658672  0.41638045  1
  Na  Na2  1  0.12998953  0.36886970  0.74955633  1
  Na  Na3  1  0.13733251  0.86130351  0.08147190  1
  Na  Na4  1  0.12807860  0.85774660  0.40917834  1
  Na  Na5  1  0.13031806  0.85325013  0.74290747  1
  Na  Na6  1  0.66268560  0.36635852  0.11311059  1
  Na  Na7  1  0.64199935  0.37565117  0.42630465  1
  Na  Na8  1  0.65385993  0.35920483  0.75653957  1
  Na  Na9  1  0.63276302  0.87224625  0.08647583  1
  Na  Na10  1  0.62516247  0.86600800  0.40932667  1
  Na  Na11  1  0.62156788  0.85323435  0.73287394  1
  Na  Na12  1  0.37197520  0.13401717  0.25459275  1
  Na  Na13  1  0.36420141  0.12984099  0.58010210  1
  Na  Na14  1  0.36758574  0.13474853  0.92145902  1
  Na  Na15  1  0.36688493  0.64929344  0.26060365  1
  Na  Na16  1  0.36671242  0.63075466  0.57315712  1
  Na  Na17  1  0.36359103  0.64004662  0.92201107  1
  Na  Na18  1  0.87779474  0.13433246  0.25283860  1
  Na  Na19  1  0.86234169  0.13514228  0.57774492  1
  Na  Na20  1  0.85884008  0.13407220  0.90904482  1
  Na  Na21  1  0.86274850  0.62705424  0.24860244  1
  Na  Na22  1  0.86467038  0.63255214  0.58789836  1
  Na  Na23  1  0.85249733  0.62833706  0.90206387  1
  Na  Na24  1  0.48721711  0.54966505  0.09218457  1
  Na  Na25  1  0.49301909  0.00793539  0.75087551  1
  Na  Na26  1  0.99021945  0.00567028  0.08604868  1
  Na  Na27  1  0.52552030  0.48674416  0.73825580  1
  Na  Na28  1  0.95551009  0.49651245  0.36974392  1
  Na  Na29  1  0.99490253  0.50857735  0.09720390  1
  Na  Na30  1  0.93280562  0.51238407  0.71729278  1
  Na  Na31  1  1.01043111  -0.04161702  0.80712908  1
  Na  Na32  1  0.49032952  0.55027031  0.42319239  1
  Na  Na33  1  0.50925992  0.98741959  0.93379424  1
  Na  Na34  1  0.51228804  0.98422138  0.56267621  1
  Na  Na35  1  0.50795576  0.98262364  0.25410709  1
  Na  Na36  1  -0.00622095  0.44616012  0.55123060  1
  Na  Na37  1  0.01240644  0.50207306  0.91279860  1
  Na  Na38  1  0.50980438  0.50027985  0.24756932  1
  Na  Na39  1  0.00285993  0.99450295  0.58224585  1
  Na  Na40  1  0.57150011  0.50733601  0.59841576  1
  Na  Na41  1  0.51498783  0.48752901  0.91779147  1
  Na  Na42  1  0.74087749  0.73987451  0.66917584  1
  Na  Na43  1  0.25016748  0.25349446  0.33712197  1
  Na  Na44  1  0.75094559  0.74895013  -0.00061337  1
  Na  Na45  1  0.24846342  0.74670353  0.66534421  1
  Na  Na46  1  0.76127446  0.26264838  0.66027674  1
  Na  Na47  1  0.73499708  0.74231145  0.33574314  1
  Na  Na48  1  0.24639941  0.24504876  0.00321276  1
  Na  Na49  1  0.25193283  0.25194208  0.66604885  1
  Na  Na50  1  0.75293559  0.25042661  0.00135233  1
  Na  Na51  1  0.78220223  0.28260975  0.32054477  1
  Na  Na52  1  0.23800053  0.73861264  0.84690136  1
  Na  Na53  1  0.24455678  0.24270092  0.17138586  1
  Na  Na54  1  0.24935617  0.25118355  0.83317628  1
  Na  Na55  1  0.24873412  0.74930960  0.16547980  1
  Na  Na56  1  0.77255291  0.27700958  0.49255378  1
  Na  Na57  1  0.24716628  0.74528699  0.48596994  1
  Na  Na58  1  0.75249324  0.75375994  0.82930636  1
  Na  Na59  1  0.73812155  0.74306317  0.17441902  1
  Na  Na60  1  0.73691265  0.74475388  0.50585652  1
  Na  Na61  1  0.25084793  0.25253678  0.49951434  1
  Fe  Fe62  1  0.96539722  0.81165210  0.12533153  1
  Fe  Fe63  1  0.96497873  0.30390779  0.78611993  1
  Fe  Fe64  1  0.46756585  0.79300316  0.45031534  1
  Fe  Fe65  1  0.96672153  0.31254095  0.12156384  1
  Fe  Fe66  1  0.46855647  0.30727523  0.45501620  1
  Fe  Fe67  1  0.95926256  0.81000418  0.45209836  1
  Fe  Fe68  1  0.46428069  0.80424144  0.78520661  1
  Fe  Fe69  1  0.46658980  0.30509406  0.78740293  1
  Fe  Fe70  1  0.46306823  0.30846754  0.12150689  1
  Fe  Fe71  1  0.46886678  0.80077756  0.12183644  1
  Fe  Fe72  1  0.69798438  0.53115603  0.05213625  1
  Fe  Fe73  1  0.18852741  0.53828971  0.04785010  1
  Fe  Fe74  1  0.69639712  0.04011250  0.05377510  1
  Fe  Fe75  1  0.69848121  0.53302630  0.37517183  1
  Fe  Fe76  1  0.18674017  0.53463658  0.71020990  1
  Fe  Fe77  1  0.69393401  0.03915929  0.38363301  1
  Fe  Fe78  1  0.19466319  0.03354831  0.71467899  1
  Fe  Fe79  1  0.19430790  0.02997642  0.04505683  1
  Fe  Fe80  1  0.68963009  0.03859589  0.71606069  1
  Fe  Fe81  1  0.19483567  0.03059775  0.37999494  1
  Fe  Fe82  1  0.03568483  0.69531224  0.22151936  1
  Fe  Fe83  1  0.03384467  0.19208745  0.53648936  1
  Fe  Fe84  1  0.02809642  0.70047431  0.87541812  1
  Fe  Fe85  1  0.04177945  0.19209979  0.21256558  1
  Fe  Fe86  1  0.53643865  0.68669432  0.87851833  1
  Fe  Fe87  1  0.53559899  0.19080967  0.21511982  1
  Fe  Fe88  1  0.53574973  0.19393503  0.88601282  1
  Fe  Fe89  1  0.53395325  0.18758375  0.54746404  1
  Fe  Fe90  1  0.03425599  0.18977995  0.87831191  1
  Fe  Fe91  1  0.02969575  0.69085586  0.54452067  1
  Fe  Fe92  1  0.80733628  0.96490202  0.62066699  1
  Fe  Fe93  1  0.30452910  0.46805251  0.95387086  1
  Fe  Fe94  1  0.80903773  0.97192866  0.28765423  1
  Fe  Fe95  1  0.30072862  0.47282248  0.29126145  1
  Fe  Fe96  1  0.80545690  0.96360468  0.94975942  1
  Fe  Fe97  1  0.31383593  0.95896724  0.95842125  1
  Fe  Fe98  1  0.30424074  0.96485168  0.61645602  1
  Fe  Fe99  1  0.31282244  0.96042225  0.28894892  1
  Fe  Fe100  1  0.30577285  0.46945203  0.61830308  1
  Fe  Fe101  1  0.80943477  0.46301859  0.95058481  1
  S  S102  1  0.36182099  0.13767830  0.08272840  1
  S  S103  1  0.36113572  0.13846196  0.41791684  1
  S  S104  1  0.36048158  0.13989851  0.75271922  1
  S  S105  1  0.35271392  0.64186113  0.08074549  1
  S  S106  1  0.35661400  0.64167090  0.41519549  1
  S  S107  1  0.35768967  0.63975507  0.75320905  1
  S  S108  1  0.86268817  0.13784380  0.07878881  1
  S  S109  1  0.85758830  0.14366198  0.41782862  1
  S  S110  1  0.85904388  0.13865912  0.74901425  1
  S  S111  1  0.86052387  0.64223200  0.08514349  1
  S  S112  1  0.85467533  0.64877576  0.41840424  1
  S  S113  1  0.85299357  0.65198418  0.75957565  1
  S  S114  1  0.14614947  0.35770581  0.24560334  1
  S  S115  1  0.14606125  0.35812346  0.58356565  1
  S  S116  1  0.14060971  0.35905221  0.91719617  1
  S  S117  1  0.14150688  0.85889312  0.25067198  1
  S  S118  1  0.13756066  0.86118910  0.58307672  1
  S  S119  1  0.14286346  0.86000007  0.91588281  1
  S  S120  1  0.63383295  0.35980351  0.25342644  1
  S  S121  1  0.63977842  0.35207748  0.58771870  1
  S  S122  1  0.64031033  0.35878141  0.91724140  1
  S  S123  1  0.64275856  0.86579144  0.24830936  1
  S  S124  1  0.63663820  0.86360654  0.58270229  1
  S  S125  1  0.63882838  0.86070883  0.91914796  1
  S  S126  1  0.07042934  0.16539230  0.03955819  1
  S  S127  1  0.07737607  0.17005093  0.37391408  1
  S  S128  1  0.06932183  0.16874780  0.70678879  1
  S  S129  1  0.06337029  0.67361745  0.04129993  1
  S  S130  1  0.05449591  0.66845194  0.37827021  1
  S  S131  1  0.06726377  0.66696977  0.70764059  1
  S  S132  1  0.56925204  0.17308274  0.04423560  1
  S  S133  1  0.56890342  0.17183642  0.37896622  1
  S  S134  1  0.56308433  0.16694864  0.70967454  1
  S  S135  1  0.56773008  0.66805946  0.04159647  1
  S  S136  1  0.56698561  0.66827288  0.36749516  1
  S  S137  1  0.56015421  0.66755313  0.71225907  1
  S  S138  1  0.32766415  0.43376132  0.12325742  1
  S  S139  1  0.33997713  0.43030578  0.46287177  1
  S  S140  1  0.33067986  0.43234916  0.79255849  1
  S  S141  1  0.33296447  0.93030345  0.12763851  1
  S  S142  1  0.32825125  0.92795108  0.45792604  1
  S  S143  1  0.33140962  0.93343629  0.79334969  1
  S  S144  1  0.83670423  0.43626800  0.11996797  1
  S  S145  1  0.83320227  0.44216936  0.45031072  1
  S  S146  1  0.84028393  0.43064245  0.79495300  1
  S  S147  1  0.82820112  0.93483304  0.12244875  1
  S  S148  1  0.82536167  0.93438187  0.45685141  1
  S  S149  1  0.81536706  0.93007208  0.78498014  1
  S  S150  1  0.42795294  0.33298009  0.29196914  1
  S  S151  1  0.42986272  0.32771131  0.62649012  1
  S  S152  1  0.43196370  0.33231302  0.95963921  1
  S  S153  1  0.43452817  0.83371501  0.29071552  1
  S  S154  1  0.42659953  0.83378054  0.62437256  1
  S  S155  1  0.43497560  0.82661522  0.95664624  1
  S  S156  1  0.94099624  0.32289322  0.27985268  1
  S  S157  1  0.94039445  0.32524003  0.62357473  1
  S  S158  1  0.93605800  0.32863483  0.95857287  1
  S  S159  1  0.92659070  0.82829112  0.28832882  1
  S  S160  1  0.93424896  0.83719156  0.62451553  1
  S  S161  1  0.93314014  0.83086815  0.96235649  1
  S  S162  1  0.17705263  0.06584135  0.20919378  1
  S  S163  1  0.17190239  0.06811614  0.54405647  1
  S  S164  1  0.17369289  0.06668364  0.87631001  1
  S  S165  1  0.16980182  0.56993192  0.20422206  1
  S  S166  1  0.17079129  0.56896006  0.54437976  1
  S  S167  1  0.16673723  0.56902050  0.87506411  1
  S  S168  1  0.66991245  0.07351485  0.21269842  1
  S  S169  1  0.66999946  0.06857957  0.54499266  1
  S  S170  1  0.66336129  0.06404936  0.87650876  1
  S  S171  1  0.66750052  0.56178614  0.20884564  1
  S  S172  1  0.67433315  0.56968320  0.53843620  1
  S  S173  1  0.66648757  0.56016608  0.87925481  1
  O  O174  1  0.37087266  0.21506635  0.07017018  1
  O  O175  1  0.37047423  0.21750642  0.40971629  1
  O  O176  1  0.36862247  0.21989643  0.74637257  1
  O  O177  1  0.36846810  0.71956070  0.07386277  1
  O  O178  1  0.36780362  0.71831576  0.40111306  1
  O  O179  1  0.36547202  0.71980280  0.74653464  1
  O  O180  1  0.87455016  0.21599069  0.07065874  1
  O  O181  1  0.86198392  0.22221926  0.41252616  1
  O  O182  1  0.86924381  0.21699065  0.73973736  1
  O  O183  1  0.86792858  0.72346688  0.08170418  1
  O  O184  1  0.85868922  0.73019688  0.41396673  1
  O  O185  1  0.85561885  0.73480983  0.76400323  1
  O  O186  1  0.28174623  0.13017621  0.08903522  1
  O  O187  1  0.28307514  0.13043530  0.42833453  1
  O  O188  1  0.28168044  0.13092710  0.76130010  1
  O  O189  1  0.26899524  0.63361392  0.07709661  1
  O  O190  1  0.27915275  0.63146958  0.42108980  1
  O  O191  1  0.27920819  0.62916096  0.76200472  1
  O  O192  1  0.78448549  0.13105679  0.08818193  1
  O  O193  1  0.78177833  0.12916100  0.43238513  1
  O  O194  1  0.78202286  0.12983723  0.75981905  1
  O  O195  1  0.78330371  0.63200575  0.09692026  1
  O  O196  1  0.77176471  0.63548154  0.41951315  1
  O  O197  1  0.78399740  0.62960161  0.77703186  1
  O  O198  1  0.14346115  0.27271320  0.24315794  1
  O  O199  1  0.13766633  0.27718793  0.58806137  1
  O  O200  1  0.13230465  0.27946984  0.92450064  1
  O  O201  1  0.13067311  0.77950493  0.25639502  1
  O  O202  1  0.12805625  0.78298331  0.59216020  1
  O  O203  1  0.12848299  0.77878510  0.91758433  1
  O  O204  1  0.61685474  0.28627382  0.26856776  1
  O  O205  1  0.62258576  0.27303783  0.59597370  1
  O  O206  1  0.63036827  0.27837178  0.92215017  1
  O  O207  1  0.63934273  0.78858437  0.25664470  1
  O  O208  1  0.63200988  0.79011721  0.59830640  1
  O  O209  1  0.62968109  0.78280322  0.92915342  1
  O  O210  1  0.22296824  0.37151645  0.23238467  1
  O  O211  1  0.22821460  0.36861697  0.58134699  1
  O  O212  1  0.22039297  0.36880752  0.91054657  1
  O  O213  1  0.22014405  0.86881109  0.24204711  1
  O  O214  1  0.21708645  0.86977748  0.57602199  1
  O  O215  1  0.22574457  0.86758005  0.91468829  1
  O  O216  1  0.70951368  0.36048696  0.24202759  1
  O  O217  1  0.71811015  0.35419093  0.58136883  1
  O  O218  1  0.71686227  0.36893982  0.90676091  1
  O  O219  1  0.71950010  0.88044427  0.23641180  1
  O  O220  1  0.71439933  0.87574184  0.57215304  1
  O  O221  1  0.71867612  0.86837113  0.91268919  1
  O  O222  1  0.41921601  0.13426051  0.15311919  1
  O  O223  1  0.42038059  0.13039590  0.48574288  1
  O  O224  1  0.41992882  0.13092205  0.82020024  1
  O  O225  1  0.40374617  0.62998243  0.14891516  1
  O  O226  1  0.41818570  0.63732871  0.48202319  1
  O  O227  1  0.41699425  0.63158914  0.82081537  1
  O  O228  1  0.92324889  0.12399735  0.14303637  1
  O  O229  1  0.92025990  0.13231821  0.48234199  1
  O  O230  1  0.92017535  0.13140322  0.81650176  1
  O  O231  1  0.92248923  0.63003561  0.14932629  1
  O  O232  1  0.90874761  0.64360190  0.49002248  1
  O  O233  1  0.92363380  0.63776232  0.82116456  1
  O  O234  1  0.37065753  0.07647339  0.01674151  1
  O  O235  1  0.36658533  0.07957995  0.34936812  1
  O  O236  1  0.36823696  0.08184434  0.68434746  1
  O  O237  1  0.36493972  0.58122487  0.01347981  1
  O  O238  1  0.36739323  0.58015834  0.34722375  1
  O  O239  1  0.36564170  0.58240683  0.68458326  1
  O  O240  1  0.86631851  0.07821981  0.00816629  1
  O  O241  1  0.86161950  0.08529668  0.34709683  1
  O  O242  1  0.86626328  0.07976150  0.68051512  1
  O  O243  1  0.86488161  0.58667366  0.01385116  1
  O  O244  1  0.86919321  0.59384211  0.35397349  1
  O  O245  1  0.85922125  0.60271476  0.68765250  1
  O  O246  1  0.08443046  0.36652342  0.17923667  1
  O  O247  1  0.09011226  0.36944208  0.51788021  1
  O  O248  1  0.08243749  0.36636807  0.84883533  1
  O  O249  1  0.08248575  0.86874315  0.18352032  1
  O  O250  1  0.07910961  0.87150560  0.51603673  1
  O  O251  1  0.09057571  0.87362779  0.84934388  1
  O  O252  1  0.57251251  0.36918707  0.18591168  1
  O  O253  1  0.58240880  0.36004877  0.51691134  1
  O  O254  1  0.57828038  0.36865691  0.85067881  1
  O  O255  1  0.58040509  0.87250193  0.18092937  1
  O  O256  1  0.57594805  0.86575747  0.51190594  1
  O  O257  1  0.58071800  0.86886399  0.85058705  1
  O  O258  1  0.14294797  0.40848098  0.31627172  1
  O  O259  1  0.13827611  0.41412539  0.65395301  1
  O  O260  1  0.13125350  0.41813039  0.98427091  1
  O  O261  1  0.13573079  0.91670209  0.32009752  1
  O  O262  1  0.13080959  0.92141373  0.65159699  1
  O  O263  1  0.13594613  0.91597456  0.98629826  1
  O  O264  1  0.62796374  0.42577446  0.31963132  1
  O  O265  1  0.62913612  0.41195062  0.65272552  1
  O  O266  1  0.63161820  0.41570172  0.98617389  1
  O  O267  1  0.63340616  0.92624831  0.31594150  1
  O  O268  1  0.62343488  0.92875235  0.64520717  1
  O  O269  1  0.62971822  0.92189833  0.98601729  1
  O  O270  1  0.03497070  0.19650594  0.10011061  1
  O  O271  1  0.04087951  0.19349447  0.43325164  1
  O  O272  1  0.03404388  0.19786876  0.76892473  1
  O  O273  1  0.02501777  0.70122293  0.10072710  1
  O  O274  1  0.01846937  0.70901604  0.43982579  1
  O  O275  1  0.03511984  0.69099372  0.77036621  1
  O  O276  1  0.53502178  0.20259051  0.10679813  1
  O  O277  1  0.52892389  0.19777084  0.43785633  1
  O  O278  1  0.52778079  0.19811980  0.77198769  1
  O  O279  1  0.53043530  0.69619579  0.10037507  1
  O  O280  1  0.53524041  0.69408442  0.43122544  1
  O  O281  1  0.52864830  0.70595180  0.77859402  1
  O  O282  1  0.29787774  0.47115402  0.06247204  1
  O  O283  1  0.31764004  0.46044743  0.39915525  1
  O  O284  1  0.30232383  0.46746031  0.73150570  1
  O  O285  1  0.30325773  0.96868131  0.06728760  1
  O  O286  1  0.29899251  0.96601826  0.39731651  1
  O  O287  1  0.30199412  0.97124497  0.73320729  1
  O  O288  1  0.80216635  0.46923457  0.05455471  1
  O  O289  1  0.79268887  0.47958834  0.39130599  1
  O  O290  1  0.82387073  0.46450480  0.73526313  1
  O  O291  1  0.79784327  0.97149362  0.06106187  1
  O  O292  1  0.79760989  0.96966263  0.39502370  1
  O  O293  1  0.78544166  0.96994473  0.72525376  1
  O  O294  1  0.45780806  0.29838805  0.22685304  1
  O  O295  1  0.46277034  0.29651096  0.56396993  1
  O  O296  1  0.46830952  0.30057446  0.89849816  1
  O  O297  1  0.47292430  0.81472092  0.23214332  1
  O  O298  1  0.46131086  0.81293829  0.56415975  1
  O  O299  1  0.47250472  0.79778287  0.89631885  1
  O  O300  1  0.97794981  0.28535955  0.21679818  1
  O  O301  1  0.98064359  0.29202891  0.56775321  1
  O  O302  1  0.97095319  0.29598220  0.89622780  1
  O  O303  1  0.96838306  0.79807738  0.23071857  1
  O  O304  1  0.96838211  0.80304780  0.56151089  1
  O  O305  1  0.97337934  0.80336394  0.90607928  1
  O  O306  1  0.20452095  0.02932321  0.26980619  1
  O  O307  1  0.20375606  0.03234302  0.60634809  1
  O  O308  1  0.20382718  0.03170544  0.93792873  1
  O  O309  1  0.19997249  0.53412857  0.26305973  1
  O  O310  1  0.20228072  0.53444631  0.60950340  1
  O  O311  1  0.19295698  0.52710224  0.93288940  1
  O  O312  1  0.70191528  0.03760944  0.27384917  1
  O  O313  1  0.70328669  0.03389702  0.60667751  1
  O  O314  1  0.69452791  0.02682577  0.93647745  1
  O  O315  1  0.70086825  0.53025900  0.27190865  1
  O  O316  1  0.69898371  0.52922904  0.59345504  1
  O  O317  1  0.70003404  0.53070726  0.94560763  1
  O  O318  1  0.08940591  0.08467609  0.03734304  1
  O  O319  1  0.10175461  0.09056852  0.36704561  1
  O  O320  1  0.08980516  0.08774905  0.70263125  1
  O  O321  1  0.07863953  0.58987828  0.03402146  1
  O  O322  1  0.06125792  0.58852705  0.37775450  1
  O  O323  1  0.08083003  0.58256151  0.69237730  1
  O  O324  1  0.58928972  0.09191953  0.03888050  1
  O  O325  1  0.58663878  0.08963404  0.37101256  1
  O  O326  1  0.57682971  0.08340292  0.70460178  1
  O  O327  1  0.58579087  0.58558385  0.03723366  1
  O  O328  1  0.59630596  0.58833176  0.36606233  1
  O  O329  1  0.57735720  0.58904651  0.71600912  1
  O  O330  1  0.41054027  0.41832246  0.12962507  1
  O  O331  1  0.42374415  0.41380121  0.47895213  1
  O  O332  1  0.41314287  0.41408784  0.80040515  1
  O  O333  1  0.41217769  0.90820601  0.12872260  1
  O  O334  1  0.40659374  0.90406766  0.45947009  1
  O  O335  1  0.41425104  0.91745714  0.79936047  1
  O  O336  1  0.91680940  0.41709609  0.11755810  1
  O  O337  1  0.90496963  0.41699208  0.43320876  1
  O  O338  1  0.92454018  0.41129726  0.81309173  1
  O  O339  1  0.90915148  0.91712996  0.12620597  1
  O  O340  1  0.90704543  0.91550635  0.46369388  1
  O  O341  1  0.89174494  0.90732441  0.78545669  1
  O  O342  1  0.41258705  0.41472384  0.29569612  1
  O  O343  1  0.41081170  0.40898876  0.63318160  1
  O  O344  1  0.41636349  0.41464684  0.96386518  1
  O  O345  1  0.42041128  0.91877131  0.30626117  1
  O  O346  1  0.40953234  0.91834616  0.63894035  1
  O  O347  1  0.41985976  0.90943165  0.96155126  1
  O  O348  1  0.91071447  0.39293060  0.26507662  1
  O  O349  1  0.92595878  0.40480534  0.62252679  1
  O  O350  1  0.92252141  0.41187463  0.96468114  1
  O  O351  1  0.90385399  0.90558716  0.28620867  1
  O  O352  1  0.91270187  0.91701958  0.62067117  1
  O  O353  1  0.91195984  0.91179986  0.96620499  1
  O  O354  1  0.09583735  0.08603176  0.20069229  1
  O  O355  1  0.09238845  0.08788234  0.54309434  1
  O  O356  1  0.09217544  0.08473668  0.87014426  1
  O  O357  1  0.09023956  0.59382870  0.20344221  1
  O  O358  1  0.09234920  0.59370338  0.54586534  1
  O  O359  1  0.08688864  0.59127409  0.87301133  1
  O  O360  1  0.58727269  0.08636903  0.20864188  1
  O  O361  1  0.58807057  0.08308085  0.54345795  1
  O  O362  1  0.58121403  0.08174666  0.87452572  1
  O  O363  1  0.58402752  0.56783236  0.19790161  1
  O  O364  1  0.59180194  0.58414980  0.52665739  1
  O  O365  1  0.58280762  0.57557790  0.87435217  1
  O  O366  1  0.14206682  0.21730756  0.05403961  1
  O  O367  1  0.14594977  0.22718337  0.39006630  1
  O  O368  1  0.14011530  0.22243520  0.72344116  1
  O  O369  1  0.13563914  0.72422538  0.06041613  1
  O  O370  1  0.12799994  0.71685941  0.39435432  1
  O  O371  1  0.14170909  0.71687171  0.72610964  1
  O  O372  1  0.63685333  0.22559057  0.05422801  1
  O  O373  1  0.63917069  0.22524685  0.39816331  1
  O  O374  1  0.63486768  0.21497208  0.72380412  1
  O  O375  1  0.63956769  0.71921521  0.05688476  1
  O  O376  1  0.63480964  0.72488159  0.38198470  1
  O  O377  1  0.63216330  0.71849942  0.72674276  1
  O  O378  1  0.27786236  0.35963548  0.10301698  1
  O  O379  1  0.28798035  0.35883159  0.44814734  1
  O  O380  1  0.27893472  0.36056596  0.77716933  1
  O  O381  1  0.27764179  0.86382346  0.11510741  1
  O  O382  1  0.27132315  0.86334229  0.44678082  1
  O  O383  1  0.28002167  0.86146546  0.77531526  1
  O  O384  1  0.78653732  0.36404139  0.10362304  1
  O  O385  1  0.77882734  0.37284827  0.43860040  1
  O  O386  1  0.78765256  0.35961823  0.77817612  1
  O  O387  1  0.77574740  0.86349454  0.10535828  1
  O  O388  1  0.77165337  0.86479984  0.44127037  1
  O  O389  1  0.75727014  0.86332970  0.76925405  1
  O  O390  1  0.35669880  0.28237462  0.28027520  1
  O  O391  1  0.36037903  0.27439835  0.61404411  1
  O  O392  1  0.35884120  0.28162993  0.94174109  1
  O  O393  1  0.36066247  0.78355615  0.26747738  1
  O  O394  1  0.35496427  0.78206299  0.60784510  1
  O  O395  1  0.36236018  0.77666599  0.93809885  1
  O  O396  1  0.87838271  0.26354337  0.26993841  1
  O  O397  1  0.86705956  0.27468856  0.60649412  1
  O  O398  1  0.86434017  0.27981764  0.94480855  1
  O  O399  1  0.85807341  0.77196309  0.27151618  1
  O  O400  1  0.86358777  0.78647579  0.61229547  1
  O  O401  1  0.86220271  0.77780534  0.94663914  1
  O  O402  1  0.23148397  0.13619230  0.22649265  1
  O  O403  1  0.22565445  0.13842809  0.55992279  1
  O  O404  1  0.22568286  0.13836268  0.89188577  1
  O  O405  1  0.22262166  0.63567123  0.20969034  1
  O  O406  1  0.22609863  0.63869549  0.56120017  1
  O  O407  1  0.22292899  0.63682682  0.89316282  1
  O  O408  1  0.71847471  0.14529406  0.22641076  1
  O  O409  1  0.71887072  0.14088664  0.55921756  1
  O  O410  1  0.71419783  0.13512928  0.89170563  1
  O  O411  1  0.71331917  0.63706384  0.22373864  1
  O  O412  1  0.72551774  0.64365508  0.55736504  1
  O  O413  1  0.71331405  0.63415369  0.89358892  1
  O  O414  1  0.48937734  0.33248338  0.03155606  1
  O  O415  1  0.48946707  0.33383098  0.36262523  1
  O  O416  1  0.49201615  0.33227981  0.69902754  1
  O  O417  1  0.49214138  0.82667511  0.02902748  1
  O  O418  1  0.48971483  0.82546139  0.36081979  1
  O  O419  1  0.48592851  0.83315836  0.69672862  1
  O  O420  1  0.99760303  0.32942606  0.02966218  1
  O  O421  1  1.00390991  0.33942044  0.35108207  1
  O  O422  1  0.99384840  0.32942711  0.70048603  1
  O  O423  1  0.99079203  0.83770170  0.03813106  1
  O  O424  1  0.98469037  0.83534706  0.36281471  1
  O  O425  1  0.99571237  0.84832165  0.69617068  1
  O  O426  1  0.17531748  0.00613446  0.13701830  1
  O  O427  1  0.16933688  0.00805893  0.47268039  1
  O  O428  1  0.17167014  0.00684649  0.80429482  1
  O  O429  1  0.15562591  0.50683200  0.12817644  1
  O  O430  1  0.16560984  0.50798176  0.47557607  1
  O  O431  1  0.16239389  0.51016459  0.80115881  1
  O  O432  1  0.66813858  0.01336195  0.14002602  1
  O  O433  1  0.66624521  0.00985346  0.47193684  1
  O  O434  1  0.65597966  0.00585927  0.80189705  1
  O  O435  1  0.67539258  0.50407829  0.13852243  1
  O  O436  1  0.67906138  0.51538978  0.46311125  1
  O  O437  1  0.66408536  0.49812851  0.81082390  1
  O  O438  1  0.01815616  0.16653436  0.30078425  1
  O  O439  1  0.00999622  0.16417293  0.63432041  1
  O  O440  1  0.01139137  0.16220676  0.96669304  1
  O  O441  1  -0.00128248  0.67134467  0.30505828  1
  O  O442  1  0.00877373  0.67573622  0.63939931  1
  O  O443  1  0.00708254  0.67231107  0.96738562  1
  O  O444  1  0.50934555  0.17048855  0.30644781  1
  O  O445  1  0.50224788  0.16391305  0.63759502  1
  O  O446  1  0.50510593  0.16725698  0.97232770  1
  O  O447  1  0.50526033  0.65518167  0.29582506  1
  O  O448  1  0.49971884  0.66384244  0.64273597  1
  O  O449  1  0.50951310  0.66353070  0.96720777  1
  O  O450  1  0.32650617  0.49051954  0.19475925  1
  O  O451  1  0.33498918  0.49196576  0.53164646  1
  O  O452  1  0.33134939  0.49173437  0.86462170  1
  O  O453  1  0.34179490  0.99220086  0.20146710  1
  O  O454  1  0.33737714  0.99167999  0.53133167  1
  O  O455  1  0.33376085  0.99104813  0.86679366  1
  O  O456  1  0.84062633  0.49696568  0.18869173  1
  O  O457  1  0.85298344  0.49823028  0.52627941  1
  O  O458  1  0.83774874  0.49010392  0.86757305  1
  O  O459  1  0.82958791  0.99433725  0.19393718  1
  O  O460  1  0.82826942  0.99519689  0.52870392  1
  O  O461  1  0.81933085  0.99054930  0.85832339  1
