# generated using pymatgen
data_Na31Fe20(SO4)36
_symmetry_space_group_name_H-M   'P 1'
_cell_length_a   18.06380581
_cell_length_b   18.06199942
_cell_length_c   19.70191396
_cell_angle_alpha   107.57916124
_cell_angle_beta   107.56595483
_cell_angle_gamma   90.71470476
_symmetry_Int_Tables_number   1
_chemical_formula_structural   Na31Fe20(SO4)36
_chemical_formula_sum   'Na62 Fe40 S72 O288'
_cell_volume   5804.08086633
_cell_formula_units_Z   2
loop_
 _symmetry_equiv_pos_site_id
 _symmetry_equiv_pos_as_xyz
  1  'x, y, z'
loop_
 _atom_site_type_symbol
 _atom_site_label
 _atom_site_symmetry_multiplicity
 _atom_site_fract_x
 _atom_site_fract_y
 _atom_site_fract_z
 _atom_site_occupancy
  Na  Na0  1  0.13732139  0.37444586  0.09694316  1
  Na  Na1  1  0.13993683  0.35390748  0.40964309  1
  Na  Na2  1  0.12342025  0.37758193  0.75321432  1
  Na  Na3  1  0.12541933  0.85676468  0.07985903  1
  Na  Na4  1  0.13545475  0.86495473  0.41303110  1
  Na  Na5  1  0.13561541  0.86967614  0.75360239  1
  Na  Na6  1  0.62540574  0.36955107  0.07924864  1
  Na  Na7  1  0.62783463  0.36174166  0.40741814  1
  Na  Na8  1  0.65338650  0.37375829  0.76140974  1
  Na  Na9  1  0.63334315  0.86603129  0.08205525  1
  Na  Na10  1  0.63908191  0.86516091  0.41804481  1
  Na  Na11  1  0.64043365  0.86675044  0.76138648  1
  Na  Na12  1  0.36243658  0.15335403  0.25769849  1
  Na  Na13  1  0.36551724  0.13834179  0.58240697  1
  Na  Na14  1  0.36510763  0.13311264  0.91600137  1
  Na  Na15  1  0.34902153  0.64310423  0.24740572  1
  Na  Na16  1  0.36441490  0.63169505  0.58489608  1
  Na  Na17  1  0.37607365  0.62308736  0.91869164  1
  Na  Na18  1  0.86397839  0.13223148  0.25083863  1
  Na  Na19  1  0.87309779  0.14590801  0.60219554  1
  Na  Na20  1  0.85689336  0.13098235  0.90785571  1
  Na  Na21  1  0.86984292  0.62603633  0.24459767  1
  Na  Na22  1  0.86914199  0.63126411  0.58177920  1
  Na  Na23  1  0.87040182  0.64087440  0.91718068  1
  Na  Na24  1  0.99291209  0.54836518  0.83263490  1
  Na  Na25  1  0.48908303  0.01124012  0.74705057  1
  Na  Na26  1  0.49337091  0.04733071  0.09290404  1
  Na  Na27  1  1.02024621  0.49679022  0.38958231  1
  Na  Na28  1  0.50565651  0.50152707  0.76330106  1
  Na  Na29  1  0.99835339  0.51253404  0.06506177  1
  Na  Na30  1  0.95389634  -0.00116285  0.06873529  1
  Na  Na31  1  0.49074630  0.00969681  0.41472890  1
  Na  Na32  1  0.44615901  0.50612453  0.40917783  1
  Na  Na33  1  -0.00668058  0.99765191  0.90212841  1
  Na  Na34  1  0.02506928  0.48431807  0.61680078  1
  Na  Na35  1  0.00842239  0.95734006  0.24698860  1
  Na  Na36  1  0.52035177  0.98969253  0.91871569  1
  Na  Na37  1  0.48901373  0.49777910  0.24405558  1
  Na  Na38  1  0.00574757  0.99503415  0.57994468  1
  Na  Na39  1  0.48822911  1.01459831  0.24353547  1
  Na  Na40  1  0.54622589  0.49220014  0.59525485  1
  Na  Na41  1  0.51355539  0.98987436  0.58189718  1
  Na  Na42  1  0.24908942  0.25521249  0.66433461  1
  Na  Na43  1  0.24103303  0.73693130  0.67224048  1
  Na  Na44  1  0.75720117  0.25407908  0.68328782  1
  Na  Na45  1  0.77684605  0.77330783  -0.00299950  1
  Na  Na46  1  0.23126967  0.73306356  0.00958811  1
  Na  Na47  1  0.25048184  0.25827323  0.00513726  1
  Na  Na48  1  0.75779385  0.25796575  -0.01317485  1
  Na  Na49  1  0.75739441  0.75412231  0.32658189  1
  Na  Na50  1  0.74001750  0.24237964  0.33265516  1
  Na  Na51  1  0.73960968  0.73717655  0.66989870  1
  Na  Na52  1  0.74669304  0.25485981  0.16170829  1
  Na  Na53  1  0.75090509  0.74846863  0.83309536  1
  Na  Na54  1  0.24633021  0.25216684  0.83224168  1
  Na  Na55  1  0.76343579  0.75596447  0.15730236  1
  Na  Na56  1  0.74568303  0.24819684  0.50386119  1
  Na  Na57  1  0.22625669  0.72112194  0.84054340  1
  Na  Na58  1  0.74793872  0.74448518  0.50101785  1
  Na  Na59  1  0.24740931  0.25745427  0.17791789  1
  Na  Na60  1  0.26016236  0.75709031  0.48995042  1
  Na  Na61  1  0.25657260  0.25547324  0.48903646  1
  Fe  Fe62  1  0.46283779  0.80760277  0.44301119  1
  Fe  Fe63  1  0.46698344  0.30095418  0.12443100  1
  Fe  Fe64  1  0.96203584  0.30642478  0.45341372  1
  Fe  Fe65  1  0.46291096  0.80909835  0.78532162  1
  Fe  Fe66  1  0.46179670  0.80807637  0.11713742  1
  Fe  Fe67  1  0.46748983  0.30866390  0.78943829  1
  Fe  Fe68  1  0.46479560  0.30686935  0.45081044  1
  Fe  Fe69  1  0.96214612  0.30927544  0.11876439  1
  Fe  Fe70  1  0.96744632  0.80344328  0.45296356  1
  Fe  Fe71  1  0.96939924  0.80039778  0.78751542  1
  Fe  Fe72  1  0.69899904  0.03258410  0.04928908  1
  Fe  Fe73  1  0.69050493  0.03374904  0.37970906  1
  Fe  Fe74  1  0.69001272  0.53652509  0.04605114  1
  Fe  Fe75  1  0.19537874  0.03500676  0.71404821  1
  Fe  Fe76  1  0.68965585  0.53446415  0.37747638  1
  Fe  Fe77  1  0.19074523  0.03415169  0.37721040  1
  Fe  Fe78  1  0.18743425  0.03521634  0.04476636  1
  Fe  Fe79  1  0.20081132  0.52764283  0.37149328  1
  Fe  Fe80  1  0.69814364  0.02973601  0.71820051  1
  Fe  Fe81  1  0.19511354  0.53257654  0.04748949  1
  Fe  Fe82  1  0.03003006  0.20148762  0.87685654  1
  Fe  Fe83  1  0.53409220  0.69528159  0.88319214  1
  Fe  Fe84  1  0.03676544  0.69746488  0.20718110  1
  Fe  Fe85  1  0.53627960  0.19266752  0.55014356  1
  Fe  Fe86  1  0.03329247  0.19050165  0.21321282  1
  Fe  Fe87  1  0.53225286  0.69117699  0.21097164  1
  Fe  Fe88  1  0.03120032  0.19096492  0.54545993  1
  Fe  Fe89  1  0.03861250  0.68699790  0.54263380  1
  Fe  Fe90  1  0.53153325  0.69291583  0.54726070  1
  Fe  Fe91  1  0.53840885  0.19367032  0.88195899  1
  Fe  Fe92  1  0.31422669  0.46263773  0.95822050  1
  Fe  Fe93  1  0.30615514  0.96873551  0.95079606  1
  Fe  Fe94  1  0.80451608  0.46938230  0.62640036  1
  Fe  Fe95  1  0.30692609  0.96569940  0.61310885  1
  Fe  Fe96  1  0.30117446  0.46884670  0.62714873  1
  Fe  Fe97  1  0.81097338  0.96251986  0.28932030  1
  Fe  Fe98  1  0.80595941  0.46678468  0.94584190  1
  Fe  Fe99  1  0.80470141  0.46625728  0.28528236  1
  Fe  Fe100  1  0.30340993  0.96225478  0.27917577  1
  Fe  Fe101  1  0.81319685  0.95813440  0.62127526  1
  S  S102  1  0.35373436  0.13978913  0.08469974  1
  S  S103  1  0.36107403  0.13685851  0.41505769  1
  S  S104  1  0.36306579  0.13928128  0.74783982  1
  S  S105  1  0.35982648  0.64070574  0.08561411  1
  S  S106  1  0.35977148  0.64624507  0.41697057  1
  S  S107  1  0.35993136  0.64335604  0.75177408  1
  S  S108  1  0.85748205  0.14414259  0.08408107  1
  S  S109  1  0.85643840  0.13944797  0.41919043  1
  S  S110  1  0.86283226  0.13134385  0.74928574  1
  S  S111  1  0.86088637  0.63865000  0.08594806  1
  S  S112  1  0.85938820  0.63846663  0.41534602  1
  S  S113  1  0.85486067  0.64487834  0.74167519  1
  S  S114  1  0.13302993  0.35887423  0.25237682  1
  S  S115  1  0.13856174  0.35353143  0.57861058  1
  S  S116  1  0.14490183  0.35987962  0.92243340  1
  S  S117  1  0.14387434  0.85880866  0.25071650  1
  S  S118  1  0.14329895  0.85881908  0.58222743  1
  S  S119  1  0.14322504  0.86263795  0.91178927  1
  S  S120  1  0.64050811  0.35973305  0.24696326  1
  S  S121  1  0.64100428  0.35535520  0.58464285  1
  S  S122  1  0.63998337  0.36207186  0.91588517  1
  S  S123  1  0.64046632  0.85741305  0.25079354  1
  S  S124  1  0.63787743  0.85891643  0.58083587  1
  S  S125  1  0.63698096  0.86068263  0.91906496  1
  S  S126  1  0.06473767  0.17121946  0.04164895  1
  S  S127  1  0.06330745  0.16397098  0.37465679  1
  S  S128  1  0.07353918  0.16738185  0.70677531  1
  S  S129  1  0.06603448  0.66389200  0.03992590  1
  S  S130  1  0.07223268  0.67374216  0.37522721  1
  S  S131  1  0.06838646  0.67264723  0.70699267  1
  S  S132  1  0.56514664  0.16652732  0.03984436  1
  S  S133  1  0.56195154  0.16368963  0.37607470  1
  S  S134  1  0.56972389  0.16483929  0.70733765  1
  S  S135  1  0.57008502  0.67584598  0.04810061  1
  S  S136  1  0.56623756  0.67305370  0.37579313  1
  S  S137  1  0.56124383  0.67218448  0.71079100  1
  S  S138  1  0.33168723  0.43513948  0.12837771  1
  S  S139  1  0.33260929  0.43281791  0.46590290  1
  S  S140  1  0.33625190  0.42866098  0.79287099  1
  S  S141  1  0.32797329  0.93357926  0.12099626  1
  S  S142  1  0.33432266  0.93722254  0.45821481  1
  S  S143  1  0.33315128  0.93595637  0.78820717  1
  S  S144  1  0.82237275  0.42951152  0.11999256  1
  S  S145  1  0.82405669  0.42991030  0.45646299  1
  S  S146  1  0.83477035  0.44282857  0.79155597  1
  S  S147  1  0.83177545  0.93711551  0.12874504  1
  S  S148  1  0.83106111  0.92976337  0.45841737  1
  S  S149  1  0.82930581  0.92395467  0.78672681  1
  S  S150  1  0.43894314  0.33290373  0.29027071  1
  S  S151  1  0.43399426  0.32878482  0.62496685  1
  S  S152  1  0.43089775  0.32102365  0.95634415  1
  S  S153  1  0.43759822  0.83803325  0.29277656  1
  S  S154  1  0.43635286  0.83547039  0.62501028  1
  S  S155  1  0.42937624  0.83805406  0.95908776  1
  S  S156  1  0.92601669  0.32796330  0.29092203  1
  S  S157  1  0.93225257  0.33090409  0.62206643  1
  S  S158  1  0.93158220  0.32918861  0.96021883  1
  S  S159  1  0.93447181  0.82397722  0.29141072  1
  S  S160  1  0.93557892  0.82534942  0.62052243  1
  S  S161  1  0.93839675  0.83540704  0.94966860  1
  S  S162  1  0.16748776  0.06736335  0.20596804  1
  S  S163  1  0.17225471  0.06789407  0.54294734  1
  S  S164  1  0.16952040  0.07352281  0.87627371  1
  S  S165  1  0.16679148  0.57371751  0.20936419  1
  S  S166  1  0.17200335  0.56394830  0.53610854  1
  S  S167  1  0.18376767  0.56526174  0.88622916  1
  S  S168  1  0.66883035  0.05906285  0.21104402  1
  S  S169  1  0.67125792  0.06511253  0.54453530  1
  S  S170  1  0.66478442  0.06534796  0.87552426  1
  S  S171  1  0.66730447  0.56945684  0.20982260  1
  S  S172  1  0.66207490  0.56424264  0.53537803  1
  S  S173  1  0.67028182  0.57231357  0.87854854  1
  O  O174  1  0.36453746  0.21971707  0.07897226  1
  O  O175  1  0.37101911  0.21537791  0.40771023  1
  O  O176  1  0.37337357  0.21715841  0.73827374  1
  O  O177  1  0.36741040  0.71905930  0.07506262  1
  O  O178  1  0.36856098  0.72984574  0.41968848  1
  O  O179  1  0.37225869  0.72000642  0.73771715  1
  O  O180  1  0.86461283  0.22663196  0.08258323  1
  O  O181  1  0.86358557  0.21823088  0.40969288  1
  O  O182  1  0.86727605  0.20484474  0.73365859  1
  O  O183  1  0.86080998  0.71444812  0.07385665  1
  O  O184  1  0.86753665  0.71840913  0.40884996  1
  O  O185  1  0.87552523  0.72228018  0.72979668  1
  O  O186  1  0.27217136  0.13142157  0.08776187  1
  O  O187  1  0.28297792  0.12791825  0.42518989  1
  O  O188  1  0.28443431  0.13187881  0.75671685  1
  O  O189  1  0.27950898  0.62936721  0.09057952  1
  O  O190  1  0.28021908  0.63200124  0.42134112  1
  O  O191  1  0.28274741  0.63766878  0.75945626  1
  O  O192  1  0.77900137  0.13406470  0.09415648  1
  O  O193  1  0.77560249  0.12948882  0.42448925  1
  O  O194  1  0.78582143  0.11760168  0.76117184  1
  O  O195  1  0.78696263  0.62309554  0.10228789  1
  O  O196  1  0.78040829  0.62901306  0.42377323  1
  O  O197  1  0.77365418  0.64673935  0.74093095  1
  O  O198  1  0.12063968  0.28063127  0.26253163  1
  O  O199  1  0.13000424  0.27104716  0.58003791  1
  O  O200  1  0.13012761  0.28110353  0.93095740  1
  O  O201  1  0.12922387  0.77999492  0.25872907  1
  O  O202  1  0.13509849  0.77824563  0.58620902  1
  O  O203  1  0.14383731  0.78423197  0.91782120  1
  O  O204  1  0.63739958  0.28373409  0.25780800  1
  O  O205  1  0.63518087  0.27284985  0.58761153  1
  O  O206  1  0.63121394  0.28343080  0.92583175  1
  O  O207  1  0.62845103  0.77986198  0.26109158  1
  O  O208  1  0.62978285  0.77964132  0.58852000  1
  O  O209  1  0.62371357  0.78367831  0.93061553  1
  O  O210  1  0.20948063  0.36864451  0.24419101  1
  O  O211  1  0.21966537  0.36493067  0.57497298  1
  O  O212  1  0.22851734  0.36253799  0.92185780  1
  O  O213  1  0.22490749  0.86657169  0.24828181  1
  O  O214  1  0.22113014  0.86964915  0.57159523  1
  O  O215  1  0.21630265  0.88095785  0.89518783  1
  O  O216  1  0.71844970  0.37485607  0.23684046  1
  O  O217  1  0.72065200  0.36823365  0.57927371  1
  O  O218  1  0.71856176  0.37158743  0.90837014  1
  O  O219  1  0.72099074  0.86248898  0.24450777  1
  O  O220  1  0.71458094  0.86740112  0.56829492  1
  O  O221  1  0.71291418  0.86496700  0.90810457  1
  O  O222  1  0.40937135  0.12683641  0.15034848  1
  O  O223  1  0.42147010  0.12704432  0.48241233  1
  O  O224  1  0.42244117  0.12974564  0.81490051  1
  O  O225  1  0.41643601  0.63940530  0.15802549  1
  O  O226  1  0.41691910  0.63525894  0.48658070  1
  O  O227  1  0.42120730  0.63860871  0.82111253  1
  O  O228  1  0.91726927  0.13405570  0.15189267  1
  O  O229  1  0.91287020  0.13400464  0.48943050  1
  O  O230  1  0.92417409  0.12912756  0.81873114  1
  O  O231  1  0.92570697  0.63721472  0.15537496  1
  O  O232  1  0.91878184  0.62938224  0.48206065  1
  O  O233  1  0.90774858  0.63698288  0.81077591  1
  O  O234  1  0.36361093  0.08313832  0.01465520  1
  O  O235  1  0.36807139  0.07671324  0.34670104  1
  O  O236  1  0.37082475  0.07902569  0.67990357  1
  O  O237  1  0.37397111  0.58069409  0.02207150  1
  O  O238  1  0.37364767  0.59351672  0.35064213  1
  O  O239  1  0.36945252  0.58081033  0.68621877  1
  O  O240  1  0.86538769  0.08920877  0.01591082  1
  O  O241  1  0.86630158  0.08059955  0.35258501  1
  O  O242  1  0.87158657  0.06749794  0.68356241  1
  O  O243  1  0.87168089  0.57627223  0.02128487  1
  O  O244  1  0.86654555  0.58061984  0.34604551  1
  O  O245  1  0.86365478  0.58333461  0.67448492  1
  O  O246  1  0.07188144  0.36558112  0.18431470  1
  O  O247  1  0.08201180  0.36168508  0.50853882  1
  O  O248  1  0.09235059  0.36956609  0.85509198  1
  O  O249  1  0.08694243  0.87089266  0.18571732  1
  O  O250  1  0.08179126  0.87096895  0.51766901  1
  O  O251  1  0.07695937  0.87076791  0.84636570  1
  O  O252  1  0.58007861  0.36486322  0.17792934  1
  O  O253  1  0.58312294  0.36228214  0.51440430  1
  O  O254  1  0.58137099  0.36614761  0.84578622  1
  O  O255  1  0.58302719  0.86611909  0.18255485  1
  O  O256  1  0.57635873  0.86879883  0.51476918  1
  O  O257  1  0.57489871  0.87123313  0.85264857  1
  O  O258  1  0.12440112  0.41899210  0.32054638  1
  O  O259  1  0.12694666  0.40829489  0.64517177  1
  O  O260  1  0.13882605  0.41922077  0.99269199  1
  O  O261  1  0.13623468  0.91815142  0.32092798  1
  O  O262  1  0.13888381  0.91565239  0.65315962  1
  O  O263  1  0.13641147  0.92051157  0.98127405  1
  O  O264  1  0.63058648  0.42160959  0.31301068  1
  O  O265  1  0.62701377  0.40955112  0.65030339  1
  O  O266  1  0.62947917  0.42144337  0.98225819  1
  O  O267  1  0.63407565  0.91813362  0.31895577  1
  O  O268  1  0.63113560  0.91792808  0.64974254  1
  O  O269  1  0.62973312  0.92177405  0.98699184  1
  O  O270  1  0.02683504  0.19912494  0.10215581  1
  O  O271  1  0.02302339  0.19064731  0.43315926  1
  O  O272  1  0.04389051  0.19210725  0.77025169  1
  O  O273  1  0.03480412  0.69013352  0.10558859  1
  O  O274  1  0.02752385  0.69783348  0.43166168  1
  O  O275  1  0.03034982  0.70927981  0.76489927  1
  O  O276  1  0.52542105  0.19284385  0.09681568  1
  O  O277  1  0.53200413  0.19812036  0.44175627  1
  O  O278  1  0.53519853  0.19702311  0.76916410  1
  O  O279  1  0.53019913  0.70497729  0.10753281  1
  O  O280  1  0.53016250  0.70247134  0.43750006  1
  O  O281  1  0.52945964  0.71032584  0.77436907  1
  O  O282  1  0.29833922  0.46963401  0.06453809  1
  O  O283  1  0.30727359  0.47090124  0.40687741  1
  O  O284  1  0.30574763  0.46259601  0.73186097  1
  O  O285  1  0.29909044  0.97021276  0.06009843  1
  O  O286  1  0.30202927  0.97009265  0.39564231  1
  O  O287  1  0.30358520  0.97225142  0.72686461  1
  O  O288  1  0.79202844  0.46543941  0.05903247  1
  O  O289  1  0.79660387  0.46729068  0.39532665  1
  O  O290  1  0.79905449  0.47647975  0.73003886  1
  O  O291  1  0.79913371  0.97377780  0.06951960  1
  O  O292  1  0.80152093  0.96633296  0.39768581  1
  O  O293  1  0.79497166  0.94976856  0.71781368  1
  O  O294  1  0.47255780  0.29616098  0.22989296  1
  O  O295  1  0.46888563  0.29833457  0.56225083  1
  O  O296  1  0.46963766  0.29299533  0.89577989  1
  O  O297  1  0.46994204  0.80563235  0.22934621  1
  O  O298  1  0.47260253  0.80384007  0.56478428  1
  O  O299  1  0.46301320  0.80573616  0.89649276  1
  O  O300  1  0.96116609  0.29779857  0.23002500  1
  O  O301  1  0.96634909  0.29758176  0.55692899  1
  O  O302  1  0.96631157  0.29956479  0.89997510  1
  O  O303  1  0.97367873  0.79556157  0.23353765  1
  O  O304  1  0.97573386  0.79389182  0.56210076  1
  O  O305  1  0.96857245  0.79754640  0.88436001  1
  O  O306  1  0.19941578  0.03132092  0.26796551  1
  O  O307  1  0.20355213  0.02977450  0.60340980  1
  O  O308  1  0.20111495  0.03769400  0.93768506  1
  O  O309  1  0.18302910  0.53373928  0.26625325  1
  O  O310  1  0.19700253  0.52697106  0.59524334  1
  O  O311  1  0.21446717  0.52498384  0.94798160  1
  O  O312  1  0.70590329  0.02330797  0.27246006  1
  O  O313  1  0.70010032  0.02912153  0.60536845  1
  O  O314  1  0.68469876  0.03214342  0.93721157  1
  O  O315  1  0.70142572  0.53469264  0.27198047  1
  O  O316  1  0.68967135  0.52671157  0.59353073  1
  O  O317  1  0.70528963  0.54123742  0.94402739  1
  O  O318  1  0.07999456  0.08775865  0.03338903  1
  O  O319  1  0.08152564  0.08176699  0.36629103  1
  O  O320  1  0.09245322  0.08384730  0.69323487  1
  O  O321  1  0.09664027  0.58541461  0.04046159  1
  O  O322  1  0.09188993  0.59354250  0.37056178  1
  O  O323  1  0.08655034  0.59534005  0.71036810  1
  O  O324  1  0.58736650  0.08566058  0.03858556  1
  O  O325  1  0.58215260  0.08210024  0.37655950  1
  O  O326  1  0.58500670  0.08168688  0.70335653  1
  O  O327  1  0.59063354  0.59664188  0.04539541  1
  O  O328  1  0.58102928  0.59015089  0.36635594  1
  O  O329  1  0.56971042  0.59069416  0.70727640  1
  O  O330  1  0.40753747  0.40539607  0.12287204  1
  O  O331  1  0.41669146  0.41667722  0.47352745  1
  O  O332  1  0.41917566  0.41251780  0.79705910  1
  O  O333  1  0.41090039  0.91683972  0.12738927  1
  O  O334  1  0.41703914  0.92048481  0.46139254  1
  O  O335  1  0.41726788  0.92315303  0.79568483  1
  O  O336  1  0.90259997  0.41040838  0.12418897  1
  O  O337  1  0.90590247  0.41223558  0.46375661  1
  O  O338  1  0.91661221  0.43305356  0.79937831  1
  O  O339  1  0.91252105  0.92266104  0.13190821  1
  O  O340  1  0.91219577  0.91040692  0.46402670  1
  O  O341  1  0.90826336  0.89744258  0.78595939  1
  O  O342  1  0.43571169  0.41686374  0.29935508  1
  O  O343  1  0.41908058  0.41144025  0.63459684  1
  O  O344  1  0.41197037  0.40096550  0.96110184  1
  O  O345  1  0.41819879  0.91977153  0.29428939  1
  O  O346  1  0.42011820  0.91826216  0.62740581  1
  O  O347  1  0.41872388  0.92267043  0.96575755  1
  O  O348  1  0.90921933  0.41029364  0.29745964  1
  O  O349  1  0.91054768  0.41036789  0.62012458  1
  O  O350  1  0.90786426  0.40905525  0.96335815  1
  O  O351  1  0.91241198  0.90342508  0.29138850  1
  O  O352  1  0.92027976  0.90654023  0.62192604  1
  O  O353  1  0.92510226  0.91638582  0.94999568  1
  O  O354  1  0.08539490  0.08315660  0.20165670  1
  O  O355  1  0.09131653  0.08472536  0.53965601  1
  O  O356  1  0.08950660  0.09222723  0.87384122  1
  O  O357  1  0.08254815  0.59290937  0.19311373  1
  O  O358  1  0.08810750  0.58087472  0.52518887  1
  O  O359  1  0.11383734  0.59951698  0.89691638  1
  O  O360  1  0.58735665  0.06818634  0.20862965  1
  O  O361  1  0.58749206  0.08001738  0.53731645  1
  O  O362  1  0.57993401  0.08210740  0.86049585  1
  O  O363  1  0.58674654  0.58647443  0.20989990  1
  O  O364  1  0.57926512  0.58301779  0.53096552  1
  O  O365  1  0.59114729  0.59606519  0.88099223  1
  O  O366  1  0.13773179  0.22255057  0.06215058  1
  O  O367  1  0.13484904  0.21681963  0.39502624  1
  O  O368  1  0.14339061  0.21964911  0.71824295  1
  O  O369  1  0.13030606  0.72146934  0.05192878  1
  O  O370  1  0.14110324  0.73066047  0.39925175  1
  O  O371  1  0.13925420  0.72613199  0.72147538  1
  O  O372  1  0.63429431  0.22022640  0.05374418  1
  O  O373  1  0.63319101  0.21345035  0.38733288  1
  O  O374  1  0.64003224  0.21352980  0.71789867  1
  O  O375  1  0.63998202  0.73071314  0.06637777  1
  O  O376  1  0.63949881  0.72354672  0.39436436  1
  O  O377  1  0.63461211  0.72012550  0.72413480  1
  O  O378  1  0.27481499  0.36894082  0.11698387  1
  O  O379  1  0.28238985  0.36023994  0.44795010  1
  O  O380  1  0.28701302  0.35549979  0.77848752  1
  O  O381  1  0.27652169  0.86353779  0.10644800  1
  O  O382  1  0.28511774  0.86812844  0.44985972  1
  O  O383  1  0.28472345  0.86281577  0.77055681  1
  O  O384  1  0.76850125  0.35899833  0.10410322  1
  O  O385  1  0.77080837  0.35806167  0.43732090  1
  O  O386  1  0.78632864  0.36932208  0.77771500  1
  O  O387  1  0.78081672  0.86428057  0.11296493  1
  O  O388  1  0.77793316  0.85848853  0.44135922  1
  O  O389  1  0.77526998  0.85709852  0.77850231  1
  O  O390  1  0.36259681  0.29001898  0.27556402  1
  O  O391  1  0.36100047  0.27732153  0.60657079  1
  O  O392  1  0.36004244  0.26634787  0.93643457  1
  O  O393  1  0.37126174  0.78778785  0.28746093  1
  O  O394  1  0.36377708  0.78670381  0.61058894  1
  O  O395  1  0.35584828  0.79192818  0.94532516  1
  O  O396  1  0.85438996  0.27674719  0.27636159  1
  O  O397  1  0.86097969  0.27791103  0.60579272  1
  O  O398  1  0.86452232  0.27487117  0.95078953  1
  O  O399  1  0.86390925  0.77004751  0.27524350  1
  O  O400  1  0.86209943  0.77491743  0.60052494  1
  O  O401  1  0.86388886  0.78691276  0.93482306  1
  O  O402  1  0.21816019  0.13844362  0.22073973  1
  O  O403  1  0.22493707  0.13925117  0.56039350  1
  O  O404  1  0.22298950  0.14373788  0.89080352  1
  O  O405  1  0.22004867  0.64324616  0.22952261  1
  O  O406  1  0.22331915  0.63719772  0.55497604  1
  O  O407  1  0.24608983  0.62956723  0.90318342  1
  O  O408  1  0.71635311  0.13346062  0.22729316  1
  O  O409  1  0.72124756  0.13767261  0.56105649  1
  O  O410  1  0.71596312  0.13636171  0.89127871  1
  O  O411  1  0.71799943  0.64103335  0.22396361  1
  O  O412  1  0.71288646  0.63677504  0.55056536  1
  O  O413  1  0.72293520  0.64133397  0.88887823  1
  O  O414  1  0.48859743  0.31963307  0.02790336  1
  O  O415  1  0.49372690  0.32683754  0.36368491  1
  O  O416  1  0.49327211  0.32517030  0.69520162  1
  O  O417  1  0.48953851  0.83715049  0.03045787  1
  O  O418  1  0.50220195  0.84804293  0.36580056  1
  O  O419  1  0.49472951  0.84134189  0.69922951  1
  O  O420  1  0.99368997  0.33956226  0.03517191  1
  O  O421  1  0.98596608  0.33074303  0.36381709  1
  O  O422  1  0.99291431  0.33472901  0.69092250  1
  O  O423  1  0.99623967  0.83555717  0.01963746  1
  O  O424  1  0.99166998  0.83141842  0.36667517  1
  O  O425  1  0.99069955  0.82666108  0.69457978  1
  O  O426  1  0.16512575  0.00665199  0.13400286  1
  O  O427  1  0.17201389  0.00950158  0.47084260  1
  O  O428  1  0.16804296  0.01321154  0.80399413  1
  O  O429  1  0.16982536  0.51318856  0.13758783  1
  O  O430  1  0.17119141  0.50717860  0.46217538  1
  O  O431  1  0.17100598  0.50566059  0.81401037  1
  O  O432  1  0.66979648  0.00339270  0.13778152  1
  O  O433  1  0.67034453  0.00628394  0.47199969  1
  O  O434  1  0.66690185  0.00415690  0.80479176  1
  O  O435  1  0.66381412  0.51015583  0.13742225  1
  O  O436  1  0.65746670  0.50721167  0.46034056  1
  O  O437  1  0.65741855  0.50840285  0.80830516  1
  O  O438  1  0.00564461  0.16499470  0.30225580  1
  O  O439  1  0.01033083  0.16580441  0.63579766  1
  O  O440  1  0.00747426  0.17163158  0.96950978  1
  O  O441  1  0.01699847  0.67406503  0.30099514  1
  O  O442  1  0.01148056  0.66549444  0.63034221  1
  O  O443  1  0.00096934  0.65001832  0.97091412  1
  O  O444  1  0.49922422  0.15436318  0.30599235  1
  O  O445  1  0.50736582  0.15893985  0.63417239  1
  O  O446  1  0.50746348  0.15646749  0.96322072  1
  O  O447  1  0.50756248  0.67657161  0.30549531  1
  O  O448  1  0.50283921  0.67432923  0.63850874  1
  O  O449  1  0.51073494  0.67478600  0.97622800  1
  O  O450  1  0.34645583  0.49896308  0.19899736  1
  O  O451  1  0.33377356  0.49014995  0.53957554  1
  O  O452  1  0.33905171  0.48610510  0.86618988  1
  O  O453  1  0.33256630  0.99456229  0.19417354  1
  O  O454  1  0.34136480  0.99984733  0.53110806  1
  O  O455  1  0.33271119  0.99466758  0.86002386  1
  O  O456  1  0.82529455  0.48887199  0.19313866  1
  O  O457  1  0.82194272  0.48838745  0.52745361  1
  O  O458  1  0.82946167  0.50134739  0.86371445  1
  O  O459  1  0.83354877  0.99372245  0.20376186  1
  O  O460  1  0.83342588  0.98887346  0.53096371  1
  O  O461  1  0.83978381  0.99175682  0.85291999  1
