# generated using pymatgen
data_Na31Fe20(SO4)36
_symmetry_space_group_name_H-M   'P 1'
_cell_length_a   18.06231736
_cell_length_b   18.06275576
_cell_length_c   19.69613338
_cell_angle_alpha   107.56833919
_cell_angle_beta   107.57131642
_cell_angle_gamma   90.69238067
_symmetry_Int_Tables_number   1
_chemical_formula_structural   Na31Fe20(SO4)36
_chemical_formula_sum   'Na62 Fe40 S72 O288'
_cell_volume   5802.62718060
_cell_formula_units_Z   2
loop_
 _symmetry_equiv_pos_site_id
 _symmetry_equiv_pos_as_xyz
  1  'x, y, z'
loop_
 _atom_site_type_symbol
 _atom_site_label
 _atom_site_symmetry_multiplicity
 _atom_site_fract_x
 _atom_site_fract_y
 _atom_site_fract_z
 _atom_site_occupancy
  Na  Na0  1  0.13054537  0.35867278  0.07359119  1
  Na  Na1  1  0.15367548  0.36620167  0.42773883  1
  Na  Na2  1  0.13346577  0.36542177  0.74975003  1
  Na  Na3  1  0.13128142  0.85984268  0.07041531  1
  Na  Na4  1  0.13386529  0.87520767  0.41633996  1
  Na  Na5  1  0.13757690  0.87096251  0.76120305  1
  Na  Na6  1  0.63961915  0.36435872  0.08932091  1
  Na  Na7  1  0.63130086  0.36231376  0.42223570  1
  Na  Na8  1  0.62974705  0.36992451  0.75218489  1
  Na  Na9  1  0.62710397  0.87086110  0.08068909  1
  Na  Na10  1  0.63707082  0.86163400  0.41077055  1
  Na  Na11  1  0.63758116  0.86325167  0.75233452  1
  Na  Na12  1  0.37320364  0.15755252  0.27720283  1
  Na  Na13  1  0.35875228  0.12372934  0.56825655  1
  Na  Na14  1  0.36850419  0.11970041  0.92261137  1
  Na  Na15  1  0.36765407  0.63538421  0.25499859  1
  Na  Na16  1  0.36502828  0.63088722  0.58157234  1
  Na  Na17  1  0.35992780  0.63384962  0.91091993  1
  Na  Na18  1  0.86399209  0.14103250  0.25183526  1
  Na  Na19  1  0.86403594  0.12827913  0.57184914  1
  Na  Na20  1  0.87252707  0.13712399  0.91869477  1
  Na  Na21  1  0.86272026  0.63941547  0.25491178  1
  Na  Na22  1  0.86694982  0.63782332  0.58688410  1
  Na  Na23  1  0.87173664  0.64390998  0.91647183  1
  Na  Na24  1  0.98815820  0.03849975  0.75516781  1
  Na  Na25  1  0.48537454  0.00391097  0.75256324  1
  Na  Na26  1  0.99608201  0.51541899  0.06666604  1
  Na  Na27  1  0.49062550  0.51144592  0.07626721  1
  Na  Na28  1  0.99601397  0.00781210  0.09061595  1
  Na  Na29  1  0.49094285  0.50717328  0.42009776  1
  Na  Na30  1  0.51204330  -0.03255911  0.45776907  1
  Na  Na31  1  0.98147092  0.52320881  0.78512604  1
  Na  Na32  1  0.99329168  0.50253586  0.41564427  1
  Na  Na33  1  0.02267063  0.98835458  0.28717897  1
  Na  Na34  1  0.01584852  0.48754412  0.59391789  1
  Na  Na35  1  0.53831721  0.99518614  0.25526265  1
  Na  Na36  1  0.49424811  0.47156010  0.58418856  1
  Na  Na37  1  0.51005534  0.48629961  0.24624469  1
  Na  Na38  1  0.01479160  0.48885779  0.24463836  1
  Na  Na39  1  0.01520639  0.99349012  0.56995113  1
  Na  Na40  1  0.49924222  0.51113105  0.88422265  1
  Na  Na41  1  0.01830108  0.99349977  0.91636908  1
  Na  Na42  1  0.23419413  0.23341769  0.00592918  1
  Na  Na43  1  0.75651207  0.75879987  -0.00644697  1
  Na  Na44  1  0.24913505  0.75927424  -0.01174829  1
  Na  Na45  1  0.74185858  0.74488212  0.67483703  1
  Na  Na46  1  0.25297225  0.74904315  0.66271874  1
  Na  Na47  1  0.74540345  0.24486802  0.66798821  1
  Na  Na48  1  0.74300838  0.24042717  0.33366103  1
  Na  Na49  1  0.74234495  0.24072401  0.01386490  1
  Na  Na50  1  0.25741361  0.25972990  0.65608114  1
  Na  Na51  1  0.26355917  0.75972853  0.32897109  1
  Na  Na52  1  0.25885185  0.76449359  0.82962871  1
  Na  Na53  1  0.74101954  0.74413189  0.17432384  1
  Na  Na54  1  0.27559119  0.25973422  0.48093211  1
  Na  Na55  1  0.74209915  0.23722620  0.50225418  1
  Na  Na56  1  0.75335943  0.75659135  0.49152098  1
  Na  Na57  1  0.23877185  0.24056504  0.83848462  1
  Na  Na58  1  0.25474400  0.75614282  0.16117295  1
  Na  Na59  1  0.26213268  0.75773668  0.49357475  1
  Na  Na60  1  0.24474203  0.23990408  0.18522354  1
  Na  Na61  1  0.74819789  0.24711329  0.83784619  1
  Fe  Fe62  1  0.46138357  0.81114651  0.11925032  1
  Fe  Fe63  1  0.96581755  0.30294957  0.11668339  1
  Fe  Fe64  1  0.96607155  0.30741698  0.44939921  1
  Fe  Fe65  1  0.96863538  0.30214423  0.78995288  1
  Fe  Fe66  1  0.46234456  0.81384730  0.79279821  1
  Fe  Fe67  1  0.96760487  0.79934273  0.78884046  1
  Fe  Fe68  1  0.96707530  0.80780123  0.11690046  1
  Fe  Fe69  1  0.96336527  0.80369184  0.44901764  1
  Fe  Fe70  1  0.46281406  0.30543490  0.78336891  1
  Fe  Fe71  1  0.46294526  0.30604118  0.11717509  1
  Fe  Fe72  1  0.68870723  0.03438364  0.70907706  1
  Fe  Fe73  1  0.18800238  0.53783762  0.04181186  1
  Fe  Fe74  1  0.19573289  0.53144661  0.38416629  1
  Fe  Fe75  1  0.69065640  0.53889982  0.71445972  1
  Fe  Fe76  1  0.69226834  0.53448145  0.04817410  1
  Fe  Fe77  1  0.68797035  0.03745776  0.04634778  1
  Fe  Fe78  1  0.19170044  0.03352465  0.71659114  1
  Fe  Fe79  1  0.20247272  0.03223601  0.04658448  1
  Fe  Fe80  1  0.20146200  0.53359812  0.71460897  1
  Fe  Fe81  1  0.69366069  0.53326018  0.38042304  1
  Fe  Fe82  1  0.53338800  0.19210006  0.21452472  1
  Fe  Fe83  1  0.03803456  0.18845309  0.54239595  1
  Fe  Fe84  1  0.53350268  0.19537956  0.53991467  1
  Fe  Fe85  1  0.03596866  0.69345211  0.21406665  1
  Fe  Fe86  1  0.04067415  0.19023592  0.21877985  1
  Fe  Fe87  1  0.53511823  0.69452792  0.87753981  1
  Fe  Fe88  1  0.52934410  0.70096042  0.54490190  1
  Fe  Fe89  1  0.03353839  0.69278269  0.54877822  1
  Fe  Fe90  1  0.53347349  0.69715915  0.21802397  1
  Fe  Fe91  1  0.53284654  0.19398747  0.88099395  1
  Fe  Fe92  1  0.30856878  0.46186268  0.28390714  1
  Fe  Fe93  1  0.80602120  0.96606426  0.95112758  1
  Fe  Fe94  1  0.80598325  0.46368539  0.61935152  1
  Fe  Fe95  1  0.80540088  0.46609787  0.95134142  1
  Fe  Fe96  1  0.80681728  0.96662762  0.61788732  1
  Fe  Fe97  1  0.30181884  0.96831392  0.29570052  1
  Fe  Fe98  1  0.30561493  0.46369966  0.94935546  1
  Fe  Fe99  1  0.30344821  0.96540621  0.61596940  1
  Fe  Fe100  1  0.80207207  0.96810227  0.28990954  1
  Fe  Fe101  1  0.80745469  0.46066789  0.28177528  1
  S  S102  1  0.36031630  0.14549342  0.08984181  1
  S  S103  1  0.36851320  0.13462860  0.42009430  1
  S  S104  1  0.35852262  0.13971504  0.75033282  1
  S  S105  1  0.36117816  0.63926380  0.08355751  1
  S  S106  1  0.35832287  0.63800676  0.41503640  1
  S  S107  1  0.36169742  0.64143361  0.75134265  1
  S  S108  1  0.86040584  0.13815957  0.08425154  1
  S  S109  1  0.86251421  0.14140100  0.41323169  1
  S  S110  1  0.85520310  0.14142751  0.74804891  1
  S  S111  1  0.85984691  0.64106181  0.08461099  1
  S  S112  1  0.86066495  0.63581873  0.41511166  1
  S  S113  1  0.85646357  0.63846117  0.74560271  1
  S  S114  1  0.13866828  0.36028844  0.24690483  1
  S  S115  1  0.13750668  0.35991147  0.58362518  1
  S  S116  1  0.14039468  0.36005621  0.91775636  1
  S  S117  1  0.14007403  0.85635688  0.24771443  1
  S  S118  1  0.13749798  0.85775843  0.58157545  1
  S  S119  1  0.13551685  0.86124771  0.91676829  1
  S  S120  1  0.64082888  0.35957699  0.24802987  1
  S  S121  1  0.64061054  0.36321760  0.58665915  1
  S  S122  1  0.63884368  0.36100087  0.91688602  1
  S  S123  1  0.63888466  0.85628245  0.24698687  1
  S  S124  1  0.64296236  0.86149580  0.58264061  1
  S  S125  1  0.64132064  0.86114749  0.91549404  1
  S  S126  1  0.06505856  0.16645182  0.04600379  1
  S  S127  1  0.07216793  0.17585253  0.38016347  1
  S  S128  1  0.06257112  0.16757787  0.70501570  1
  S  S129  1  0.06434671  0.67104810  0.04303375  1
  S  S130  1  0.06753886  0.66686438  0.37472769  1
  S  S131  1  0.07032634  0.66935149  0.70889626  1
  S  S132  1  0.56684739  0.17386681  0.04187981  1
  S  S133  1  0.57396089  0.17325924  0.37852069  1
  S  S134  1  0.56786546  0.17289092  0.70946020  1
  S  S135  1  0.56429578  0.66482863  0.03960676  1
  S  S136  1  0.56722087  0.66332123  0.37449327  1
  S  S137  1  0.56610453  0.67051437  0.70522532  1
  S  S138  1  0.32794087  0.43408646  0.12045020  1
  S  S139  1  0.33337702  0.44057930  0.45551561  1
  S  S140  1  0.32915434  0.43168223  0.79052711  1
  S  S141  1  0.32696315  0.92977930  0.13092305  1
  S  S142  1  0.32729495  0.92603187  0.45502644  1
  S  S143  1  0.32723570  0.93480230  0.78739290  1
  S  S144  1  0.83156836  0.43439086  0.12301688  1
  S  S145  1  0.83213148  0.43219018  0.45716388  1
  S  S146  1  0.82932567  0.43154062  0.79052212  1
  S  S147  1  0.83028955  0.93325878  0.12549574  1
  S  S148  1  0.83203359  0.92729753  0.45761477  1
  S  S149  1  0.83325102  0.93533414  0.78992521  1
  S  S150  1  0.44042672  0.34219139  0.29162629  1
  S  S151  1  0.43524526  0.32330583  0.62343703  1
  S  S152  1  0.43183044  0.32906468  0.95709876  1
  S  S153  1  0.43112943  0.82938254  0.29127336  1
  S  S154  1  0.43049694  0.82868707  0.62782882  1
  S  S155  1  0.43095603  0.82788614  0.95506433  1
  S  S156  1  0.93684162  0.33527587  0.29132410  1
  S  S157  1  0.92985848  0.33107805  0.62579499  1
  S  S158  1  0.92860871  0.33180934  0.95844831  1
  S  S159  1  0.93259498  0.82886408  0.28710838  1
  S  S160  1  0.93272931  0.82888427  0.62465883  1
  S  S161  1  0.92829321  0.83670535  0.96004881  1
  S  S162  1  0.17318736  0.06350016  0.20948524  1
  S  S163  1  0.16970627  0.06510004  0.54620675  1
  S  S164  1  0.16461749  0.06684056  0.87598922  1
  S  S165  1  0.16750728  0.56553508  0.20670480  1
  S  S166  1  0.16270491  0.56668927  0.54056899  1
  S  S167  1  0.17293930  0.56767313  0.87718481  1
  S  S168  1  0.67068200  0.06697393  0.20846301  1
  S  S169  1  0.67070311  0.06799835  0.54137864  1
  S  S170  1  0.67094167  0.07013195  0.87524716  1
  S  S171  1  0.66767971  0.56635127  0.20752952  1
  S  S172  1  0.66921580  0.56757169  0.54186523  1
  S  S173  1  0.67513976  0.57078491  0.87963897  1
  O  O174  1  0.36545791  0.22610444  0.08101404  1
  O  O175  1  0.38007575  0.20823507  0.40700250  1
  O  O176  1  0.36611164  0.21990959  0.74473581  1
  O  O177  1  0.36815854  0.71726619  0.07337719  1
  O  O178  1  0.36423009  0.71452873  0.40569001  1
  O  O179  1  0.36885617  0.72607483  0.75358765  1
  O  O180  1  0.87068516  0.21731424  0.07615301  1
  O  O181  1  0.87518758  0.21867451  0.40021856  1
  O  O182  1  0.86600780  0.22186731  0.74301789  1
  O  O183  1  0.86856475  0.72031874  0.07761813  1
  O  O184  1  0.87102695  0.71294058  0.40501235  1
  O  O185  1  0.86942351  0.71580670  0.73460829  1
  O  O186  1  0.27883640  0.13557827  0.09461635  1
  O  O187  1  0.29960969  0.12789354  0.44277955  1
  O  O188  1  0.28143426  0.12974665  0.76143801  1
  O  O189  1  0.28260132  0.62921360  0.09200132  1
  O  O190  1  0.28029526  0.62610031  0.42621577  1
  O  O191  1  0.28402132  0.63215859  0.76427094  1
  O  O192  1  0.78020631  0.12931662  0.08817201  1
  O  O193  1  0.78673846  0.13731767  0.42461230  1
  O  O194  1  0.77301419  0.13356469  0.75081914  1
  O  O195  1  0.78022642  0.63060520  0.09155754  1
  O  O196  1  0.78221553  0.62787980  0.42441204  1
  O  O197  1  0.77424169  0.63238435  0.74673601  1
  O  O198  1  0.13201141  0.28135327  0.25368070  1
  O  O199  1  0.12217620  0.28356063  0.59607239  1
  O  O200  1  0.13382753  0.28633099  0.93273766  1
  O  O201  1  0.13477560  0.77531201  0.25343979  1
  O  O202  1  0.12871192  0.77793853  0.58803072  1
  O  O203  1  0.12290319  0.78984123  0.93418013  1
  O  O204  1  0.63113460  0.27998913  0.25317166  1
  O  O205  1  0.63163410  0.28258492  0.59413917  1
  O  O206  1  0.63017191  0.28001842  0.92085495  1
  O  O207  1  0.63029857  0.77354573  0.24778229  1
  O  O208  1  0.63139958  0.78112032  0.58829384  1
  O  O209  1  0.63387411  0.78175520  0.92375393  1
  O  O210  1  0.21529521  0.37105382  0.23487183  1
  O  O211  1  0.21185334  0.36116481  0.56919022  1
  O  O212  1  0.21889539  0.37020883  0.90692106  1
  O  O213  1  0.22286074  0.86839324  0.24613289  1
  O  O214  1  0.21595506  0.86622159  0.57276598  1
  O  O215  1  0.20991351  0.86601951  0.90181615  1
  O  O216  1  0.71822329  0.37046951  0.23780516  1
  O  O217  1  0.72017224  0.36854988  0.57676801  1
  O  O218  1  0.71596075  0.36997338  0.90483802  1
  O  O219  1  0.71826631  0.86749231  0.23992164  1
  O  O220  1  0.72575885  0.86901202  0.58067060  1
  O  O221  1  0.71892709  0.87228570  0.90566196  1
  O  O222  1  0.41537588  0.14605559  0.16404940  1
  O  O223  1  0.43823538  0.12107126  0.48139059  1
  O  O224  1  0.42051536  0.12972698  0.81642064  1
  O  O225  1  0.42067902  0.63316181  0.15285652  1
  O  O226  1  0.41929293  0.62971011  0.48231543  1
  O  O227  1  0.42263952  0.62918129  0.81722262  1
  O  O228  1  0.91839753  0.13009759  0.15299722  1
  O  O229  1  0.92441058  0.13494048  0.48087485  1
  O  O230  1  0.91040573  0.12960343  0.81412478  1
  O  O231  1  0.91834932  0.63211374  0.15275849  1
  O  O232  1  0.92002976  0.62744574  0.48314106  1
  O  O233  1  0.91114140  0.63032393  0.81382330  1
  O  O234  1  0.37357955  0.08769800  0.02726525  1
  O  O235  1  0.36696156  0.06957957  0.34908605  1
  O  O236  1  0.36625821  0.08240402  0.68122472  1
  O  O237  1  0.37274506  0.57886509  0.01782378  1
  O  O238  1  0.36611957  0.57666580  0.34715183  1
  O  O239  1  0.36465657  0.58997081  0.68051871  1
  O  O240  1  0.87096829  0.07913235  0.01687806  1
  O  O241  1  0.86788188  0.07971239  0.34529909  1
  O  O242  1  0.86426020  0.08438264  0.67826780  1
  O  O243  1  0.86930534  0.58217247  0.01689850  1
  O  O244  1  0.86849861  0.57437530  0.34776190  1
  O  O245  1  0.86598868  0.57736473  0.67806402  1
  O  O246  1  0.07686428  0.37025324  0.18025449  1
  O  O247  1  0.07386478  0.37298832  0.51968369  1
  O  O248  1  0.08123330  0.36281802  0.84694012  1
  O  O249  1  0.08630293  0.86153628  0.17560338  1
  O  O250  1  0.07767245  0.86674020  0.51390997  1
  O  O251  1  0.07154160  0.86922072  0.84929030  1
  O  O252  1  0.57978821  0.37230933  0.18278367  1
  O  O253  1  0.58110039  0.37611139  0.52402471  1
  O  O254  1  0.57704898  0.37399047  0.85319473  1
  O  O255  1  0.58031460  0.86479778  0.17751909  1
  O  O256  1  0.58879164  0.87231773  0.51582871  1
  O  O257  1  0.58044331  0.86806294  0.84822269  1
  O  O258  1  0.12995074  0.41907493  0.31517563  1
  O  O259  1  0.13428778  0.42178177  0.65331510  1
  O  O260  1  0.13155777  0.42483374  0.98239042  1
  O  O261  1  0.12490262  0.91227800  0.31137820  1
  O  O262  1  0.12851849  0.91562120  0.64967199  1
  O  O263  1  0.12930874  0.92940474  0.98174629  1
  O  O264  1  0.63542122  0.41753551  0.31837828  1
  O  O265  1  0.63915070  0.42037609  0.65912002  1
  O  O266  1  0.63601895  0.41693459  0.98872189  1
  O  O267  1  0.62766462  0.91132787  0.31331512  1
  O  O268  1  0.63678738  0.91810293  0.65372649  1
  O  O269  1  0.63532474  0.91940316  0.98473452  1
  O  O270  1  0.03147887  0.19780139  0.11092864  1
  O  O271  1  0.03507829  0.21164416  0.44107859  1
  O  O272  1  0.02545435  0.19551997  0.76407015  1
  O  O273  1  0.02921768  0.70125279  0.10722193  1
  O  O274  1  0.03100350  0.69742746  0.43555763  1
  O  O275  1  0.03457120  0.69889222  0.76833339  1
  O  O276  1  0.52984441  0.20320471  0.10297650  1
  O  O277  1  0.54756313  0.20489139  0.44617136  1
  O  O278  1  0.52829906  0.20296754  0.76880214  1
  O  O279  1  0.52796523  0.69389579  0.10007267  1
  O  O280  1  0.53284028  0.68549626  0.43526088  1
  O  O281  1  0.53083735  0.69963406  0.76709549  1
  O  O282  1  0.29784383  0.47009544  0.05936887  1
  O  O283  1  0.29187066  0.46539269  0.38521471  1
  O  O284  1  0.30070097  0.46838850  0.73194546  1
  O  O285  1  0.30032757  0.96840489  0.07358791  1
  O  O286  1  0.29701953  0.96129991  0.39324577  1
  O  O287  1  0.29511940  0.96732537  0.72192662  1
  O  O288  1  0.80026932  0.47066468  0.06182676  1
  O  O289  1  0.80058976  0.46675682  0.39483142  1
  O  O290  1  0.80086380  0.47154311  0.73175651  1
  O  O291  1  0.80133654  0.96943072  0.06402376  1
  O  O292  1  0.80959170  0.96072148  0.39616992  1
  O  O293  1  0.80528140  0.97473304  0.73055991  1
  O  O294  1  0.47240327  0.30716575  0.22716413  1
  O  O295  1  0.47391760  0.28544746  0.56542934  1
  O  O296  1  0.46857424  0.29919959  0.89621201  1
  O  O297  1  0.46433160  0.80166268  0.22590271  1
  O  O298  1  0.46593184  0.79964377  0.56803795  1
  O  O299  1  0.47424531  0.79411949  0.89793519  1
  O  O300  1  0.97060284  0.30068283  0.22930587  1
  O  O301  1  0.96158075  0.30290742  0.56188969  1
  O  O302  1  0.96036256  0.30798135  0.89613628  1
  O  O303  1  0.97330507  0.80097908  0.22819861  1
  O  O304  1  0.96863904  0.79785030  0.56254397  1
  O  O305  1  0.95331045  0.80659699  0.89389098  1
  O  O306  1  0.20265859  0.02529470  0.26847345  1
  O  O307  1  0.19986287  0.03044614  0.61100706  1
  O  O308  1  0.20269460  0.03870080  0.93948638  1
  O  O309  1  0.19639100  0.53043598  0.26823570  1
  O  O310  1  0.18877491  0.53547209  0.60331207  1
  O  O311  1  0.21018067  0.53288785  0.94002633  1
  O  O312  1  0.69798741  0.02614564  0.26474373  1
  O  O313  1  0.70103667  0.03413737  0.60536431  1
  O  O314  1  0.69991057  0.03412284  0.93665828  1
  O  O315  1  0.69892755  0.53120842  0.26929529  1
  O  O316  1  0.69715996  0.52860385  0.60127183  1
  O  O317  1  0.70060577  0.53035058  0.93887720  1
  O  O318  1  0.08593368  0.08579398  0.04401882  1
  O  O319  1  0.08612206  0.09667118  0.37881484  1
  O  O320  1  0.07915516  0.08400820  0.69904399  1
  O  O321  1  0.08526184  0.59040440  0.04350233  1
  O  O322  1  0.08276965  0.58384467  0.36907758  1
  O  O323  1  0.09210829  0.58854539  0.70511443  1
  O  O324  1  0.58876815  0.09496257  0.03838091  1
  O  O325  1  0.58693483  0.09178439  0.36680395  1
  O  O326  1  0.58589884  0.09257461  0.70870245  1
  O  O327  1  0.58079688  0.58138273  0.03388899  1
  O  O328  1  0.58460388  0.57877866  0.36174370  1
  O  O329  1  0.58377928  0.58809897  0.69842817  1
  O  O330  1  0.41112915  0.41878128  0.12563617  1
  O  O331  1  0.41531873  0.43394229  0.45736211  1
  O  O332  1  0.40982916  0.40942910  0.79458333  1
  O  O333  1  0.41065035  0.91541827  0.14210754  1
  O  O334  1  0.40537096  0.90475813  0.46021481  1
  O  O335  1  0.40837779  0.91601854  0.78834763  1
  O  O336  1  0.91382247  0.41774611  0.12864180  1
  O  O337  1  0.91580395  0.41902859  0.46308804  1
  O  O338  1  0.90928470  0.41086221  0.79281205  1
  O  O339  1  0.91372244  0.91765334  0.13284220  1
  O  O340  1  0.91500800  0.90705589  0.47022068  1
  O  O341  1  0.91502427  0.91718035  0.79579626  1
  O  O342  1  0.42045174  0.42355409  0.28881706  1
  O  O343  1  0.41886449  0.40063519  0.61974657  1
  O  O344  1  0.41425994  0.41098835  0.96191359  1
  O  O345  1  0.40149649  0.90717575  0.29418400  1
  O  O346  1  0.40922039  0.90963591  0.63321749  1
  O  O347  1  0.41143396  0.90384341  0.95259433  1
  O  O348  1  0.92050060  0.41776159  0.29153604  1
  O  O349  1  0.91607732  0.41560560  0.63546150  1
  O  O350  1  0.90859689  0.41459169  0.97103727  1
  O  O351  1  0.91314977  0.90935241  0.29086237  1
  O  O352  1  0.91797257  0.91179029  0.63143296  1
  O  O353  1  0.91468776  0.92181940  0.97102325  1
  O  O354  1  0.09103442  0.08201974  0.20774902  1
  O  O355  1  0.08905403  0.08564092  0.54586457  1
  O  O356  1  0.08147502  0.07404963  0.86904415  1
  O  O357  1  0.08394724  0.58154654  0.20065669  1
  O  O358  1  0.07831476  0.58321478  0.52975699  1
  O  O359  1  0.09325024  0.57957210  0.87543512  1
  O  O360  1  0.59072174  0.08946159  0.20790729  1
  O  O361  1  0.59487086  0.10017099  0.54636856  1
  O  O362  1  0.58923880  0.08870933  0.86828889  1
  O  O363  1  0.58495609  0.58255257  0.20221956  1
  O  O364  1  0.58862306  0.58810812  0.53657836  1
  O  O365  1  0.59535064  0.59316957  0.87692804  1
  O  O366  1  0.13633354  0.22010912  0.06378494  1
  O  O367  1  0.14226778  0.22772267  0.39396439  1
  O  O368  1  0.13586109  0.21720654  0.72179838  1
  O  O369  1  0.13683360  0.72211684  0.06075101  1
  O  O370  1  0.13908444  0.71699578  0.38962324  1
  O  O371  1  0.13963993  0.72231389  0.71988698  1
  O  O372  1  0.63474832  0.22912817  0.05565456  1
  O  O373  1  0.64559141  0.22534067  0.39177326  1
  O  O374  1  0.63959829  0.22648928  0.72929649  1
  O  O375  1  0.63658020  0.71500544  0.05523565  1
  O  O376  1  0.63807489  0.71478079  0.38979426  1
  O  O377  1  0.63649894  0.72253183  0.72010999  1
  O  O378  1  0.27776248  0.36225651  0.10489694  1
  O  O379  1  0.28987528  0.36597268  0.44370001  1
  O  O380  1  0.27617197  0.36202102  0.77798758  1
  O  O381  1  0.27693375  0.85432892  0.10870451  1
  O  O382  1  0.27024860  0.85734804  0.43925871  1
  O  O383  1  0.27593588  0.86159237  0.76928511  1
  O  O384  1  0.78072512  0.36335312  0.10784195  1
  O  O385  1  0.78391679  0.35926949  0.44234587  1
  O  O386  1  0.77462361  0.36186185  0.77374323  1
  O  O387  1  0.77959256  0.86035823  0.10760693  1
  O  O388  1  0.77872458  0.85834397  0.44419134  1
  O  O389  1  0.77985660  0.86498598  0.77174960  1
  O  O390  1  0.36873779  0.29392293  0.27984942  1
  O  O391  1  0.36392590  0.27125644  0.60926872  1
  O  O392  1  0.36152616  0.27708584  0.94225563  1
  O  O393  1  0.36399462  0.77071704  0.27458223  1
  O  O394  1  0.35943495  0.77539133  0.61330611  1
  O  O395  1  0.36190334  0.77033612  0.93692450  1
  O  O396  1  0.86578644  0.28807556  0.28154162  1
  O  O397  1  0.85678870  0.28205580  0.61086729  1
  O  O398  1  0.85846946  0.27898223  0.94535083  1
  O  O399  1  0.86289273  0.77415050  0.26807201  1
  O  O400  1  0.85967537  0.77811482  0.60589626  1
  O  O401  1  0.85840083  0.78934661  0.95398654  1
  O  O402  1  0.22418095  0.13485585  0.22549038  1
  O  O403  1  0.22170978  0.13669643  0.56411000  1
  O  O404  1  0.20921367  0.14145028  0.88594143  1
  O  O405  1  0.21801502  0.63745651  0.22222356  1
  O  O406  1  0.21228399  0.63807254  0.55225281  1
  O  O407  1  0.22289814  0.64041924  0.89247420  1
  O  O408  1  0.72487236  0.13650546  0.22445598  1
  O  O409  1  0.72834112  0.13417524  0.55413778  1
  O  O410  1  0.72410858  0.14142472  0.89286464  1
  O  O411  1  0.71861426  0.63605076  0.21997574  1
  O  O412  1  0.72400968  0.63714744  0.55872020  1
  O  O413  1  0.73117018  0.63883601  0.89808071  1
  O  O414  1  0.49220192  0.33374127  0.03027611  1
  O  O415  1  0.50205873  0.35293697  0.36239948  1
  O  O416  1  0.49299511  0.32910583  0.69921723  1
  O  O417  1  0.48777026  0.82863169  0.02961970  1
  O  O418  1  0.49483617  0.83704114  0.36016446  1
  O  O419  1  0.49003623  0.83362948  0.70196942  1
  O  O420  1  0.99054089  0.33211474  0.02967544  1
  O  O421  1  0.99824393  0.34448470  0.36516786  1
  O  O422  1  0.98967884  0.32907835  0.69644913  1
  O  O423  1  0.99294422  0.83851909  0.03046893  1
  O  O424  1  0.99072842  0.83010973  0.36025460  1
  O  O425  1  0.99071121  0.82682877  0.69581361  1
  O  O426  1  0.16569631  0.00591471  0.13416493  1
  O  O427  1  0.16537828  0.00508748  0.47677910  1
  O  O428  1  0.16644875  0.00799209  0.80271486  1
  O  O429  1  0.16483086  0.50660293  0.13382461  1
  O  O430  1  0.16013149  0.50497907  0.46841105  1
  O  O431  1  0.17514074  0.50871064  0.80548478  1
  O  O432  1  0.66325832  0.00997582  0.13237431  1
  O  O433  1  0.65545133  0.00464634  0.47098913  1
  O  O434  1  0.66977296  0.01067520  0.80327987  1
  O  O435  1  0.66374459  0.50479761  0.13492701  1
  O  O436  1  0.66637696  0.50766813  0.46877081  1
  O  O437  1  0.67022753  0.51185174  0.80641408  1
  O  O438  1  0.01117199  0.17502593  0.30701475  1
  O  O439  1  0.00528124  0.16493436  0.63083815  1
  O  O440  1  0.00462194  0.16275108  0.97647546  1
  O  O441  1  0.00793706  0.66426385  0.30174227  1
  O  O442  1  0.00915026  0.66133911  0.63400011  1
  O  O443  1  0.00460634  0.66745883  0.97367194  1
  O  O444  1  0.51180831  0.18191704  0.31137481  1
  O  O445  1  0.51240791  0.17066107  0.63547955  1
  O  O446  1  0.50564452  0.16965753  0.96903911  1
  O  O447  1  0.50690536  0.66357294  0.30252051  1
  O  O448  1  0.50583549  0.66839535  0.63298536  1
  O  O449  1  0.50605237  0.66080770  0.96581485  1
  O  O450  1  0.32953992  0.49339652  0.19288886  1
  O  O451  1  0.32912932  0.50248922  0.52169954  1
  O  O452  1  0.33894012  0.49178551  0.86634212  1
  O  O453  1  0.32241041  0.98308105  0.20433144  1
  O  O454  1  0.32697695  0.98641762  0.52711308  1
  O  O455  1  0.32885273  0.99360157  0.85632261  1
  O  O456  1  0.83312748  0.49464448  0.19520483  1
  O  O457  1  0.83299015  0.49144973  0.52913022  1
  O  O458  1  0.83309260  0.49059151  0.86397968  1
  O  O459  1  0.82934821  0.99113771  0.19725330  1
  O  O460  1  0.83372746  0.98989540  0.52937892  1
  O  O461  1  0.83472991  0.99390066  0.86326112  1
