# generated using pymatgen
data_Na31Fe20(SO4)36
_symmetry_space_group_name_H-M   'P 1'
_cell_length_a   18.07095504
_cell_length_b   18.07438976
_cell_length_c   19.70266057
_cell_angle_alpha   107.62270852
_cell_angle_beta   107.58024531
_cell_angle_gamma   90.71067629
_symmetry_Int_Tables_number   1
_chemical_formula_structural   Na31Fe20(SO4)36
_chemical_formula_sum   'Na62 Fe40 S72 O288'
_cell_volume   5808.53414511
_cell_formula_units_Z   2
loop_
 _symmetry_equiv_pos_site_id
 _symmetry_equiv_pos_as_xyz
  1  'x, y, z'
loop_
 _atom_site_type_symbol
 _atom_site_label
 _atom_site_symmetry_multiplicity
 _atom_site_fract_x
 _atom_site_fract_y
 _atom_site_fract_z
 _atom_site_occupancy
  Na  Na0  1  0.13964845  0.36941211  0.09415729  1
  Na  Na1  1  0.16083772  0.34347076  0.42680366  1
  Na  Na2  1  0.12941553  0.35997197  0.74476340  1
  Na  Na3  1  0.12811735  0.87176034  0.08656755  1
  Na  Na4  1  0.12806425  0.87910326  0.41966089  1
  Na  Na5  1  0.12628872  0.86268854  0.74051999  1
  Na  Na6  1  0.64233826  0.36434465  0.08356333  1
  Na  Na7  1  0.64609176  0.36535241  0.42094919  1
  Na  Na8  1  0.63936789  0.35853315  0.75228939  1
  Na  Na9  1  0.63545868  0.86333964  0.08288436  1
  Na  Na10  1  0.63335704  0.86610069  0.41703758  1
  Na  Na11  1  0.62630365  0.86812447  0.74896155  1
  Na  Na12  1  0.36860113  0.14820221  0.26350904  1
  Na  Na13  1  0.36582107  0.14978335  0.58523868  1
  Na  Na14  1  0.36230376  0.13509480  0.91080325  1
  Na  Na15  1  0.36503925  0.63774349  0.25288215  1
  Na  Na16  1  0.34589521  0.62363248  0.57021835  1
  Na  Na17  1  0.36538817  0.63405777  0.91652885  1
  Na  Na18  1  0.87631972  0.16041590  0.27985048  1
  Na  Na19  1  0.86213987  0.13747627  0.58204686  1
  Na  Na20  1  0.86780627  0.13335310  0.91724673  1
  Na  Na21  1  0.86633068  0.62118098  0.24059667  1
  Na  Na22  1  0.87825967  0.62874942  0.58267197  1
  Na  Na23  1  0.86341683  0.63215635  0.91417509  1
  Na  Na24  1  0.47456719  0.51154880  0.41546237  1
  Na  Na25  1  0.98951234  0.05267232  0.11797609  1
  Na  Na26  1  0.99885637  0.47108883  0.56436962  1
  Na  Na27  1  0.98159788  0.49710437  0.10884480  1
  Na  Na28  1  0.98611914  0.00492792  0.76268849  1
  Na  Na29  1  0.51952467  0.49191954  0.06675918  1
  Na  Na30  1  0.43649608  0.49954027  0.72369043  1
  Na  Na31  1  0.48786571  0.01144817  0.42208614  1
  Na  Na32  1  0.49075197  0.01399034  0.07639257  1
  Na  Na33  1  0.50799422  0.99577395  0.24926075  1
  Na  Na34  1  0.05505659  0.48494344  0.38991162  1
  Na  Na35  1  0.51866643  0.48661325  0.24846914  1
  Na  Na36  1  0.00923784  1.00564260  0.55267014  1
  Na  Na37  1  0.53455341  0.47635012  0.90000258  1
  Na  Na38  1  0.48184299  1.00536052  0.60541219  1
  Na  Na39  1  0.50555117  1.00400241  0.89182027  1
  Na  Na40  1  0.51515928  0.48374189  0.58529707  1
  Na  Na41  1  0.00809135  0.49280652  0.91232500  1
  Na  Na42  1  0.27190538  0.27832900  0.65275397  1
  Na  Na43  1  0.76002509  0.25883129  -0.01601369  1
  Na  Na44  1  0.24602244  0.24674380  0.00503663  1
  Na  Na45  1  0.24318151  0.74938419  0.00424754  1
  Na  Na46  1  0.74295015  0.74007614  0.33374784  1
  Na  Na47  1  0.74995766  0.74513746  0.66805118  1
  Na  Na48  1  0.74383520  0.73689668  0.00503223  1
  Na  Na49  1  0.22766115  0.73515141  0.66495324  1
  Na  Na50  1  0.23678871  0.74092471  0.34510989  1
  Na  Na51  1  0.75437291  0.25567153  0.66853562  1
  Na  Na52  1  0.23364490  0.24543846  0.19253383  1
  Na  Na53  1  0.24299571  0.74658545  0.17224338  1
  Na  Na54  1  0.21177606  0.71718497  0.49844934  1
  Na  Na55  1  0.75107143  0.74825478  0.50257411  1
  Na  Na56  1  0.74901764  0.74769313  0.83419866  1
  Na  Na57  1  0.24491440  0.74922733  0.83545222  1
  Na  Na58  1  0.75363639  0.24834744  0.18196806  1
  Na  Na59  1  0.26600637  0.25912075  0.82141352  1
  Na  Na60  1  0.78691619  0.27842894  0.49184119  1
  Na  Na61  1  0.73905954  0.73363099  0.16958919  1
  Fe  Fe62  1  0.96470020  0.80052050  0.45479491  1
  Fe  Fe63  1  0.96312079  0.30750922  0.78669161  1
  Fe  Fe64  1  0.46556025  0.80952925  0.45258164  1
  Fe  Fe65  1  0.46686686  0.30409623  0.45030777  1
  Fe  Fe66  1  0.97202851  0.30297216  0.13140975  1
  Fe  Fe67  1  0.46088788  0.80424160  0.78244621  1
  Fe  Fe68  1  0.96636002  0.80673393  0.78920605  1
  Fe  Fe69  1  0.96252180  0.81635313  0.12523215  1
  Fe  Fe70  1  0.46535033  0.30606826  0.11898344  1
  Fe  Fe71  1  0.46395073  0.80856698  0.11524171  1
  Fe  Fe72  1  0.17997243  0.05642190  0.37688122  1
  Fe  Fe73  1  0.18671836  0.03637963  0.04856173  1
  Fe  Fe74  1  0.19214892  0.03664776  0.71449781  1
  Fe  Fe75  1  0.19480987  0.53461981  0.04569580  1
  Fe  Fe76  1  0.19441186  0.52799868  0.70945746  1
  Fe  Fe77  1  0.69519270  0.03420679  0.38438906  1
  Fe  Fe78  1  0.69399107  0.53456086  0.38222321  1
  Fe  Fe79  1  0.69246311  0.03580938  0.71838235  1
  Fe  Fe80  1  0.70386676  0.52753783  0.70784196  1
  Fe  Fe81  1  0.68962993  0.03710123  0.04820634  1
  Fe  Fe82  1  0.53431603  0.68772517  0.87552994  1
  Fe  Fe83  1  0.53933175  0.19376343  0.55444192  1
  Fe  Fe84  1  0.03200803  0.19780462  0.54087739  1
  Fe  Fe85  1  0.03351162  0.68854864  0.87600707  1
  Fe  Fe86  1  0.53280701  0.19806865  0.87443005  1
  Fe  Fe87  1  0.53107851  0.69543155  0.54767200  1
  Fe  Fe88  1  0.53799105  0.19427473  0.21751429  1
  Fe  Fe89  1  0.03475428  0.19488407  0.88166111  1
  Fe  Fe90  1  0.53260059  0.69221869  0.21010173  1
  Fe  Fe91  1  0.03653667  0.69660746  0.21530818  1
  Fe  Fe92  1  0.30210348  0.96657079  0.61468733  1
  Fe  Fe93  1  0.29455256  0.47192965  0.28821833  1
  Fe  Fe94  1  0.80438298  0.96555989  0.62116210  1
  Fe  Fe95  1  0.30973387  0.46481026  0.95540108  1
  Fe  Fe96  1  0.80895559  0.96321900  0.28707484  1
  Fe  Fe97  1  0.30659703  0.96689161  0.28406591  1
  Fe  Fe98  1  0.80098774  0.46796398  0.95803057  1
  Fe  Fe99  1  0.82660654  0.45993921  0.29657824  1
  Fe  Fe100  1  0.80630201  0.96627866  0.95551443  1
  Fe  Fe101  1  0.30364235  0.96702819  0.95036825  1
  S  S102  1  0.35851088  0.13979689  0.08383922  1
  S  S103  1  0.36680881  0.13407062  0.41635469  1
  S  S104  1  0.35994291  0.13638704  0.74847080  1
  S  S105  1  0.35825545  0.64434864  0.08258391  1
  S  S106  1  0.35889620  0.64616685  0.41434196  1
  S  S107  1  0.35419312  0.64579204  0.75126284  1
  S  S108  1  0.85197887  0.14361947  0.08376848  1
  S  S109  1  0.86107439  0.13220390  0.42202073  1
  S  S110  1  0.85972299  0.13848978  0.75234236  1
  S  S111  1  0.86297374  0.64223392  0.08273659  1
  S  S112  1  0.85338809  0.64207326  0.41310133  1
  S  S113  1  0.85988065  0.64339782  0.75034640  1
  S  S114  1  0.13980283  0.36293572  0.25024977  1
  S  S115  1  0.13799676  0.35791716  0.58695208  1
  S  S116  1  0.14243333  0.35841221  0.91706845  1
  S  S117  1  0.14237697  0.86454532  0.25151391  1
  S  S118  1  0.13736305  0.86581368  0.58017762  1
  S  S119  1  0.13968014  0.86008855  0.91747360  1
  S  S120  1  0.64166851  0.36034326  0.24773088  1
  S  S121  1  0.64590434  0.35569637  0.57935369  1
  S  S122  1  0.64139617  0.35895230  0.92212440  1
  S  S123  1  0.63830435  0.86159876  0.24800347  1
  S  S124  1  0.63769534  0.86025503  0.58570213  1
  S  S125  1  0.63687328  0.85945812  0.91622084  1
  S  S126  1  0.06620819  0.17266320  0.04398564  1
  S  S127  1  0.06252812  0.15850066  0.37556130  1
  S  S128  1  0.06715275  0.16694586  0.70993914  1
  S  S129  1  0.07002125  0.67200744  0.04117756  1
  S  S130  1  0.06481472  0.67586771  0.37391579  1
  S  S131  1  0.07069588  0.66959977  0.71154862  1
  S  S132  1  0.56254591  0.16853770  0.04066063  1
  S  S133  1  0.57143133  0.16537111  0.37638713  1
  S  S134  1  0.57065661  0.16491672  0.70733194  1
  S  S135  1  0.56121531  0.66870677  0.03841535  1
  S  S136  1  0.56555189  0.67196287  0.37456187  1
  S  S137  1  0.56584493  0.67009002  0.70782624  1
  S  S138  1  0.33271056  0.43514823  0.12577308  1
  S  S139  1  0.35084720  0.43508792  0.45804318  1
  S  S140  1  0.33255784  0.44012161  0.79670862  1
  S  S141  1  0.33323338  0.93597776  0.12313969  1
  S  S142  1  0.33790652  0.93265637  0.45772022  1
  S  S143  1  0.32523410  0.92955662  0.78925781  1
  S  S144  1  0.83276726  0.42598639  0.12506247  1
  S  S145  1  0.83031804  0.44118501  0.45361757  1
  S  S146  1  0.83106671  0.43294111  0.79651655  1
  S  S147  1  0.82415032  0.93315715  0.12142441  1
  S  S148  1  0.82532468  0.92539571  0.45783124  1
  S  S149  1  0.82619372  0.93071886  0.79161845  1
  S  S150  1  0.43978174  0.33142227  0.28810904  1
  S  S151  1  0.44802605  0.32936512  0.62272185  1
  S  S152  1  0.43182213  0.32747049  0.95819455  1
  S  S153  1  0.43522188  0.83417747  0.28888617  1
  S  S154  1  0.42442072  0.82681893  0.62039490  1
  S  S155  1  0.43244628  0.83376619  0.95604235  1
  S  S156  1  0.94552890  0.33553254  0.29566808  1
  S  S157  1  0.93362157  0.32543575  0.62678092  1
  S  S158  1  0.93582293  0.32990828  0.96307039  1
  S  S159  1  0.92650752  0.82323311  0.28732562  1
  S  S160  1  0.92786636  0.83325512  0.62780457  1
  S  S161  1  0.93084132  0.83000875  0.95879009  1
  S  S162  1  0.17709159  0.06880325  0.21146201  1
  S  S163  1  0.17583259  0.07979050  0.54715076  1
  S  S164  1  0.16938593  0.06690620  0.87675914  1
  S  S165  1  0.17166177  0.57308339  0.20537520  1
  S  S166  1  0.16617438  0.55239129  0.54512594  1
  S  S167  1  0.17198226  0.56731780  0.87719432  1
  S  S168  1  0.66595444  0.06589845  0.20664918  1
  S  S169  1  0.66869412  0.06391146  0.54483526  1
  S  S170  1  0.67058944  0.06650168  0.87865413  1
  S  S171  1  0.65748423  0.56453064  0.20555901  1
  S  S172  1  0.66110173  0.57051807  0.53880776  1
  S  S173  1  0.66955391  0.56540642  0.86939565  1
  O  O174  1  0.36786273  0.21824930  0.07502283  1
  O  O175  1  0.37573168  0.21021259  0.40439239  1
  O  O176  1  0.36226152  0.21303092  0.73879483  1
  O  O177  1  0.36749656  0.72255118  0.07205975  1
  O  O178  1  0.37380095  0.72253076  0.40126463  1
  O  O179  1  0.35873935  0.72850406  0.75029511  1
  O  O180  1  0.86886537  0.22223050  0.07586952  1
  O  O181  1  0.86526044  0.20957604  0.41519831  1
  O  O182  1  0.86920249  0.21849198  0.74765649  1
  O  O183  1  0.87748089  0.72080810  0.07391361  1
  O  O184  1  0.86287170  0.72262931  0.40646990  1
  O  O185  1  0.86806806  0.72800094  0.75233328  1
  O  O186  1  0.27830831  0.13006325  0.08809630  1
  O  O187  1  0.29048854  0.12110828  0.42575457  1
  O  O188  1  0.28442503  0.12251146  0.76434041  1
  O  O189  1  0.27702347  0.63589630  0.08571145  1
  O  O190  1  0.28234628  0.64335720  0.42418938  1
  O  O191  1  0.27568463  0.63242295  0.76077949  1
  O  O192  1  0.76760899  0.13797497  0.07967423  1
  O  O193  1  0.78716623  0.11821219  0.43987556  1
  O  O194  1  0.78306017  0.12718378  0.76238885  1
  O  O195  1  0.78727406  0.63837302  0.09471479  1
  O  O196  1  0.77100066  0.63668494  0.41772023  1
  O  O197  1  0.77940196  0.63329034  0.75724209  1
  O  O198  1  0.13811004  0.28282486  0.25099860  1
  O  O199  1  0.12185542  0.28132453  0.60239899  1
  O  O200  1  0.13338418  0.27909657  0.92440077  1
  O  O201  1  0.13503352  0.78382545  0.25715187  1
  O  O202  1  0.13265209  0.78764128  0.58665963  1
  O  O203  1  0.13114278  0.78013493  0.92374231  1
  O  O204  1  0.63332927  0.27934603  0.25074698  1
  O  O205  1  0.63449572  0.27839774  0.59156816  1
  O  O206  1  0.63050663  0.27776715  0.92775830  1
  O  O207  1  0.62918213  0.78193032  0.25494237  1
  O  O208  1  0.62764325  0.78198844  0.59543882  1
  O  O209  1  0.62743711  0.78014282  0.92395333  1
  O  O210  1  0.21228965  0.37917096  0.22918618  1
  O  O211  1  0.21617118  0.35900543  0.58106089  1
  O  O212  1  0.22120733  0.36747616  0.90877353  1
  O  O213  1  0.21792482  0.87161631  0.23486425  1
  O  O214  1  0.21222098  0.87875238  0.56423104  1
  O  O215  1  0.21985562  0.86971758  0.91104104  1
  O  O216  1  0.71902771  0.37413529  0.23911576  1
  O  O217  1  0.72196693  0.36361652  0.56989198  1
  O  O218  1  0.72690379  0.36918088  0.93012041  1
  O  O219  1  0.71586913  0.86937493  0.23709342  1
  O  O220  1  0.71760757  0.86745480  0.57925992  1
  O  O221  1  0.71549336  0.86766393  0.90748685  1
  O  O222  1  0.41665664  0.13190556  0.15259694  1
  O  O223  1  0.42812961  0.12517616  0.48358197  1
  O  O224  1  0.42306753  0.12932012  0.81526270  1
  O  O225  1  0.41307210  0.64106139  0.15448399  1
  O  O226  1  0.41979312  0.63717985  0.48132983  1
  O  O227  1  0.41446235  0.63704599  0.81911479  1
  O  O228  1  0.90101024  0.13412729  0.15366944  1
  O  O229  1  0.92632048  0.12093974  0.48658285  1
  O  O230  1  0.92198769  0.12699261  0.81748098  1
  O  O231  1  0.92561420  0.62963699  0.14689486  1
  O  O232  1  0.90948627  0.63289824  0.47891902  1
  O  O233  1  0.91699873  0.63484181  0.81990694  1
  O  O234  1  0.36951497  0.08005892  0.01647412  1
  O  O235  1  0.37780957  0.07331249  0.34878366  1
  O  O236  1  0.36551891  0.07509054  0.67972130  1
  O  O237  1  0.37085756  0.58393643  0.01839781  1
  O  O238  1  0.36566865  0.58433670  0.34658522  1
  O  O239  1  0.36398156  0.59258895  0.68336804  1
  O  O240  1  0.86465361  0.08332316  0.01755922  1
  O  O241  1  0.86201214  0.07273540  0.35096743  1
  O  O242  1  0.86638396  0.08127956  0.68198704  1
  O  O243  1  0.86542868  0.58234546  0.01234009  1
  O  O244  1  0.85591366  0.58540790  0.34099404  1
  O  O245  1  0.86749485  0.59136936  0.68191318  1
  O  O246  1  0.07377395  0.37095192  0.18201877  1
  O  O247  1  0.07722193  0.36769234  0.52370203  1
  O  O248  1  0.08237298  0.36753491  0.85024434  1
  O  O249  1  0.07867533  0.87240876  0.18629064  1
  O  O250  1  0.07273199  0.87772906  0.51695923  1
  O  O251  1  0.08196095  0.86839726  0.84917433  1
  O  O252  1  0.58017680  0.36995187  0.18061212  1
  O  O253  1  0.58348786  0.36182677  0.51155488  1
  O  O254  1  0.59353182  0.36587813  0.85025155  1
  O  O255  1  0.57767322  0.87192348  0.18159578  1
  O  O256  1  0.58090317  0.86619377  0.51551935  1
  O  O257  1  0.57694618  0.86826965  0.84846639  1
  O  O258  1  0.13775264  0.42108740  0.31870029  1
  O  O259  1  0.13490888  0.42046514  0.65952057  1
  O  O260  1  0.13509480  0.41737896  0.98580316  1
  O  O261  1  0.14317241  0.92218179  0.32277648  1
  O  O262  1  0.13402140  0.92465924  0.65133223  1
  O  O263  1  0.13277146  0.91767406  0.98645122  1
  O  O264  1  0.63022433  0.41636157  0.31613443  1
  O  O265  1  0.63697327  0.41745014  0.64653009  1
  O  O266  1  0.62225653  0.41531945  0.98464415  1
  O  O267  1  0.63117328  0.92010633  0.31704214  1
  O  O268  1  0.62771955  0.92020310  0.65182197  1
  O  O269  1  0.62899884  0.91839017  0.98433346  1
  O  O270  1  0.02479693  0.20235436  0.10035735  1
  O  O271  1  0.03528187  0.19313556  0.44364854  1
  O  O272  1  0.02782986  0.19736984  0.76899988  1
  O  O273  1  0.03724986  0.70155064  0.10380602  1
  O  O274  1  0.02486976  0.70649501  0.43085867  1
  O  O275  1  0.03521578  0.70006206  0.77507498  1
  O  O276  1  0.52400563  0.19479863  0.10077472  1
  O  O277  1  0.53611300  0.19593091  0.43723990  1
  O  O278  1  0.54080015  0.19523719  0.77042370  1
  O  O279  1  0.52656900  0.70457193  0.10106837  1
  O  O280  1  0.53274909  0.70448870  0.43767372  1
  O  O281  1  0.52720930  0.69912444  0.76848091  1
  O  O282  1  0.30415127  0.47368822  0.06539752  1
  O  O283  1  0.32642606  0.46531971  0.39244911  1
  O  O284  1  0.29715297  0.47823389  0.73825613  1
  O  O285  1  0.30066937  0.97039211  0.06148906  1
  O  O286  1  0.31332619  0.96260379  0.39353495  1
  O  O287  1  0.29640511  0.96268398  0.72647102  1
  O  O288  1  0.82169512  0.47010584  0.07139134  1
  O  O289  1  0.79196638  0.47482605  0.38800962  1
  O  O290  1  0.80673945  0.47172006  0.73879526  1
  O  O291  1  0.79225825  0.97202503  0.06163406  1
  O  O292  1  0.79388555  0.95695790  0.39373698  1
  O  O293  1  0.79540625  0.96774684  0.73075282  1
  O  O294  1  0.47299630  0.29511893  0.22416214  1
  O  O295  1  0.47327697  0.28720713  0.55351311  1
  O  O296  1  0.46618036  0.29805354  0.89799222  1
  O  O297  1  0.47085402  0.80193043  0.22755382  1
  O  O298  1  0.46452353  0.79899564  0.56149755  1
  O  O299  1  0.46754285  0.80296508  0.89491256  1
  O  O300  1  0.96658833  0.29761994  0.22492366  1
  O  O301  1  0.96492371  0.28044578  0.56542629  1
  O  O302  1  0.97534250  0.30229011  0.90326224  1
  O  O303  1  0.96805213  0.79603722  0.22884367  1
  O  O304  1  0.95995280  0.81054722  0.56579644  1
  O  O305  1  0.97144112  0.80312248  0.90069305  1
  O  O306  1  0.20882410  0.03232299  0.27350083  1
  O  O307  1  0.19907762  0.03814304  0.60525209  1
  O  O308  1  0.19737980  0.03024595  0.93820480  1
  O  O309  1  0.19986558  0.54185711  0.26770128  1
  O  O310  1  0.20248766  0.53027744  0.61624165  1
  O  O311  1  0.20276582  0.52903812  0.93721105  1
  O  O312  1  0.69585706  0.03212925  0.26913889  1
  O  O313  1  0.69843022  0.02600649  0.60496417  1
  O  O314  1  0.69681528  0.02592943  0.93753082  1
  O  O315  1  0.68078034  0.53765012  0.27221653  1
  O  O316  1  0.68693285  0.53884841  0.60122524  1
  O  O317  1  0.69714690  0.52931532  0.92919357  1
  O  O318  1  0.08499828  0.09267450  0.04486351  1
  O  O319  1  0.06786142  0.07245797  0.36588079  1
  O  O320  1  0.08085871  0.08366430  0.70419998  1
  O  O321  1  0.08862325  0.58980716  0.03301198  1
  O  O322  1  0.09426448  0.60257495  0.37876420  1
  O  O323  1  0.10267988  0.59432850  0.71689130  1
  O  O324  1  0.57726658  0.08419603  0.03239941  1
  O  O325  1  0.58467197  0.08107582  0.37055380  1
  O  O326  1  0.58889043  0.08181842  0.70095139  1
  O  O327  1  0.56909798  0.58646544  0.03027010  1
  O  O328  1  0.58032196  0.58966795  0.36906592  1
  O  O329  1  0.58641901  0.59012261  0.70263005  1
  O  O330  1  0.41515819  0.41861139  0.13173914  1
  O  O331  1  0.43423204  0.41313557  0.46125632  1
  O  O332  1  0.41387141  0.43046835  0.79917558  1
  O  O333  1  0.41615015  0.92035542  0.12641480  1
  O  O334  1  0.42380997  0.91929603  0.47131775  1
  O  O335  1  0.40660873  0.90969232  0.79591795  1
  O  O336  1  0.91394640  0.40023142  0.13573475  1
  O  O337  1  0.90748508  0.42362425  0.44842347  1
  O  O338  1  0.91346370  0.41267853  0.80498619  1
  O  O339  1  0.90572728  0.91870447  0.12442907  1
  O  O340  1  0.90595987  0.90598490  0.46302147  1
  O  O341  1  0.90686184  0.91251366  0.79449512  1
  O  O342  1  0.43241408  0.41473920  0.29329585  1
  O  O343  1  0.43662501  0.40926446  0.61975867  1
  O  O344  1  0.41395638  0.41014388  0.96501353  1
  O  O345  1  0.42125411  0.91697411  0.29309938  1
  O  O346  1  0.40594266  0.90775755  0.62426219  1
  O  O347  1  0.41410824  0.91564127  0.96065294  1
  O  O348  1  0.93015006  0.41849319  0.29793653  1
  O  O349  1  0.92199994  0.40265577  0.62100778  1
  O  O350  1  0.92066860  0.41271146  0.97084794  1
  O  O351  1  0.90180381  0.90015437  0.28519734  1
  O  O352  1  0.90930600  0.91703647  0.64185841  1
  O  O353  1  0.90872050  0.90971553  0.96302852  1
  O  O354  1  0.10028780  0.09046985  0.21115701  1
  O  O355  1  0.09439389  0.10061933  0.54357307  1
  O  O356  1  0.08841826  0.08690393  0.87037401  1
  O  O357  1  0.08935094  0.59123810  0.19471008  1
  O  O358  1  0.08294850  0.55923867  0.53459414  1
  O  O359  1  0.09063921  0.58302979  0.87421562  1
  O  O360  1  0.58250563  0.08228765  0.20143384  1
  O  O361  1  0.58655591  0.08065885  0.53908141  1
  O  O362  1  0.59151005  0.08989334  0.87687963  1
  O  O363  1  0.57265417  0.58391151  0.19466076  1
  O  O364  1  0.57654680  0.58610241  0.52758068  1
  O  O365  1  0.58586214  0.58167185  0.86265849  1
  O  O366  1  0.13823792  0.22501793  0.06192540  1
  O  O367  1  0.14247390  0.19535803  0.39268642  1
  O  O368  1  0.14048589  0.21680242  0.73010500  1
  O  O369  1  0.14095360  0.72473846  0.05585185  1
  O  O370  1  0.13060102  0.73627566  0.38771923  1
  O  O371  1  0.13721964  0.72883687  0.72722447  1
  O  O372  1  0.63488970  0.21958956  0.06156048  1
  O  O373  1  0.64343667  0.21266977  0.38908427  1
  O  O374  1  0.63930675  0.21327963  0.71265780  1
  O  O375  1  0.63629266  0.71676671  0.05667957  1
  O  O376  1  0.63718454  0.72275969  0.38874184  1
  O  O377  1  0.63550164  0.72595384  0.72644424  1
  O  O378  1  0.28105765  0.36300020  0.10571252  1
  O  O379  1  0.30029047  0.36665165  0.44713055  1
  O  O380  1  0.28419621  0.36572650  0.77916422  1
  O  O381  1  0.28454728  0.86345057  0.10929885  1
  O  O382  1  0.28876478  0.86108660  0.44425437  1
  O  O383  1  0.27164214  0.86116717  0.77731455  1
  O  O384  1  0.77489149  0.35688254  0.09944779  1
  O  O385  1  0.77703015  0.37108019  0.43778884  1
  O  O386  1  0.77800969  0.36225130  0.77901211  1
  O  O387  1  0.77393881  0.85907758  0.10132296  1
  O  O388  1  0.77188717  0.85614900  0.44554162  1
  O  O389  1  0.77291087  0.86008937  0.77516985  1
  O  O390  1  0.36475182  0.28634018  0.27170120  1
  O  O391  1  0.37505098  0.28470637  0.61334366  1
  O  O392  1  0.35976232  0.27717247  0.94490568  1
  O  O393  1  0.36245919  0.78549469  0.27342079  1
  O  O394  1  0.35412354  0.77370113  0.60350510  1
  O  O395  1  0.36161825  0.78260583  0.94301854  1
  O  O396  1  0.87196552  0.29113211  0.28682758  1
  O  O397  1  0.86081684  0.27783939  0.61762978  1
  O  O398  1  0.86549217  0.27646652  0.94309981  1
  O  O399  1  0.85828409  0.76563266  0.26867983  1
  O  O400  1  0.85716227  0.78063991  0.61349310  1
  O  O401  1  0.86103847  0.77442928  0.94013471  1
  O  O402  1  0.23424859  0.13386411  0.22320744  1
  O  O403  1  0.23045035  0.14942379  0.56842666  1
  O  O404  1  0.22348990  0.13704237  0.89432605  1
  O  O405  1  0.22342627  0.64475741  0.21892891  1
  O  O406  1  0.21142658  0.62952552  0.56045384  1
  O  O407  1  0.22319793  0.64043274  0.89641174  1
  O  O408  1  0.71562985  0.13565337  0.21760446  1
  O  O409  1  0.72051456  0.13476256  0.56222591  1
  O  O410  1  0.72718938  0.13349044  0.89536195  1
  O  O411  1  0.70827465  0.63645119  0.21958443  1
  O  O412  1  0.71049311  0.64313916  0.55290190  1
  O  O413  1  0.71873357  0.64018423  0.88777971  1
  O  O414  1  0.49121548  0.33247622  0.03272897  1
  O  O415  1  0.49836118  0.32546083  0.35729234  1
  O  O416  1  0.51071174  0.33020023  0.69014920  1
  O  O417  1  0.49298519  0.83833533  0.02905285  1
  O  O418  1  0.49378334  0.83653566  0.36192344  1
  O  O419  1  0.48392366  0.82996284  0.69365405  1
  O  O420  1  0.99338065  0.33004078  0.03692524  1
  O  O421  1  1.01164202  0.33925288  0.36080569  1
  O  O422  1  0.99271562  0.32948250  0.70142338  1
  O  O423  1  0.98886506  0.83294932  0.03247555  1
  O  O424  1  0.98411246  0.83074794  0.36150372  1
  O  O425  1  0.98913640  0.83266165  0.69904355  1
  O  O426  1  0.17207355  0.00561702  0.13839893  1
  O  O427  1  0.17392650  0.02246283  0.47428593  1
  O  O428  1  0.16716631  0.00700629  0.80462555  1
  O  O429  1  0.17095414  0.51175657  0.13333145  1
  O  O430  1  0.17875563  0.49248425  0.48195543  1
  O  O431  1  0.17278327  0.51044673  0.80482889  1
  O  O432  1  0.65932997  0.00422030  0.13327818  1
  O  O433  1  0.66568053  0.00458698  0.47159881  1
  O  O434  1  0.66495780  0.00618859  0.80536844  1
  O  O435  1  0.65585954  0.50208141  0.13768481  1
  O  O436  1  0.66161978  0.51016789  0.46755835  1
  O  O437  1  0.67005738  0.50946191  0.79637485  1
  O  O438  1  0.00478348  0.16701763  0.31004743  1
  O  O439  1  0.01131426  0.16520541  0.63563331  1
  O  O440  1  0.01079075  0.16667924  0.96825235  1
  O  O441  1  0.00696018  0.66538051  0.29687572  1
  O  O442  1  0.01028368  0.65840980  0.64077422  1
  O  O443  1  0.00961465  0.66963431  0.96900702  1
  O  O444  1  0.51077212  0.16124207  0.30281308  1
  O  O445  1  0.50541769  0.15628645  0.63497864  1
  O  O446  1  0.50532890  0.16781146  0.96771798  1
  O  O447  1  0.50553862  0.67142330  0.30299316  1
  O  O448  1  0.50597759  0.66898152  0.63614728  1
  O  O449  1  0.50472829  0.67544050  0.96755536  1
  O  O450  1  0.33280167  0.49266055  0.19814983  1
  O  O451  1  0.36274290  0.50010948  0.52753747  1
  O  O452  1  0.33261759  0.49558873  0.87135071  1
  O  O453  1  0.33802423  0.99494975  0.19628452  1
  O  O454  1  0.33744202  0.99464599  0.52840726  1
  O  O455  1  0.33036728  0.99256252  0.86164680  1
  O  O456  1  0.82997082  0.48164489  0.19732967  1
  O  O457  1  0.83340303  0.50194857  0.52336421  1
  O  O458  1  0.83487688  0.49054992  0.87151516  1
  O  O459  1  0.82289242  0.98911473  0.19336428  1
  O  O460  1  0.82903048  0.98804147  0.52923713  1
  O  O461  1  0.82855171  0.98999998  0.86406446  1
