# generated using pymatgen
data_Na31Fe20(SO4)36
_symmetry_space_group_name_H-M   'P 1'
_cell_length_a   18.07903818
_cell_length_b   18.07549466
_cell_length_c   19.71028894
_cell_angle_alpha   107.55410260
_cell_angle_beta   107.58466362
_cell_angle_gamma   90.70690714
_symmetry_Int_Tables_number   1
_chemical_formula_structural   Na31Fe20(SO4)36
_chemical_formula_sum   'Na62 Fe40 S72 O288'
_cell_volume   5816.11710366
_cell_formula_units_Z   2
loop_
 _symmetry_equiv_pos_site_id
 _symmetry_equiv_pos_as_xyz
  1  'x, y, z'
loop_
 _atom_site_type_symbol
 _atom_site_label
 _atom_site_symmetry_multiplicity
 _atom_site_fract_x
 _atom_site_fract_y
 _atom_site_fract_z
 _atom_site_occupancy
  Na  Na0  1  0.13220674  0.37123416  0.08944250  1
  Na  Na1  1  0.12228635  0.33875524  0.39248177  1
  Na  Na2  1  0.13203946  0.35348162  0.73702983  1
  Na  Na3  1  0.12955437  0.85977839  0.08334319  1
  Na  Na4  1  0.13256802  0.87501612  0.41650284  1
  Na  Na5  1  0.13480881  0.86977406  0.75239918  1
  Na  Na6  1  0.63923616  0.37022299  0.08614926  1
  Na  Na7  1  0.62534390  0.35802560  0.40115519  1
  Na  Na8  1  0.62808056  0.36542086  0.74400890  1
  Na  Na9  1  0.65022006  0.87109009  0.10419854  1
  Na  Na10  1  0.65411198  0.84913651  0.41227976  1
  Na  Na11  1  0.63570434  0.86141874  0.74686882  1
  Na  Na12  1  0.36773669  0.14418954  0.25956841  1
  Na  Na13  1  0.35266577  0.12823504  0.56145085  1
  Na  Na14  1  0.36497024  0.13636782  0.91809045  1
  Na  Na15  1  0.36097368  0.63710162  0.24492062  1
  Na  Na16  1  0.36004473  0.62744791  0.58077430  1
  Na  Na17  1  0.37107826  0.63728874  0.92289403  1
  Na  Na18  1  0.87124260  0.12797580  0.24983679  1
  Na  Na19  1  0.87452454  0.14719748  0.59728986  1
  Na  Na20  1  0.86466236  0.13493196  0.91675067  1
  Na  Na21  1  0.86227379  0.62868610  0.24192278  1
  Na  Na22  1  0.86658728  0.62881824  0.57573195  1
  Na  Na23  1  0.87386901  0.63218387  0.92900781  1
  Na  Na24  1  0.98454329  0.01672501  0.75259298  1
  Na  Na25  1  1.01387712  0.45998227  0.80174188  1
  Na  Na26  1  0.95304423  0.00855503  0.38364230  1
  Na  Na27  1  0.48673673  0.50886019  0.41907816  1
  Na  Na28  1  0.44975271  0.50499229  0.73783552  1
  Na  Na29  1  0.50069125  0.50884684  0.08360224  1
  Na  Na30  1  0.48946850  0.00849623  0.74168647  1
  Na  Na31  1  0.48682905  0.04377366  0.09676123  1
  Na  Na32  1  0.98245250  0.50776600  0.08565880  1
  Na  Na33  1  0.51636171  0.98642756  0.92042929  1
  Na  Na34  1  0.50943521  1.00114773  0.26305755  1
  Na  Na35  1  0.01339604  0.99391356  0.57485511  1
  Na  Na36  1  0.51638773  1.00107965  0.55862185  1
  Na  Na37  1  0.50827859  0.48494478  0.24899704  1
  Na  Na38  1  0.49834807  0.48526816  0.58314285  1
  Na  Na39  1  0.00527360  0.98936420  0.94640489  1
  Na  Na40  1  0.55149782  0.49450377  0.92909053  1
  Na  Na41  1  0.01783952  0.97583418  0.22879354  1
  Na  Na42  1  0.76438510  0.75375363  0.00817834  1
  Na  Na43  1  0.25417306  0.75854836  0.32468652  1
  Na  Na44  1  0.76988394  0.26749834  0.66583774  1
  Na  Na45  1  0.23740469  0.24564715  0.00901176  1
  Na  Na46  1  0.24082573  0.74461808  0.67178921  1
  Na  Na47  1  0.26075921  0.26298600  0.65226777  1
  Na  Na48  1  0.74321670  0.24407382  0.32769863  1
  Na  Na49  1  0.76081416  0.75821038  0.65093370  1
  Na  Na50  1  0.24167721  0.73948895  0.01501750  1
  Na  Na51  1  0.75078142  0.24599604  -0.00123742  1
  Na  Na52  1  0.75231122  0.75072417  0.83410139  1
  Na  Na53  1  0.74858774  0.73987268  0.17820413  1
  Na  Na54  1  0.24910812  0.74820389  0.50015087  1
  Na  Na55  1  0.24561743  0.74544551  0.84285991  1
  Na  Na56  1  0.74351189  0.24988091  0.16831454  1
  Na  Na57  1  0.76099584  0.25802646  0.82451846  1
  Na  Na58  1  0.25404920  0.25423318  0.47731877  1
  Na  Na59  1  0.24958280  0.24944396  0.83419169  1
  Na  Na60  1  0.75633954  0.26232120  0.49624998  1
  Na  Na61  1  0.22586795  0.23762723  0.19032601  1
  Fe  Fe62  1  0.46507654  0.30405044  0.78235720  1
  Fe  Fe63  1  0.46725888  0.30144027  0.44532986  1
  Fe  Fe64  1  0.46871438  0.30015025  0.11899885  1
  Fe  Fe65  1  0.96599164  0.31308770  0.45617183  1
  Fe  Fe66  1  0.96039045  0.80570489  0.44167410  1
  Fe  Fe67  1  0.96651438  0.30366932  0.13154465  1
  Fe  Fe68  1  0.46656873  0.80453778  0.44657809  1
  Fe  Fe69  1  0.46335586  0.81132058  0.12169953  1
  Fe  Fe70  1  0.96685728  0.80576531  0.78448399  1
  Fe  Fe71  1  0.46564569  0.80962092  0.78694629  1
  Fe  Fe72  1  0.69706987  0.03728572  0.05685836  1
  Fe  Fe73  1  0.19849384  0.53048230  0.70473819  1
  Fe  Fe74  1  0.19209352  0.03537736  0.71354675  1
  Fe  Fe75  1  0.70431105  0.03416461  0.37802304  1
  Fe  Fe76  1  0.68986548  0.53812346  0.71434869  1
  Fe  Fe77  1  0.19285074  0.53414592  0.04463142  1
  Fe  Fe78  1  0.18921911  0.53463330  0.37824677  1
  Fe  Fe79  1  0.69026716  0.54194363  0.38381227  1
  Fe  Fe80  1  0.19238344  0.03888060  0.05678245  1
  Fe  Fe81  1  0.69499109  0.03045131  0.71373271  1
  Fe  Fe82  1  0.03414130  0.69013696  0.87807562  1
  Fe  Fe83  1  0.02907099  0.20297994  0.87997052  1
  Fe  Fe84  1  0.53585678  0.69636296  0.88576218  1
  Fe  Fe85  1  0.03179191  0.68940298  0.53810584  1
  Fe  Fe86  1  0.53328698  0.69448502  0.54935206  1
  Fe  Fe87  1  0.03599322  0.19256710  0.54653381  1
  Fe  Fe88  1  0.53326839  0.69411029  0.21886484  1
  Fe  Fe89  1  0.53574443  0.18798840  0.87755897  1
  Fe  Fe90  1  0.03632623  0.69844684  0.20505913  1
  Fe  Fe91  1  0.54117910  0.18880660  0.54355758  1
  Fe  Fe92  1  0.80821593  0.96063654  0.60711843  1
  Fe  Fe93  1  0.81002954  0.46639718  0.62431634  1
  Fe  Fe94  1  0.30452006  0.46433308  0.28347043  1
  Fe  Fe95  1  0.31120710  0.46264896  0.95293159  1
  Fe  Fe96  1  0.30584394  0.96843610  0.95527426  1
  Fe  Fe97  1  0.30158589  0.96637748  0.61240086  1
  Fe  Fe98  1  0.80579440  0.47323586  0.29079256  1
  Fe  Fe99  1  0.79813091  0.46583209  0.95747516  1
  Fe  Fe100  1  0.30258544  0.96361687  0.28918779  1
  Fe  Fe101  1  0.81460527  0.96452837  0.96036311  1
  S  S102  1  0.35284708  0.14402400  0.08188286  1
  S  S103  1  0.36886894  0.13284411  0.41516248  1
  S  S104  1  0.35974565  0.13895962  0.74750910  1
  S  S105  1  0.36330544  0.63739849  0.08095284  1
  S  S106  1  0.35968825  0.63886051  0.41657742  1
  S  S107  1  0.36072385  0.64807154  0.75442898  1
  S  S108  1  0.85776429  0.14171848  0.08180646  1
  S  S109  1  0.85797848  0.15122243  0.42453148  1
  S  S110  1  0.85766421  0.13608161  0.75214115  1
  S  S111  1  0.86409703  0.63547449  0.08565855  1
  S  S112  1  0.85483564  0.64696384  0.41696414  1
  S  S113  1  0.85734446  0.64193396  0.74802172  1
  S  S114  1  0.13835962  0.36218580  0.25000843  1
  S  S115  1  0.14384797  0.35567049  0.58227036  1
  S  S116  1  0.14591970  0.36076281  0.91634793  1
  S  S117  1  0.14560364  0.85657016  0.24842358  1
  S  S118  1  0.13782847  0.85971007  0.58192751  1
  S  S119  1  0.14017422  0.86161824  0.91726650  1
  S  S120  1  0.63786288  0.36652909  0.25012673  1
  S  S121  1  0.63863850  0.36179495  0.58357657  1
  S  S122  1  0.63907558  0.35162978  0.91153078  1
  S  S123  1  0.63432235  0.86127182  0.25419758  1
  S  S124  1  0.63948320  0.85978842  0.58309658  1
  S  S125  1  0.64126965  0.85961101  0.91742194  1
  S  S126  1  0.06605086  0.17710004  0.04395405  1
  S  S127  1  0.05351703  0.16460087  0.37867411  1
  S  S128  1  0.06654645  0.16517557  0.71083892  1
  S  S129  1  0.07010752  0.66207459  0.03748461  1
  S  S130  1  0.07278361  0.67815312  0.37352002  1
  S  S131  1  0.07327460  0.67386266  0.71001646  1
  S  S132  1  0.56448850  0.16713730  0.03793961  1
  S  S133  1  0.57239761  0.16803195  0.37650005  1
  S  S134  1  0.56676664  0.16200284  0.70478746  1
  S  S135  1  0.56496609  0.67320630  0.04730356  1
  S  S136  1  0.56089952  0.66654059  0.37621501  1
  S  S137  1  0.56303828  0.67112585  0.70983769  1
  S  S138  1  0.33372251  0.43396032  0.12296858  1
  S  S139  1  0.33785347  0.43280004  0.45619936  1
  S  S140  1  0.33520007  0.43341297  0.79288819  1
  S  S141  1  0.32841563  0.93369038  0.12417936  1
  S  S142  1  0.33540560  0.92852659  0.45721027  1
  S  S143  1  0.33185655  0.93623433  0.79215903  1
  S  S144  1  0.82684400  0.42232548  0.12553762  1
  S  S145  1  0.82044113  0.43197930  0.45577393  1
  S  S146  1  0.81975142  0.43428867  0.79142810  1
  S  S147  1  0.83208741  0.93854703  0.12185995  1
  S  S148  1  0.84219438  0.94520199  0.46766797  1
  S  S149  1  0.83085112  0.93022722  0.79225301  1
  S  S150  1  0.42935713  0.33423512  0.28600961  1
  S  S151  1  0.43727639  0.32381145  0.61815266  1
  S  S152  1  0.43619886  0.32651905  0.95596991  1
  S  S153  1  0.42809902  0.82899253  0.29176146  1
  S  S154  1  0.43162492  0.83158106  0.62447879  1
  S  S155  1  0.43645585  0.83948815  0.96247071  1
  S  S156  1  0.92242608  0.32999188  0.29057486  1
  S  S157  1  0.93600328  0.33823543  0.62851937  1
  S  S158  1  0.92766986  0.32789175  0.96366930  1
  S  S159  1  0.93962705  0.82634678  0.28438863  1
  S  S160  1  0.93550516  0.83076084  0.62517637  1
  S  S161  1  0.93531474  0.82438360  0.95376045  1
  S  S162  1  0.17168722  0.05747243  0.20830669  1
  S  S163  1  0.16943602  0.06673886  0.54501324  1
  S  S164  1  0.16885034  0.06924806  0.87640834  1
  S  S165  1  0.17244760  0.57173112  0.20815708  1
  S  S166  1  0.17400820  0.57512914  0.54224371  1
  S  S167  1  0.17715564  0.56845960  0.87401873  1
  S  S168  1  0.66294653  0.06468219  0.20966437  1
  S  S169  1  0.68319513  0.07130123  0.54759774  1
  S  S170  1  0.66637772  0.06037703  0.87316877  1
  S  S171  1  0.65982708  0.56678348  0.20919958  1
  S  S172  1  0.66341939  0.56654773  0.54307628  1
  S  S173  1  0.66478759  0.56772734  0.87331462  1
  O  O174  1  0.36625270  0.22037621  0.06975969  1
  O  O175  1  0.38283123  0.20803466  0.40082280  1
  O  O176  1  0.36845333  0.21829116  0.74007098  1
  O  O177  1  0.37305230  0.71452901  0.06924981  1
  O  O178  1  0.36871406  0.71870021  0.41096626  1
  O  O179  1  0.36805672  0.73002158  0.75102361  1
  O  O180  1  0.87230886  0.22254717  0.07488750  1
  O  O181  1  0.86112527  0.23369192  0.42280869  1
  O  O182  1  0.86165922  0.21281335  0.74243968  1
  O  O183  1  0.87244506  0.70720697  0.06786395  1
  O  O184  1  0.86394891  0.72631471  0.41124511  1
  O  O185  1  0.86782925  0.72109866  0.74034174  1
  O  O186  1  0.26975858  0.13854871  0.08127710  1
  O  O187  1  0.29667325  0.13138455  0.43344080  1
  O  O188  1  0.28311199  0.13075409  0.75982898  1
  O  O189  1  0.28364517  0.62819977  0.08574808  1
  O  O190  1  0.28177521  0.62894788  0.42567769  1
  O  O191  1  0.28066195  0.63604019  0.75902812  1
  O  O192  1  0.77342460  0.13868968  0.08016595  1
  O  O193  1  0.77915338  0.13697295  0.43234184  1
  O  O194  1  0.78024915  0.12280087  0.76384521  1
  O  O195  1  0.79348703  0.62661730  0.10517108  1
  O  O196  1  0.77915261  0.63447011  0.42934892  1
  O  O197  1  0.77812155  0.63474498  0.75660257  1
  O  O198  1  0.13635767  0.28564299  0.25949194  1
  O  O199  1  0.12655611  0.28148460  0.59924639  1
  O  O200  1  0.13291310  0.27977105  0.91963163  1
  O  O201  1  0.13476116  0.77094650  0.24561592  1
  O  O202  1  0.12930841  0.77973882  0.58739914  1
  O  O203  1  0.13336851  0.78198488  0.92438099  1
  O  O204  1  0.63165825  0.29181807  0.26296599  1
  O  O205  1  0.63268865  0.28529279  0.59731733  1
  O  O206  1  0.63185102  0.26932345  0.91336039  1
  O  O207  1  0.61756958  0.78582893  0.26686227  1
  O  O208  1  0.62794711  0.78311429  0.59553858  1
  O  O209  1  0.63277618  0.78002816  0.92474130  1
  O  O210  1  0.21147606  0.37744679  0.23167306  1
  O  O211  1  0.22188201  0.35427022  0.57468296  1
  O  O212  1  0.22884637  0.36698541  0.91437422  1
  O  O213  1  0.22965317  0.86440795  0.24717827  1
  O  O214  1  0.21699071  0.86941738  0.57360839  1
  O  O215  1  0.22006999  0.87290703  0.91056221  1
  O  O216  1  0.71589808  0.37940079  0.24115521  1
  O  O217  1  0.71968969  0.37223676  0.58041075  1
  O  O218  1  0.71799784  0.36390600  0.90476191  1
  O  O219  1  0.70274647  0.85831124  0.22942661  1
  O  O220  1  0.72046131  0.86719541  0.58112019  1
  O  O221  1  0.71953429  0.86865172  0.90855035  1
  O  O222  1  0.40622115  0.13566038  0.15045190  1
  O  O223  1  0.43401349  0.12145805  0.47828913  1
  O  O224  1  0.42094928  0.12916262  0.81387735  1
  O  O225  1  0.42128619  0.63094150  0.15053238  1
  O  O226  1  0.42024908  0.62945397  0.48366606  1
  O  O227  1  0.41805886  0.64123196  0.82487844  1
  O  O228  1  0.90967588  0.13203497  0.14896950  1
  O  O229  1  0.91665384  0.14214115  0.49289957  1
  O  O230  1  0.91886224  0.13004050  0.82066275  1
  O  O231  1  0.93307328  0.62908409  0.15136750  1
  O  O232  1  0.91732635  0.63810965  0.48323183  1
  O  O233  1  0.91635379  0.63188709  0.81460607  1
  O  O234  1  0.36361722  0.08220954  0.01494977  1
  O  O235  1  0.36763017  0.06979101  0.34430475  1
  O  O236  1  0.36639368  0.08005893  0.67879520  1
  O  O237  1  0.37547809  0.57616151  0.01582891  1
  O  O238  1  0.36762516  0.58087769  0.34779469  1
  O  O239  1  0.37398543  0.59266700  0.68912477  1
  O  O240  1  0.86447597  0.08475840  0.01131351  1
  O  O241  1  0.86739334  0.09764723  0.35654099  1
  O  O242  1  0.86809132  0.07444412  0.68653387  1
  O  O243  1  0.86953437  0.56833877  0.01968917  1
  O  O244  1  0.86050815  0.58915643  0.34696239  1
  O  O245  1  0.86146661  0.58401924  0.67791591  1
  O  O246  1  0.07266268  0.36788566  0.18308072  1
  O  O247  1  0.08550918  0.36299114  0.51390546  1
  O  O248  1  0.09294326  0.37292650  0.84944630  1
  O  O249  1  0.09158514  0.86921338  0.18235630  1
  O  O250  1  0.07774194  0.87153281  0.51686397  1
  O  O251  1  0.08202265  0.86869226  0.84825973  1
  O  O252  1  0.57799313  0.37013124  0.17943171  1
  O  O253  1  0.58246998  0.36552738  0.51214832  1
  O  O254  1  0.58067781  0.36061652  0.84250219  1
  O  O255  1  0.56646916  0.87917072  0.19682209  1
  O  O256  1  0.58362623  0.86527968  0.51234871  1
  O  O257  1  0.58157858  0.86645633  0.84789171  1
  O  O258  1  0.13341823  0.42274616  0.31839245  1
  O  O259  1  0.14026805  0.41958547  0.65020109  1
  O  O260  1  0.13994550  0.41656977  0.98713687  1
  O  O261  1  0.13801271  0.90740815  0.31817421  1
  O  O262  1  0.13281976  0.91719303  0.65247806  1
  O  O263  1  0.12944669  0.92087343  0.98346881  1
  O  O264  1  0.62504359  0.43030408  0.31415413  1
  O  O265  1  0.62384528  0.42326896  0.64680322  1
  O  O266  1  0.62763924  0.40631101  0.97817757  1
  O  O267  1  0.64303086  0.92245919  0.32753655  1
  O  O268  1  0.62672360  0.92178509  0.64762945  1
  O  O269  1  0.63014102  0.91838670  0.98345672  1
  O  O270  1  0.02771271  0.20579596  0.10219463  1
  O  O271  1  0.02076841  0.20718565  0.44393706  1
  O  O272  1  0.02912518  0.18703067  0.76959679  1
  O  O273  1  0.03508531  0.68799312  0.09856908  1
  O  O274  1  0.02843869  0.70542982  0.42921847  1
  O  O275  1  0.03278521  0.70058270  0.76927876  1
  O  O276  1  0.52705994  0.19458191  0.09658650  1
  O  O277  1  0.54635219  0.20514598  0.44511772  1
  O  O278  1  0.52774768  0.19166323  0.76376101  1
  O  O279  1  0.53325785  0.71253124  0.11061640  1
  O  O280  1  0.52842438  0.70089312  0.44049598  1
  O  O281  1  0.52793727  0.70089736  0.77188935  1
  O  O282  1  0.30283827  0.47210391  0.06323828  1
  O  O283  1  0.30403624  0.46450724  0.39126510  1
  O  O284  1  0.30927382  0.47227683  0.73506529  1
  O  O285  1  0.29928260  0.97646920  0.06744744  1
  O  O286  1  0.31226722  0.96047243  0.39434069  1
  O  O287  1  0.30172073  0.97047941  0.72988966  1
  O  O288  1  0.80215685  0.45147419  0.06119079  1
  O  O289  1  0.79194956  0.47275638  0.39752426  1
  O  O290  1  0.79031418  0.47428205  0.73149922  1
  O  O291  1  0.79224966  0.97392690  0.05697688  1
  O  O292  1  0.80950509  0.97481278  0.40424717  1
  O  O293  1  0.79987217  0.96402655  0.73007122  1
  O  O294  1  0.46270883  0.31269802  0.22425544  1
  O  O295  1  0.47308750  0.29002942  0.55693966  1
  O  O296  1  0.47247520  0.29727998  0.89448424  1
  O  O297  1  0.45515558  0.79401720  0.22515740  1
  O  O298  1  0.46812226  0.80120438  0.56399311  1
  O  O299  1  0.47328904  0.81001411  0.90149509  1
  O  O300  1  0.96012719  0.30424463  0.23032818  1
  O  O301  1  0.96897304  0.30971119  0.56516126  1
  O  O302  1  0.97019019  0.30321233  0.90883489  1
  O  O303  1  0.98068128  0.79067463  0.22809717  1
  O  O304  1  0.97143639  0.80190092  0.56450856  1
  O  O305  1  0.96848873  0.79355227  0.88816789  1
  O  O306  1  0.21021408  0.01927994  0.26668022  1
  O  O307  1  0.20188041  0.03281189  0.61054242  1
  O  O308  1  0.19685282  0.03131931  0.93619495  1
  O  O309  1  0.19714166  0.53622307  0.27012103  1
  O  O310  1  0.19946557  0.54182265  0.60402589  1
  O  O311  1  0.20513077  0.53005742  0.93396833  1
  O  O312  1  0.70363557  0.03504415  0.27164523  1
  O  O313  1  0.70872891  0.02911993  0.60568084  1
  O  O314  1  0.69446142  0.02648166  0.93503128  1
  O  O315  1  0.69814644  0.54044189  0.27658539  1
  O  O316  1  0.69449282  0.53028199  0.60374278  1
  O  O317  1  0.69138778  0.52911569  0.93147561  1
  O  O318  1  0.08840331  0.09689239  0.04092053  1
  O  O319  1  0.05714268  0.08301055  0.37810348  1
  O  O320  1  0.08139201  0.08008962  0.69796279  1
  O  O321  1  0.08751229  0.57948855  0.02934655  1
  O  O322  1  0.09387816  0.59973235  0.37268719  1
  O  O323  1  0.09916881  0.59694647  0.70888321  1
  O  O324  1  0.58528687  0.08580057  0.03467978  1
  O  O325  1  0.59803328  0.09010064  0.37848509  1
  O  O326  1  0.58277038  0.07917891  0.70069930  1
  O  O327  1  0.56725031  0.59006913  0.04079262  1
  O  O328  1  0.57199104  0.58284735  0.37176337  1
  O  O329  1  0.57770725  0.58807433  0.70117449  1
  O  O330  1  0.41529307  0.41674938  0.12519031  1
  O  O331  1  0.41934881  0.41099805  0.45503936  1
  O  O332  1  0.41787430  0.41417350  0.79787595  1
  O  O333  1  0.41143827  0.92047850  0.12950925  1
  O  O334  1  0.41805946  0.90867848  0.46951210  1
  O  O335  1  0.41521988  0.92091272  0.79839701  1
  O  O336  1  0.90969534  0.40232342  0.13718500  1
  O  O337  1  0.89884006  0.40985797  0.45856368  1
  O  O338  1  0.89671258  0.41172560  0.79272790  1
  O  O339  1  0.90919641  0.92249461  0.11645864  1
  O  O340  1  0.91958744  0.91721803  0.46310950  1
  O  O341  1  0.91440246  0.91656616  0.79928617  1
  O  O342  1  0.41574152  0.41975997  0.30088788  1
  O  O343  1  0.42904954  0.40645836  0.62576976  1
  O  O344  1  0.42123871  0.40950447  0.96410668  1
  O  O345  1  0.40521023  0.90835869  0.29094566  1
  O  O346  1  0.41103705  0.91242633  0.62800029  1
  O  O347  1  0.41954798  0.92214344  0.96689113  1
  O  O348  1  0.89932405  0.40902713  0.29622978  1
  O  O349  1  0.91186671  0.41810488  0.63293092  1
  O  O350  1  0.90696291  0.40860264  0.96997351  1
  O  O351  1  0.92395806  0.90409467  0.27991995  1
  O  O352  1  0.91777402  0.91344320  0.63102829  1
  O  O353  1  0.91226496  0.90392366  0.95196008  1
  O  O354  1  0.09506457  0.07434084  0.21271666  1
  O  O355  1  0.08866709  0.08561812  0.54509096  1
  O  O356  1  0.08752268  0.08797343  0.86960153  1
  O  O357  1  0.09119464  0.59412888  0.19913321  1
  O  O358  1  0.09299840  0.59580663  0.53151184  1
  O  O359  1  0.09515079  0.58591988  0.86702503  1
  O  O360  1  0.58082289  0.07178686  0.20662647  1
  O  O361  1  0.60084258  0.08650320  0.54147498  1
  O  O362  1  0.58214359  0.07559756  0.86458611  1
  O  O363  1  0.57797924  0.58534449  0.21216521  1
  O  O364  1  0.58077150  0.58322857  0.54032565  1
  O  O365  1  0.58193628  0.58608622  0.86851255  1
  O  O366  1  0.13638421  0.23164058  0.06096651  1
  O  O367  1  0.13084741  0.20796858  0.39773603  1
  O  O368  1  0.14031205  0.21504515  0.73087783  1
  O  O369  1  0.13999291  0.71449249  0.05240938  1
  O  O370  1  0.14261928  0.73472334  0.39529016  1
  O  O371  1  0.14155306  0.73308680  0.73019764  1
  O  O372  1  0.63385820  0.22031221  0.05128145  1
  O  O373  1  0.63928526  0.22179271  0.38403365  1
  O  O374  1  0.63884353  0.21272079  0.72245390  1
  O  O375  1  0.64133735  0.71528061  0.06120226  1
  O  O376  1  0.63332052  0.71178611  0.38857798  1
  O  O377  1  0.63552281  0.72132195  0.72644362  1
  O  O378  1  0.28196307  0.36351084  0.10743198  1
  O  O379  1  0.28750231  0.36380069  0.44604903  1
  O  O380  1  0.28337011  0.36128383  0.77575865  1
  O  O381  1  0.27817319  0.86064406  0.10188634  1
  O  O382  1  0.28230915  0.85933640  0.44409249  1
  O  O383  1  0.28187577  0.86434050  0.77754215  1
  O  O384  1  0.77430689  0.35147139  0.11165777  1
  O  O385  1  0.76344006  0.36297413  0.43697347  1
  O  O386  1  0.76272893  0.36429329  0.77109271  1
  O  O387  1  0.77957188  0.86642583  0.10443746  1
  O  O388  1  0.79017347  0.88368118  0.47095971  1
  O  O389  1  0.78140619  0.85669543  0.77566703  1
  O  O390  1  0.35698338  0.28493348  0.26948105  1
  O  O391  1  0.36295375  0.27544937  0.60006750  1
  O  O392  1  0.36368331  0.27564609  0.93758314  1
  O  O393  1  0.36292078  0.77721577  0.28820217  1
  O  O394  1  0.36228304  0.77869095  0.61124300  1
  O  O395  1  0.36422788  0.78862800  0.94528891  1
  O  O396  1  0.85393670  0.27304886  0.27344297  1
  O  O397  1  0.86532099  0.28355570  0.61222895  1
  O  O398  1  0.85627360  0.27260807  0.94179464  1
  O  O399  1  0.86966047  0.77378975  0.27027615  1
  O  O400  1  0.86587448  0.77906274  0.61185593  1
  O  O401  1  0.86392878  0.77163835  0.93727771  1
  O  O402  1  0.22489475  0.12559589  0.21780986  1
  O  O403  1  0.22082395  0.13879759  0.56241980  1
  O  O404  1  0.22261246  0.13991849  0.89347376  1
  O  O405  1  0.22820588  0.63916835  0.22413054  1
  O  O406  1  0.22800629  0.64710520  0.56008302  1
  O  O407  1  0.22974818  0.64157871  0.89560361  1
  O  O408  1  0.70596672  0.13900389  0.21703433  1
  O  O409  1  0.73359726  0.14542600  0.57180459  1
  O  O410  1  0.71550344  0.13263825  0.88742418  1
  O  O411  1  0.70592883  0.63657995  0.21482291  1
  O  O412  1  0.71335958  0.63792012  0.55782704  1
  O  O413  1  0.71660911  0.63922658  0.88950589  1
  O  O414  1  0.49416191  0.32518736  0.02769216  1
  O  O415  1  0.49000415  0.32903870  0.35527111  1
  O  O416  1  0.49309890  0.31936926  0.69072994  1
  O  O417  1  0.49457130  0.84114605  0.03490419  1
  O  O418  1  0.49512697  0.83800266  0.36157084  1
  O  O419  1  0.49222491  0.83845403  0.69847391  1
  O  O420  1  0.98221075  0.32967040  0.03981386  1
  O  O421  1  0.98284784  0.33293564  0.36244622  1
  O  O422  1  0.99643458  0.34289918  0.69917657  1
  O  O423  1  0.99615967  0.82912300  0.02241244  1
  O  O424  1  0.99548640  0.83454740  0.36191078  1
  O  O425  1  0.99558270  0.83636091  0.69922873  1
  O  O426  1  0.16455055  -0.00188796  0.13204146  1
  O  O427  1  0.16817590  0.00632330  0.47699289  1
  O  O428  1  0.16810141  0.01032872  0.80341775  1
  O  O429  1  0.16996920  0.50946277  0.13701232  1
  O  O430  1  0.17744752  0.51559168  0.47245434  1
  O  O431  1  0.17811264  0.51184931  0.80185805  1
  O  O432  1  0.66205503  0.00572134  0.13557041  1
  O  O433  1  0.68773781  0.01645156  0.47683401  1
  O  O434  1  0.66487457  0.00076637  0.80069729  1
  O  O435  1  0.64745423  0.50148794  0.13991188  1
  O  O436  1  0.65789242  0.50797939  0.46920596  1
  O  O437  1  0.65931115  0.51041793  0.79818698  1
  O  O438  1  -0.00120964  0.17067663  0.30965343  1
  O  O439  1  0.01064704  0.16980921  0.63937829  1
  O  O440  1  0.00906170  0.16984562  0.96837562  1
  O  O441  1  0.01855702  0.67468748  0.29807112  1
  O  O442  1  0.01524459  0.67099987  0.63704668  1
  O  O443  1  0.00992223  0.66105808  0.96515925  1
  O  O444  1  0.50511584  0.15749994  0.30951947  1
  O  O445  1  0.50980556  0.15744922  0.63035510  1
  O  O446  1  0.50542988  0.15892011  0.96244123  1
  O  O447  1  0.49858177  0.66631824  0.30615523  1
  O  O448  1  0.50365662  0.67269468  0.63861332  1
  O  O449  1  0.50791002  0.67871644  0.97558083  1
  O  O450  1  0.33819773  0.49275441  0.19682792  1
  O  O451  1  0.35084717  0.49629190  0.52700755  1
  O  O452  1  0.33976673  0.49029757  0.86768061  1
  O  O453  1  0.32920867  0.98736839  0.19895804  1
  O  O454  1  0.33632293  0.99133407  0.52772469  1
  O  O455  1  0.33323394  0.99552950  0.86432006  1
  O  O456  1  0.82483531  0.48566151  0.19374552  1
  O  O457  1  0.82254077  0.49008094  0.52893662  1
  O  O458  1  0.82027651  0.49114719  0.86444027  1
  O  O459  1  0.83283281  0.99759234  0.19139888  1
  O  O460  1  0.86160549  1.01012116  0.54205730  1
  O  O461  1  0.83047722  0.98869578  0.86428858  1
