# generated using pymatgen
data_Na31Fe20(SO4)36
_symmetry_space_group_name_H-M   'P 1'
_cell_length_a   18.06531734
_cell_length_b   18.07568684
_cell_length_c   19.71102118
_cell_angle_alpha   107.58404535
_cell_angle_beta   107.57126547
_cell_angle_gamma   90.70651872
_symmetry_Int_Tables_number   1
_chemical_formula_structural   Na31Fe20(SO4)36
_chemical_formula_sum   'Na62 Fe40 S72 O288'
_cell_volume   5811.38628618
_cell_formula_units_Z   2
loop_
 _symmetry_equiv_pos_site_id
 _symmetry_equiv_pos_as_xyz
  1  'x, y, z'
loop_
 _atom_site_type_symbol
 _atom_site_label
 _atom_site_symmetry_multiplicity
 _atom_site_fract_x
 _atom_site_fract_y
 _atom_site_fract_z
 _atom_site_occupancy
  Na  Na0  1  0.12112847  0.36801827  0.08262111  1
  Na  Na1  1  0.13355435  0.36706975  0.41911537  1
  Na  Na2  1  0.13060752  0.37002142  0.75083162  1
  Na  Na3  1  0.13281389  0.86493992  0.07940461  1
  Na  Na4  1  0.13284865  0.86791223  0.41904237  1
  Na  Na5  1  0.13238201  0.85014470  0.72959926  1
  Na  Na6  1  0.65269362  0.35764261  0.08765000  1
  Na  Na7  1  0.65023051  0.37194190  0.43625441  1
  Na  Na8  1  0.63362108  0.36045535  0.74504015  1
  Na  Na9  1  0.63563029  0.86136649  0.08213506  1
  Na  Na10  1  0.63532232  0.87855297  0.42158213  1
  Na  Na11  1  0.63406261  0.86521040  0.74962556  1
  Na  Na12  1  0.37570458  0.13523368  0.25552750  1
  Na  Na13  1  0.37651138  0.12732026  0.58053754  1
  Na  Na14  1  0.36657583  0.12476297  0.91543933  1
  Na  Na15  1  0.36510474  0.63493111  0.25039729  1
  Na  Na16  1  0.36161911  0.64012584  0.58935579  1
  Na  Na17  1  0.36495082  0.63136480  0.91289104  1
  Na  Na18  1  0.85369580  0.13829744  0.24271642  1
  Na  Na19  1  0.86106138  0.12860157  0.57305807  1
  Na  Na20  1  0.86609308  0.13744737  0.92304229  1
  Na  Na21  1  0.85954542  0.62884766  0.23817165  1
  Na  Na22  1  0.86229520  0.63462426  0.57945014  1
  Na  Na23  1  0.87556173  0.64992679  0.93277889  1
  Na  Na24  1  0.99041936  0.53160879  0.41988368  1
  Na  Na25  1  0.49104934  0.00898165  0.75060689  1
  Na  Na26  1  0.95309652  0.50440973  0.74291540  1
  Na  Na27  1  0.99744424  0.01523090  0.72647807  1
  Na  Na28  1  0.97510160  -0.00232700  0.43475363  1
  Na  Na29  1  0.52210252  0.48766243  0.07045749  1
  Na  Na30  1  0.47076945  0.00807102  0.06054898  1
  Na  Na31  1  0.49276759  0.50275643  0.42318242  1
  Na  Na32  1  0.98215066  0.00957933  0.08868499  1
  Na  Na33  1  0.01793120  0.98873827  0.91269266  1
  Na  Na34  1  0.51363350  0.48905106  0.24790739  1
  Na  Na35  1  -0.01375281  0.51399368  0.58288629  1
  Na  Na36  1  0.54965372  0.99094060  0.28214861  1
  Na  Na37  1  0.54367594  0.49583194  0.91045344  1
  Na  Na38  1  0.01271246  0.47632895  0.23179966  1
  Na  Na39  1  0.00119630  0.93594025  0.23440067  1
  Na  Na40  1  -0.01175684  0.49026146  0.94581754  1
  Na  Na41  1  0.51197379  0.47527202  0.60610890  1
  Na  Na42  1  0.24502492  0.24534964  0.33637575  1
  Na  Na43  1  0.24352306  0.74525697  0.34131315  1
  Na  Na44  1  0.72616385  0.23254020  0.67545078  1
  Na  Na45  1  0.75308205  0.74067627  0.01293414  1
  Na  Na46  1  0.23991975  0.24239267  0.00428082  1
  Na  Na47  1  0.76413190  0.25772608  -0.00525756  1
  Na  Na48  1  0.74896312  0.24832065  0.33298816  1
  Na  Na49  1  0.75518038  0.75447650  0.66205919  1
  Na  Na50  1  0.25362732  0.25162221  0.66789679  1
  Na  Na51  1  0.25958337  0.76268122  -0.00973310  1
  Na  Na52  1  0.24784901  0.24779992  0.83591402  1
  Na  Na53  1  0.26067645  0.76626864  0.81813581  1
  Na  Na54  1  0.24538455  0.24371558  0.17251048  1
  Na  Na55  1  0.75300030  0.74950133  0.83691178  1
  Na  Na56  1  0.22690589  0.74152893  0.52347850  1
  Na  Na57  1  0.25548097  0.75651057  0.16465780  1
  Na  Na58  1  0.25362226  0.24893305  0.50141431  1
  Na  Na59  1  0.75664330  0.75747850  0.48306540  1
  Na  Na60  1  0.73172202  0.23469771  0.51019641  1
  Na  Na61  1  0.73992792  0.73018358  0.17542437  1
  Fe  Fe62  1  0.96385253  0.31266309  0.45282451  1
  Fe  Fe63  1  0.46660078  0.30579699  0.11920647  1
  Fe  Fe64  1  0.96611676  0.79994833  0.45794536  1
  Fe  Fe65  1  0.45970441  0.81314196  0.78866088  1
  Fe  Fe66  1  0.96778332  0.80745926  0.78667108  1
  Fe  Fe67  1  0.95830968  0.30919974  0.78184867  1
  Fe  Fe68  1  0.46950221  0.30500161  0.78599823  1
  Fe  Fe69  1  0.46662001  0.80566438  0.11827037  1
  Fe  Fe70  1  0.46504886  0.81028159  0.45435692  1
  Fe  Fe71  1  0.47018870  0.30220720  0.45672281  1
  Fe  Fe72  1  0.68608060  0.03353926  0.04430393  1
  Fe  Fe73  1  0.19177497  0.53530056  0.38463511  1
  Fe  Fe74  1  0.19396617  0.03738644  0.37635995  1
  Fe  Fe75  1  0.70284387  0.53351816  0.71078294  1
  Fe  Fe76  1  0.19325470  0.03523461  0.71136153  1
  Fe  Fe77  1  0.19348089  0.53490773  0.04841991  1
  Fe  Fe78  1  0.68367480  0.03849017  0.70960636  1
  Fe  Fe79  1  0.69458569  0.53379327  0.38240951  1
  Fe  Fe80  1  0.20226911  0.03011984  0.04172349  1
  Fe  Fe81  1  0.18944033  0.53920103  0.71519764  1
  Fe  Fe82  1  0.03494271  0.69469829  0.88313420  1
  Fe  Fe83  1  0.53769560  0.68643093  0.21337547  1
  Fe  Fe84  1  0.53285555  0.69448041  0.54876462  1
  Fe  Fe85  1  0.53604109  0.68856851  0.87765443  1
  Fe  Fe86  1  0.53922606  0.18974485  0.21266039  1
  Fe  Fe87  1  0.03312114  0.69917444  0.20942838  1
  Fe  Fe88  1  0.53968018  0.19226068  0.88533310  1
  Fe  Fe89  1  0.02745766  0.20111232  0.20844141  1
  Fe  Fe90  1  0.02727031  0.19824145  0.88032399  1
  Fe  Fe91  1  0.03457436  0.19507703  0.54378235  1
  Fe  Fe92  1  0.79625788  0.96641010  0.28697467  1
  Fe  Fe93  1  0.30696811  0.46634469  0.28686163  1
  Fe  Fe94  1  0.31898256  0.96503600  0.29239586  1
  Fe  Fe95  1  0.80335585  0.46993072  0.96302388  1
  Fe  Fe96  1  0.30815161  0.46751613  0.62401055  1
  Fe  Fe97  1  0.30585393  0.46497984  0.95281072  1
  Fe  Fe98  1  0.30596684  0.96471942  0.61624450  1
  Fe  Fe99  1  0.80836209  0.46466973  0.28092580  1
  Fe  Fe100  1  0.80508445  0.96244825  0.95215405  1
  Fe  Fe101  1  0.80483197  0.96573988  0.61753748  1
  S  S102  1  0.36079630  0.14486218  0.08412598  1
  S  S103  1  0.35871042  0.14243422  0.41366287  1
  S  S104  1  0.36059389  0.13974011  0.75084659  1
  S  S105  1  0.35958832  0.63991428  0.08510114  1
  S  S106  1  0.35819258  0.64054718  0.41884145  1
  S  S107  1  0.35945601  0.64088171  0.75151452  1
  S  S108  1  0.85647460  0.13554274  0.08212992  1
  S  S109  1  0.86052357  0.14151233  0.41568559  1
  S  S110  1  0.85853304  0.14015108  0.74784290  1
  S  S111  1  0.86619393  0.64278095  0.08057586  1
  S  S112  1  0.85893017  0.63849129  0.41629209  1
  S  S113  1  0.86091005  0.64560406  0.75162499  1
  S  S114  1  0.14416847  0.36134437  0.25165338  1
  S  S115  1  0.14179070  0.36129782  0.58532331  1
  S  S116  1  0.13632226  0.36098353  0.91721714  1
  S  S117  1  0.14919791  0.86076391  0.25294884  1
  S  S118  1  0.13646501  0.86508663  0.58032827  1
  S  S119  1  0.14280449  0.85846505  0.91417740  1
  S  S120  1  0.64025272  0.36024911  0.24877366  1
  S  S121  1  0.63988985  0.36252688  0.58518772  1
  S  S122  1  0.64060793  0.36049267  0.91959587  1
  S  S123  1  0.64168146  0.84854847  0.24565813  1
  S  S124  1  0.64000261  0.85730629  0.58476995  1
  S  S125  1  0.63880073  0.85583707  0.91427557  1
  S  S126  1  0.07052314  0.16588948  0.04115029  1
  S  S127  1  0.07086301  0.17401568  0.37316384  1
  S  S128  1  0.06809298  0.17539010  0.70843071  1
  S  S129  1  0.07722185  0.67080131  0.04347830  1
  S  S130  1  0.06614760  0.67014102  0.37311332  1
  S  S131  1  0.06211052  0.66586313  0.71085110  1
  S  S132  1  0.56589013  0.16901546  0.04186920  1
  S  S133  1  0.57314325  0.17961471  0.37649120  1
  S  S134  1  0.56265353  0.16997424  0.71515348  1
  S  S135  1  0.56136690  0.66417078  0.03970453  1
  S  S136  1  0.56294905  0.66587046  0.37561195  1
  S  S137  1  0.56913468  0.66935892  0.70920470  1
  S  S138  1  0.32984934  0.43239978  0.12409643  1
  S  S139  1  0.33277429  0.43418764  0.46059835  1
  S  S140  1  0.33163587  0.43088200  0.79415189  1
  S  S141  1  0.33335194  0.93331920  0.12648061  1
  S  S142  1  0.32818763  0.93243700  0.45463803  1
  S  S143  1  0.32720801  0.93554708  0.78552374  1
  S  S144  1  0.83311821  0.43440565  0.12095455  1
  S  S145  1  0.83357540  0.43799880  0.45402350  1
  S  S146  1  0.82978620  0.43474992  0.79643348  1
  S  S147  1  0.82500098  0.93394650  0.12277674  1
  S  S148  1  0.83029534  0.92783971  0.45774760  1
  S  S149  1  0.83059673  0.93403253  0.79155978  1
  S  S150  1  0.43539785  0.33561564  0.29358065  1
  S  S151  1  0.42744903  0.33354926  0.62746581  1
  S  S152  1  0.43193524  0.32812247  0.95694370  1
  S  S153  1  0.43730049  0.82596360  0.29014147  1
  S  S154  1  0.43006577  0.82935845  0.62277624  1
  S  S155  1  0.43427386  0.82551592  0.95342710  1
  S  S156  1  0.93570519  0.33484515  0.29533990  1
  S  S157  1  0.93481429  0.33393748  0.62054499  1
  S  S158  1  0.92744369  0.32725507  0.95523141  1
  S  S159  1  0.93118805  0.82716012  0.29360947  1
  S  S160  1  0.92859995  0.82893810  0.62375188  1
  S  S161  1  0.93809544  0.83917715  0.95995232  1
  S  S162  1  0.17159445  0.06816600  0.20535375  1
  S  S163  1  0.17161143  0.07328561  0.53934469  1
  S  S164  1  0.16157780  0.07045810  0.87006210  1
  S  S165  1  0.17196003  0.56870379  0.21223323  1
  S  S166  1  0.16645336  0.56124721  0.54445194  1
  S  S167  1  0.16977827  0.56804058  0.87778221  1
  S  S168  1  0.66060697  0.05911636  0.20371450  1
  S  S169  1  0.67150588  0.06713209  0.55079460  1
  S  S170  1  0.66962790  0.06496657  0.87584082  1
  S  S171  1  0.66465868  0.55673421  0.20688140  1
  S  S172  1  0.66692916  0.57216832  0.54123779  1
  S  S173  1  0.68013015  0.57053660  0.87592489  1
  O  O174  1  0.36769354  0.22618439  0.07862819  1
  O  O175  1  0.36938178  0.22016387  0.40165741  1
  O  O176  1  0.36981877  0.21965289  0.74513262  1
  O  O177  1  0.36563867  0.72000944  0.07851542  1
  O  O178  1  0.36773405  0.71895827  0.41038713  1
  O  O179  1  0.36863575  0.72100906  0.74658326  1
  O  O180  1  0.86489780  0.20849572  0.06740973  1
  O  O181  1  0.87628626  0.21924571  0.40628264  1
  O  O182  1  0.86682717  0.21710167  0.73538470  1
  O  O183  1  0.88346842  0.71211056  0.06181906  1
  O  O184  1  0.86961033  0.72079794  0.41594980  1
  O  O185  1  0.86899166  0.72668246  0.74690637  1
  O  O186  1  0.27973137  0.13451001  0.08818473  1
  O  O187  1  0.27417772  0.13625669  0.41245837  1
  O  O188  1  0.28066167  0.13156151  0.75811068  1
  O  O189  1  0.28248147  0.62923749  0.09688553  1
  O  O190  1  0.27872052  0.63149868  0.42618308  1
  O  O191  1  0.28102382  0.63083274  0.76143846  1
  O  O192  1  0.77911269  0.12238057  0.09164812  1
  O  O193  1  0.78914270  0.14031946  0.43518973  1
  O  O194  1  0.77893806  0.12887683  0.75172582  1
  O  O195  1  0.78867836  0.64111819  0.09005499  1
  O  O196  1  0.77844683  0.62998566  0.42254721  1
  O  O197  1  0.78005029  0.63600829  0.75585342  1
  O  O198  1  0.13361577  0.28051155  0.25542740  1
  O  O199  1  0.13329179  0.28197630  0.59322336  1
  O  O200  1  0.12634945  0.28246125  0.92647990  1
  O  O201  1  0.13722257  0.78232252  0.26148576  1
  O  O202  1  0.13456596  0.79016448  0.59329046  1
  O  O203  1  0.12804310  0.78199852  0.92652741  1
  O  O204  1  0.63148177  0.28020193  0.25381501  1
  O  O205  1  0.62986666  0.28745936  0.59717822  1
  O  O206  1  0.63512542  0.28032516  0.92618069  1
  O  O207  1  0.63392633  0.76499416  0.24286240  1
  O  O208  1  0.62855393  0.77958845  0.59582006  1
  O  O209  1  0.63497532  0.77718158  0.92468373  1
  O  O210  1  0.22586029  0.36914397  0.24708657  1
  O  O211  1  0.21985851  0.36880224  0.57455189  1
  O  O212  1  0.21678121  0.36853593  0.91132923  1
  O  O213  1  0.23199495  0.86942248  0.25278972  1
  O  O214  1  0.21168373  0.87927256  0.56494428  1
  O  O215  1  0.22057707  0.86278734  0.90735390  1
  O  O216  1  0.71638717  0.37131317  0.23770124  1
  O  O217  1  0.71102320  0.37141206  0.56613477  1
  O  O218  1  0.72160667  0.37478530  0.91668321  1
  O  O219  1  0.72048538  0.86213602  0.23838640  1
  O  O220  1  0.71987102  0.86222150  0.57781007  1
  O  O221  1  0.71736816  0.86769660  0.90505083  1
  O  O222  1  0.41729842  0.13990151  0.15501706  1
  O  O223  1  0.41078992  0.13741620  0.48314800  1
  O  O224  1  0.41884621  0.12928588  0.81783886  1
  O  O225  1  0.42052385  0.63085513  0.15131042  1
  O  O226  1  0.41671338  0.63131616  0.48657543  1
  O  O227  1  0.41908462  0.62935447  0.81703815  1
  O  O228  1  0.91762357  0.13105749  0.15217814  1
  O  O229  1  0.92715938  0.12647549  0.47653095  1
  O  O230  1  0.91572044  0.13732024  0.81975720  1
  O  O231  1  0.92512619  0.63575287  0.14991036  1
  O  O232  1  0.91620194  0.62297444  0.47962668  1
  O  O233  1  0.91662441  0.63835687  0.82284967  1
  O  O234  1  0.37295386  0.08791869  0.01926239  1
  O  O235  1  0.36732263  0.08191516  0.34626663  1
  O  O236  1  0.36800236  0.08148643  0.68200555  1
  O  O237  1  0.36451722  0.58223905  0.01514641  1
  O  O238  1  0.36676380  0.58090882  0.35083386  1
  O  O239  1  0.36432191  0.58407993  0.68114490  1
  O  O240  1  0.86873090  0.07001805  0.01826007  1
  O  O241  1  0.85704009  0.08128312  0.34318928  1
  O  O242  1  0.87534600  0.07915089  0.68507649  1
  O  O243  1  0.87151995  0.57272463  0.01501299  1
  O  O244  1  0.86483824  0.58487296  0.34400680  1
  O  O245  1  0.87332328  0.58866595  0.68668567  1
  O  O246  1  0.08772412  0.37444057  0.18717267  1
  O  O247  1  0.08152221  0.37031762  0.51894845  1
  O  O248  1  0.07909174  0.36785840  0.84821368  1
  O  O249  1  0.09521358  0.86913816  0.18437140  1
  O  O250  1  0.07342717  0.86807063  0.51145789  1
  O  O251  1  0.08277771  0.86721532  0.84607771  1
  O  O252  1  0.57738091  0.37068156  0.18309564  1
  O  O253  1  0.57200204  0.37581470  0.52331498  1
  O  O254  1  0.58465594  0.36586529  0.84743333  1
  O  O255  1  0.58244252  0.86102987  0.17868296  1
  O  O256  1  0.58246136  0.86154647  0.51465794  1
  O  O257  1  0.57957607  0.85914797  0.84425241  1
  O  O258  1  0.13872344  0.41789925  0.32284766  1
  O  O259  1  0.13718221  0.41973646  0.65507877  1
  O  O260  1  0.12763684  0.42108823  0.98443702  1
  O  O261  1  0.13718862  0.92044192  0.31985997  1
  O  O262  1  0.12809642  0.92810940  0.64631890  1
  O  O263  1  0.13403034  0.92067284  0.98106639  1
  O  O264  1  0.63222706  0.41742817  0.31852050  1
  O  O265  1  0.63690576  0.42571175  0.65540788  1
  O  O266  1  0.62363145  0.41704911  0.98246047  1
  O  O267  1  0.63191943  0.90074316  0.31417596  1
  O  O268  1  0.63201382  0.91780590  0.65157192  1
  O  O269  1  0.62862139  0.91467795  0.98053712  1
  O  O270  1  0.03552515  0.18672565  0.10164962  1
  O  O271  1  0.03646866  0.20404049  0.43546671  1
  O  O272  1  0.02987331  0.20404595  0.76825329  1
  O  O273  1  0.05140734  0.69761484  0.10936585  1
  O  O274  1  0.02806617  0.69837788  0.43173601  1
  O  O275  1  0.03062862  0.69943702  0.77631725  1
  O  O276  1  0.52957872  0.20143340  0.10377871  1
  O  O277  1  0.53520080  0.21082559  0.43475192  1
  O  O278  1  0.53077884  0.20313996  0.78169432  1
  O  O279  1  0.52251148  0.69821486  0.09873639  1
  O  O280  1  0.52587681  0.69711613  0.43622920  1
  O  O281  1  0.53117206  0.69540954  0.76915389  1
  O  O282  1  0.29914658  0.46788782  0.06227428  1
  O  O283  1  0.30215066  0.47069522  0.39962051  1
  O  O284  1  0.30238815  0.46709505  0.73335836  1
  O  O285  1  0.30545342  0.97178745  0.06849697  1
  O  O286  1  0.30182405  0.97569809  0.39807758  1
  O  O287  1  0.29444335  0.96820563  0.71969846  1
  O  O288  1  0.79850833  0.47218261  0.06154472  1
  O  O289  1  0.80044486  0.46800041  0.38751655  1
  O  O290  1  0.80851540  0.47722897  0.74105768  1
  O  O291  1  0.78613671  0.96510134  0.05889932  1
  O  O292  1  0.81253374  0.96436549  0.39783689  1
  O  O293  1  0.80083210  0.96837290  0.72984692  1
  O  O294  1  0.47154278  0.30685451  0.23274300  1
  O  O295  1  0.45511124  0.30832682  0.56238530  1
  O  O296  1  0.46890054  0.29900315  0.89669461  1
  O  O297  1  0.47443656  0.79376808  0.22974460  1
  O  O298  1  0.46792642  0.80012220  0.56227052  1
  O  O299  1  0.47303501  0.79157529  0.89355719  1
  O  O300  1  0.97001249  0.30327798  0.23459413  1
  O  O301  1  0.97260202  0.29618459  0.56057556  1
  O  O302  1  0.95998757  0.30243590  0.88871311  1
  O  O303  1  0.97532864  0.80620768  0.23891071  1
  O  O304  1  0.96471547  0.80542556  0.56413016  1
  O  O305  1  0.96981471  0.80524809  0.89510305  1
  O  O306  1  0.19879356  0.02970612  0.26497337  1
  O  O307  1  0.20218881  0.04101874  0.60268728  1
  O  O308  1  0.18675900  0.03739672  0.93169555  1
  O  O309  1  0.20179404  0.53028312  0.27267025  1
  O  O310  1  0.20419611  0.52693416  0.60686935  1
  O  O311  1  0.20013025  0.53026513  0.93840049  1
  O  O312  1  0.68658393  0.01989928  0.26143463  1
  O  O313  1  0.70869649  0.02550164  0.61100264  1
  O  O314  1  0.69769243  0.02589425  0.93530212  1
  O  O315  1  0.69910915  0.53108094  0.27533685  1
  O  O316  1  0.69485926  0.54132171  0.60381062  1
  O  O317  1  0.70726223  0.53107659  0.93425724  1
  O  O318  1  0.09266981  0.08425544  0.02890931  1
  O  O319  1  0.08913412  0.09258745  0.36719232  1
  O  O320  1  0.08881185  0.09526325  0.70535648  1
  O  O321  1  0.09126926  0.58609659  0.02905878  1
  O  O322  1  0.08256283  0.58664512  0.36778698  1
  O  O323  1  0.08211709  0.58433938  0.71027982  1
  O  O324  1  0.57919169  0.08691162  0.03807044  1
  O  O325  1  0.59413012  0.10188467  0.37431482  1
  O  O326  1  0.58171821  0.08926988  0.71661598  1
  O  O327  1  0.57290748  0.58287744  0.03597985  1
  O  O328  1  0.57859873  0.58302150  0.37126841  1
  O  O329  1  0.59105997  0.58909574  0.70172920  1
  O  O330  1  0.41168277  0.41483086  0.12854974  1
  O  O331  1  0.41501447  0.41818571  0.46582875  1
  O  O332  1  0.41272806  0.41112991  0.80132464  1
  O  O333  1  0.41420863  0.91230995  0.12920876  1
  O  O334  1  0.40584417  0.90801340  0.45471346  1
  O  O335  1  0.40782116  0.91518596  0.78426673  1
  O  O336  1  0.91431631  0.42413839  0.12749362  1
  O  O337  1  0.91685487  0.42184428  0.45882412  1
  O  O338  1  0.91453478  0.41932658  0.80574137  1
  O  O339  1  0.90757085  0.92943700  0.12674989  1
  O  O340  1  0.91096212  0.90243993  0.46749396  1
  O  O341  1  0.91328458  0.91684402  0.79849193  1
  O  O342  1  0.41758612  0.41856986  0.29782901  1
  O  O343  1  0.41135429  0.41758641  0.63949034  1
  O  O344  1  0.41218522  0.40953494  0.96222975  1
  O  O345  1  0.42164164  0.90714563  0.29277006  1
  O  O346  1  0.41321205  0.91122134  0.62904605  1
  O  O347  1  0.41700302  0.90384429  0.95407277  1
  O  O348  1  0.92031191  0.41796059  0.29940337  1
  O  O349  1  0.92799942  0.41542925  0.62264241  1
  O  O350  1  0.89801632  0.40611913  0.95753074  1
  O  O351  1  0.91093974  0.90943227  0.30020507  1
  O  O352  1  0.90762207  0.91088685  0.63523824  1
  O  O353  1  0.91818486  0.92059347  0.95979186  1
  O  O354  1  0.09047796  0.08809880  0.19898340  1
  O  O355  1  0.08946421  0.09050804  0.53235558  1
  O  O356  1  0.07744864  0.08764177  0.85826357  1
  O  O357  1  0.09235101  0.58842336  0.20958216  1
  O  O358  1  0.08490127  0.56915886  0.54082161  1
  O  O359  1  0.08788816  0.58457549  0.87147287  1
  O  O360  1  0.57696744  0.07587032  0.19573097  1
  O  O361  1  0.60094419  0.09414156  0.56502599  1
  O  O362  1  0.58803732  0.08350832  0.87139404  1
  O  O363  1  0.58272485  0.57782205  0.20654320  1
  O  O364  1  0.58303636  0.58854662  0.53089399  1
  O  O365  1  0.59966694  0.59083561  0.87525062  1
  O  O366  1  0.13987856  0.22248680  0.05918147  1
  O  O367  1  0.14249816  0.22711592  0.39028516  1
  O  O368  1  0.13925913  0.22905278  0.72628744  1
  O  O369  1  0.14884850  0.71953901  0.05378789  1
  O  O370  1  0.14061097  0.72015108  0.39348866  1
  O  O371  1  0.13275118  0.71622505  0.72363971  1
  O  O372  1  0.63724691  0.21790388  0.05560538  1
  O  O373  1  0.64278867  0.23461997  0.39068090  1
  O  O374  1  0.63367952  0.22082584  0.73029458  1
  O  O375  1  0.63484114  0.71425767  0.05800943  1
  O  O376  1  0.63387496  0.71615704  0.39055175  1
  O  O377  1  0.63838181  0.72510957  0.72659090  1
  O  O378  1  0.27754981  0.36213724  0.10935552  1
  O  O379  1  0.28180415  0.36196028  0.44404709  1
  O  O380  1  0.27768949  0.36071453  0.77881165  1
  O  O381  1  0.27976754  0.86210930  0.10976571  1
  O  O382  1  0.27056092  0.86484301  0.43579251  1
  O  O383  1  0.27575050  0.86468736  0.77013964  1
  O  O384  1  0.78353842  0.36137719  0.10331622  1
  O  O385  1  0.78528924  0.36522104  0.43977957  1
  O  O386  1  0.77836160  0.36256823  0.77462408  1
  O  O387  1  0.78171170  0.85786162  0.10846424  1
  O  O388  1  0.77235037  0.86193477  0.44199125  1
  O  O389  1  0.77944996  0.86186593  0.77607686  1
  O  O390  1  0.36348976  0.28444833  0.27695762  1
  O  O391  1  0.35606551  0.28336073  0.61592421  1
  O  O392  1  0.36171717  0.27510643  0.94177578  1
  O  O393  1  0.36462075  0.77510788  0.27326058  1
  O  O394  1  0.35880094  0.77712763  0.60463838  1
  O  O395  1  0.36332913  0.77118590  0.93607395  1
  O  O396  1  0.86443213  0.28673944  0.28516505  1
  O  O397  1  0.86128086  0.28649614  0.60430692  1
  O  O398  1  0.86189775  0.27001441  0.94061787  1
  O  O399  1  0.86209358  0.77135286  0.27213957  1
  O  O400  1  0.85803882  0.77472690  0.60621974  1
  O  O401  1  0.86589041  0.78936941  0.94596544  1
  O  O402  1  0.22631832  0.13928252  0.22459808  1
  O  O403  1  0.22327852  0.14448253  0.55333104  1
  O  O404  1  0.21309951  0.14287604  0.88631061  1
  O  O405  1  0.22664624  0.63886521  0.22974125  1
  O  O406  1  0.21418616  0.63400888  0.55843830  1
  O  O407  1  0.22217983  0.63921431  0.89520349  1
  O  O408  1  0.71137294  0.13186432  0.22278671  1
  O  O409  1  0.73141958  0.13434578  0.56778309  1
  O  O410  1  0.72293418  0.13479483  0.89346428  1
  O  O411  1  0.71413365  0.62416209  0.21238460  1
  O  O412  1  0.71663346  0.64331312  0.55241301  1
  O  O413  1  0.73294825  0.64231324  0.89417537  1
  O  O414  1  0.49211779  0.33359961  0.03042416  1
  O  O415  1  0.49338512  0.34087104  0.36724890  1
  O  O416  1  0.49019354  0.33214994  0.69677184  1
  O  O417  1  0.49202789  0.82679858  0.02713103  1
  O  O418  1  0.49426972  0.82702531  0.36315320  1
  O  O419  1  0.48902848  0.82992287  0.69499844  1
  O  O420  1  0.99268043  0.33556763  0.02245797  1
  O  O421  1  0.99692011  0.33961809  0.36898946  1
  O  O422  1  0.99045419  0.33441746  0.69565150  1
  O  O423  1  0.99892326  0.84661087  0.03050294  1
  O  O424  1  0.98691864  0.83067239  0.36951233  1
  O  O425  1  0.98886589  0.82932740  0.69559061  1
  O  O426  1  0.17155586  0.01026538  0.13279577  1
  O  O427  1  0.17029528  0.01251730  0.46806787  1
  O  O428  1  0.16216560  0.01063716  0.79854941  1
  O  O429  1  0.17033991  0.50991629  0.13945381  1
  O  O430  1  0.16795597  0.50318778  0.47139868  1
  O  O431  1  0.17055993  0.50891876  0.80613620  1
  O  O432  1  0.65853912  0.00292687  0.12907309  1
  O  O433  1  0.66207420  0.00934460  0.47801880  1
  O  O434  1  0.66598294  0.00618724  0.80224735  1
  O  O435  1  0.65348596  0.48990016  0.13924918  1
  O  O436  1  0.66543648  0.51007634  0.46956023  1
  O  O437  1  0.67472108  0.51412804  0.80176171  1
  O  O438  1  0.01173674  0.17345756  0.30163689  1
  O  O439  1  0.01025935  0.17203892  0.63517433  1
  O  O440  1  0.01016679  0.16608228  0.96955993  1
  O  O441  1  0.01141664  0.66903536  0.29922733  1
  O  O442  1  -0.00061041  0.65784446  0.64107552  1
  O  O443  1  0.01376632  0.67357511  0.97467549  1
  O  O444  1  0.51337388  0.17608711  0.30150767  1
  O  O445  1  0.50032143  0.16661056  0.64770651  1
  O  O446  1  0.50530055  0.16827476  0.97004415  1
  O  O447  1  0.50382105  0.66184685  0.30208067  1
  O  O448  1  0.50843918  0.66757897  0.63699618  1
  O  O449  1  0.50607811  0.66377348  0.96528404  1
  O  O450  1  0.33355265  0.49284222  0.19659277  1
  O  O451  1  0.33415350  0.49287246  0.53304692  1
  O  O452  1  0.33294277  0.49115692  0.86625392  1
  O  O453  1  0.33808070  0.99027957  0.20128744  1
  O  O454  1  0.33382617  0.99004480  0.52917017  1
  O  O455  1  0.33191958  0.99687037  0.85428885  1
  O  O456  1  0.82824973  0.49158051  0.19354150  1
  O  O457  1  0.83622975  0.49999004  0.52260568  1
  O  O458  1  0.83140028  0.48966835  0.87204451  1
  O  O459  1  0.82139009  0.99043612  0.19488849  1
  O  O460  1  0.83449205  0.98975283  0.52994835  1
  O  O461  1  0.83105145  0.99329667  0.86339991  1
