# generated using pymatgen
data_Na31Fe20(SO4)36
_symmetry_space_group_name_H-M   'P 1'
_cell_length_a   18.08828073
_cell_length_b   18.08286534
_cell_length_c   19.72108228
_cell_angle_alpha   107.55705857
_cell_angle_beta   107.60454503
_cell_angle_gamma   90.74776994
_symmetry_Int_Tables_number   1
_chemical_formula_structural   Na31Fe20(SO4)36
_chemical_formula_sum   'Na62 Fe40 S72 O288'
_cell_volume   5823.29122143
_cell_formula_units_Z   2
loop_
 _symmetry_equiv_pos_site_id
 _symmetry_equiv_pos_as_xyz
  1  'x, y, z'
loop_
 _atom_site_type_symbol
 _atom_site_label
 _atom_site_symmetry_multiplicity
 _atom_site_fract_x
 _atom_site_fract_y
 _atom_site_fract_z
 _atom_site_occupancy
  Na  Na0  1  0.12641641  0.36489054  0.08331864  1
  Na  Na1  1  0.12201257  0.36399560  0.40293821  1
  Na  Na2  1  0.13345500  0.37235288  0.75292005  1
  Na  Na3  1  0.18331296  0.88557882  0.11750317  1
  Na  Na4  1  0.12754557  0.86740748  0.41428354  1
  Na  Na5  1  0.17557712  0.84260546  0.77561949  1
  Na  Na6  1  0.63356618  0.36246773  0.08342093  1
  Na  Na7  1  0.63150753  0.36304873  0.41605528  1
  Na  Na8  1  0.63011937  0.35993893  0.74337233  1
  Na  Na9  1  0.63558940  0.87521422  0.08039970  1
  Na  Na10  1  0.63110017  0.86619807  0.41202288  1
  Na  Na11  1  0.64210769  0.86218925  0.75036433  1
  Na  Na12  1  0.36742092  0.11760750  0.24371051  1
  Na  Na13  1  0.36625869  0.14822710  0.59135427  1
  Na  Na14  1  0.36269228  0.13383258  0.92091920  1
  Na  Na15  1  0.35893239  0.64019956  0.24071251  1
  Na  Na16  1  0.36398934  0.64147881  0.59050198  1
  Na  Na17  1  0.35927638  0.64754583  0.91513052  1
  Na  Na18  1  0.87694162  0.12533025  0.24628998  1
  Na  Na19  1  0.87190752  0.12538902  0.58246259  1
  Na  Na20  1  0.87822717  0.14371846  0.93527636  1
  Na  Na21  1  0.87052290  0.62489864  0.24533032  1
  Na  Na22  1  0.86653043  0.63355681  0.59050109  1
  Na  Na23  1  0.86376872  0.64170158  0.92562917  1
  Na  Na24  1  0.99136420  0.51713487  0.74727768  1
  Na  Na25  1  0.48785187  0.51276759  0.08293433  1
  Na  Na26  1  0.45583936  0.00801690  0.07260016  1
  Na  Na27  1  1.02416260  -0.04845989  0.77619552  1
  Na  Na28  1  0.49829623  0.00536942  0.74600305  1
  Na  Na29  1  0.48652509  0.51970395  0.75318873  1
  Na  Na30  1  0.48177999  0.50985751  0.42052855  1
  Na  Na31  1  1.01569314  0.08684947  0.12793945  1
  Na  Na32  1  0.47743231  0.02566984  0.38320966  1
  Na  Na33  1  0.04005350  0.97175780  0.95035843  1
  Na  Na34  1  0.01308926  0.49843944  0.55636403  1
  Na  Na35  1  0.48396849  1.03593780  0.55947623  1
  Na  Na36  1  0.00593633  0.49225552  0.93005101  1
  Na  Na37  1  0.50534726  0.48948500  0.25134733  1
  Na  Na38  1  -0.00539177  0.43220743  0.22477171  1
  Na  Na39  1  0.52692741  0.98852859  0.93014236  1
  Na  Na40  1  0.50848675  0.47735237  0.58423019  1
  Na  Na41  1  0.50881750  0.49233581  0.91664949  1
  Na  Na42  1  0.23402944  0.23373426  0.33546892  1
  Na  Na43  1  0.73436166  0.23652842  0.66835153  1
  Na  Na44  1  0.24163344  0.24726016  0.67333330  1
  Na  Na45  1  0.74920687  0.24512486  0.33427106  1
  Na  Na46  1  0.23580855  0.23199232  0.00958445  1
  Na  Na47  1  0.26304163  0.78030856  -0.01235640  1
  Na  Na48  1  0.76504002  0.75971894  0.66496412  1
  Na  Na49  1  0.74383485  0.23924031  0.00548509  1
  Na  Na50  1  0.76075195  0.75484687  0.32504356  1
  Na  Na51  1  0.25986234  0.77161192  0.31534235  1
  Na  Na52  1  0.24899182  0.25104571  0.50038827  1
  Na  Na53  1  0.75760301  0.75729514  0.49334293  1
  Na  Na54  1  0.22254831  0.21978550  0.16968325  1
  Na  Na55  1  0.74950440  0.23256533  0.16780669  1
  Na  Na56  1  0.24074529  0.24088667  0.84204858  1
  Na  Na57  1  0.74190178  0.74064507  0.84278255  1
  Na  Na58  1  0.74812786  0.24515670  0.83904254  1
  Na  Na59  1  0.76020618  0.75907829  0.14975340  1
  Na  Na60  1  0.24191766  0.74344783  0.50642554  1
  Na  Na61  1  0.73883897  0.23875055  0.50624467  1
  Fe  Fe62  1  0.96574936  0.81066828  0.12100441  1
  Fe  Fe63  1  0.46246521  0.81224136  0.78732010  1
  Fe  Fe64  1  0.46403987  0.30055225  0.45182609  1
  Fe  Fe65  1  0.96551104  0.30212324  0.45182261  1
  Fe  Fe66  1  0.96318477  0.30689596  0.78279464  1
  Fe  Fe67  1  0.46457248  0.30696868  0.78392039  1
  Fe  Fe68  1  0.46514956  0.81202794  0.45176699  1
  Fe  Fe69  1  0.96573192  0.80865743  0.45579218  1
  Fe  Fe70  1  0.46253918  0.31147483  0.11755366  1
  Fe  Fe71  1  0.46507471  0.81489092  0.12376497  1
  Fe  Fe72  1  0.69009637  0.03417536  0.71054319  1
  Fe  Fe73  1  0.69319089  0.53665404  0.05102692  1
  Fe  Fe74  1  0.19574019  0.03231597  0.37425969  1
  Fe  Fe75  1  0.19206820  0.54179034  0.71556676  1
  Fe  Fe76  1  0.19571473  0.02923427  0.71180226  1
  Fe  Fe77  1  0.19247001  0.54486891  0.04935289  1
  Fe  Fe78  1  0.69369296  0.53387374  0.38447128  1
  Fe  Fe79  1  0.18905834  0.53710626  0.37697825  1
  Fe  Fe80  1  0.68838816  0.03368100  0.37505906  1
  Fe  Fe81  1  0.69103945  0.53094948  0.71744150  1
  Fe  Fe82  1  0.53408922  0.69301996  0.54895684  1
  Fe  Fe83  1  0.53969426  0.69376048  0.88647770  1
  Fe  Fe84  1  0.53545316  0.19220667  0.88381955  1
  Fe  Fe85  1  0.53588984  0.69322380  0.21724480  1
  Fe  Fe86  1  0.03818183  0.18376014  0.54165312  1
  Fe  Fe87  1  0.03424388  0.69369913  0.54938931  1
  Fe  Fe88  1  0.53423127  0.19085360  0.21030676  1
  Fe  Fe89  1  0.03566019  0.69330481  0.21279732  1
  Fe  Fe90  1  0.03234558  0.19045476  0.87449096  1
  Fe  Fe91  1  0.02283532  0.70567532  0.87681726  1
  Fe  Fe92  1  0.30291126  0.46865014  0.94904687  1
  Fe  Fe93  1  0.80284758  0.96839271  0.95890779  1
  Fe  Fe94  1  0.80804251  0.46442956  0.28730247  1
  Fe  Fe95  1  0.80536554  0.96634231  0.28285895  1
  Fe  Fe96  1  0.80388462  0.46218037  0.61912590  1
  Fe  Fe97  1  0.30383455  0.46934458  0.61756271  1
  Fe  Fe98  1  0.30948281  0.96138087  0.61849008  1
  Fe  Fe99  1  0.30712928  0.46959880  0.28319256  1
  Fe  Fe100  1  0.81210072  0.46181438  0.95769347  1
  Fe  Fe101  1  0.81100680  0.96255260  0.62363089  1
  S  S102  1  0.35957784  0.14945681  0.08326371  1
  S  S103  1  0.35910999  0.14328049  0.42443417  1
  S  S104  1  0.36114680  0.14195807  0.74937675  1
  S  S105  1  0.36442176  0.63955018  0.08020686  1
  S  S106  1  0.35943442  0.64226508  0.41604074  1
  S  S107  1  0.36300997  0.64108351  0.75247876  1
  S  S108  1  0.85037784  0.13882874  0.07741433  1
  S  S109  1  0.85835446  0.13851105  0.41801230  1
  S  S110  1  0.85525118  0.14154672  0.74483713  1
  S  S111  1  0.86246155  0.63841000  0.08384937  1
  S  S112  1  0.85785102  0.63910912  0.41864933  1
  S  S113  1  0.85584958  0.63529747  0.75193074  1
  S  S114  1  0.14890718  0.36236665  0.24882091  1
  S  S115  1  0.13993544  0.36313120  0.58474105  1
  S  S116  1  0.13820176  0.36428442  0.91577034  1
  S  S117  1  0.13797472  0.85992977  0.25320903  1
  S  S118  1  0.14111080  0.85702765  0.58299085  1
  S  S119  1  0.14086977  0.85422608  0.91476666  1
  S  S120  1  0.63778865  0.36212984  0.24983273  1
  S  S121  1  0.63799546  0.35920106  0.58187653  1
  S  S122  1  0.63812034  0.36110278  0.91733477  1
  S  S123  1  0.64322834  0.85484744  0.24988505  1
  S  S124  1  0.64176269  0.85603847  0.58464003  1
  S  S125  1  0.64044416  0.85534493  0.91027492  1
  S  S126  1  0.06526352  0.17165120  0.03830679  1
  S  S127  1  0.07164199  0.17213332  0.38032986  1
  S  S128  1  0.07283140  0.17539595  0.70899922  1
  S  S129  1  0.07192296  0.68002517  0.04086035  1
  S  S130  1  0.06573268  0.67130800  0.37735203  1
  S  S131  1  0.06079014  0.65521829  0.70516449  1
  S  S132  1  0.56213405  0.17327982  0.04413925  1
  S  S133  1  0.56673079  0.17373855  0.37525975  1
  S  S134  1  0.56407603  0.17088283  0.71132468  1
  S  S135  1  0.56728220  0.66341084  0.04252962  1
  S  S136  1  0.56529059  0.66318373  0.37616058  1
  S  S137  1  0.56544370  0.66244494  0.70737075  1
  S  S138  1  0.33123945  0.43764414  0.12140328  1
  S  S139  1  0.33163626  0.43514767  0.45786344  1
  S  S140  1  0.33138291  0.43598047  0.79061149  1
  S  S141  1  0.35275791  0.93351014  0.12937872  1
  S  S142  1  0.32994973  0.93513662  0.45839475  1
  S  S143  1  0.34610490  0.94150959  0.79305464  1
  S  S144  1  0.82261995  0.42884854  0.11832374  1
  S  S145  1  0.82639066  0.43028710  0.45855633  1
  S  S146  1  0.82651488  0.42908376  0.79076411  1
  S  S147  1  0.82592170  0.92793708  0.12174703  1
  S  S148  1  0.82468600  0.92843404  0.45515381  1
  S  S149  1  0.82820199  0.93942932  0.79380759  1
  S  S150  1  0.43187397  0.33535557  0.29253888  1
  S  S151  1  0.43227436  0.34043788  0.62710644  1
  S  S152  1  0.43250421  0.33720401  0.95578967  1
  S  S153  1  0.43840880  0.82723090  0.29236694  1
  S  S154  1  0.43567386  0.82827719  0.62097347  1
  S  S155  1  0.44359385  0.83069291  0.95703862  1
  S  S156  1  0.92572410  0.33194100  0.29496539  1
  S  S157  1  0.93051424  0.33088053  0.62283637  1
  S  S158  1  0.93436786  0.33145492  0.95158448  1
  S  S159  1  0.92530780  0.82207045  0.28764325  1
  S  S160  1  0.93213169  0.82310905  0.62340674  1
  S  S161  1  0.92348418  0.82903529  0.95661873  1
  S  S162  1  0.17619211  0.07040063  0.22157391  1
  S  S163  1  0.17844827  0.06887989  0.54456897  1
  S  S164  1  0.16604000  0.06875668  0.87017645  1
  S  S165  1  0.17231653  0.57355508  0.21008903  1
  S  S166  1  0.17299124  0.57008531  0.54130208  1
  S  S167  1  0.16808852  0.57139290  0.87778731  1
  S  S168  1  0.67097405  0.06734491  0.20907587  1
  S  S169  1  0.66894408  0.06025046  0.53908801  1
  S  S170  1  0.66657247  0.06414743  0.87224459  1
  S  S171  1  0.66634394  0.56400585  0.21008923  1
  S  S172  1  0.66654404  0.56633297  0.54348077  1
  S  S173  1  0.66655997  0.56182578  0.87539017  1
  O  O174  1  0.37091338  0.22970532  0.07373557  1
  O  O175  1  0.36435872  0.22790923  0.42682132  1
  O  O176  1  0.36962652  0.21988719  0.73716579  1
  O  O177  1  0.37908029  0.71540609  0.06994898  1
  O  O178  1  0.37005949  0.72102569  0.40936366  1
  O  O179  1  0.37478610  0.71847374  0.74403419  1
  O  O180  1  0.86296912  0.20806214  0.05614427  1
  O  O181  1  0.86723307  0.21861891  0.41189178  1
  O  O182  1  0.86645630  0.21834361  0.73244276  1
  O  O183  1  0.87083317  0.71658463  0.07550799  1
  O  O184  1  0.86402504  0.71997074  0.41405443  1
  O  O185  1  0.86045773  0.70844738  0.73670528  1
  O  O186  1  0.28146802  0.14243299  0.08868901  1
  O  O187  1  0.27497315  0.13066175  0.42436219  1
  O  O188  1  0.28004143  0.13279129  0.75197901  1
  O  O189  1  0.28696947  0.63296883  0.09000511  1
  O  O190  1  0.28039467  0.63191411  0.42282324  1
  O  O191  1  0.28529321  0.63017058  0.76085092  1
  O  O192  1  0.76996413  0.12917027  0.07837174  1
  O  O193  1  0.77953413  0.13000029  0.42719958  1
  O  O194  1  0.77275875  0.13569022  0.74707102  1
  O  O195  1  0.78510939  0.62924409  0.09605123  1
  O  O196  1  0.77974411  0.62818612  0.42949026  1
  O  O197  1  0.77853077  0.62178936  0.76292345  1
  O  O198  1  0.14445690  0.28556758  0.25834925  1
  O  O199  1  0.13104218  0.28438473  0.59263733  1
  O  O200  1  0.12995932  0.28446454  0.92098358  1
  O  O201  1  0.12159119  0.78492075  0.26854792  1
  O  O202  1  0.13082448  0.77683641  0.58753809  1
  O  O203  1  0.11990617  0.76705050  0.90621413  1
  O  O204  1  0.62906471  0.28321294  0.25746284  1
  O  O205  1  0.63284247  0.28333592  0.59250554  1
  O  O206  1  0.62949411  0.28307561  0.92776042  1
  O  O207  1  0.63416237  0.77798130  0.26361471  1
  O  O208  1  0.63116580  0.77823175  0.59572661  1
  O  O209  1  0.63815610  0.77333156  0.91226866  1
  O  O210  1  0.22786295  0.37604945  0.23982937  1
  O  O211  1  0.21754723  0.37176193  0.57335994  1
  O  O212  1  0.21628481  0.37343037  0.90465367  1
  O  O213  1  0.21444779  0.86047871  0.24348761  1
  O  O214  1  0.21959926  0.86641199  0.57326200  1
  O  O215  1  0.21760047  0.85508936  0.90452411  1
  O  O216  1  0.71490902  0.37089189  0.23899727  1
  O  O217  1  0.71585994  0.37204641  0.57115322  1
  O  O218  1  0.71713508  0.36972597  0.91009242  1
  O  O219  1  0.72476043  0.86304133  0.24701173  1
  O  O220  1  0.72317609  0.86292439  0.58140043  1
  O  O221  1  0.71986289  0.87217186  0.90345256  1
  O  O222  1  0.41852913  0.14652726  0.15530675  1
  O  O223  1  0.41201744  0.13144852  0.49222575  1
  O  O224  1  0.41678412  0.14090426  0.82179432  1
  O  O225  1  0.42391607  0.62786447  0.14742534  1
  O  O226  1  0.41818259  0.63206302  0.48407732  1
  O  O227  1  0.42321530  0.62988909  0.81929137  1
  O  O228  1  0.90720386  0.13660564  0.14765989  1
  O  O229  1  0.91792160  0.13142081  0.48585291  1
  O  O230  1  0.90947277  0.13735777  0.81579872  1
  O  O231  1  0.92376981  0.62902047  0.14966173  1
  O  O232  1  0.91855084  0.62868587  0.48395080  1
  O  O233  1  0.91662688  0.63309364  0.82289138  1
  O  O234  1  0.37414411  0.09141559  0.02017476  1
  O  O235  1  0.37265732  0.09396687  0.35680847  1
  O  O236  1  0.37604713  0.08148086  0.68618293  1
  O  O237  1  0.37124807  0.57731910  0.01235080  1
  O  O238  1  0.36947070  0.58297592  0.34850860  1
  O  O239  1  0.37117577  0.58064346  0.68410665  1
  O  O240  1  0.86390535  0.06964557  0.01351280  1
  O  O241  1  0.86442010  0.08088945  0.34907462  1
  O  O242  1  0.86487452  0.07994334  0.67947730  1
  O  O243  1  0.86567964  0.57861969  0.01385114  1
  O  O244  1  0.86051495  0.58348193  0.34703525  1
  O  O245  1  0.86727538  0.57004830  0.68852545  1
  O  O246  1  0.08887382  0.37214556  0.18438434  1
  O  O247  1  0.07839786  0.37385594  0.51941498  1
  O  O248  1  0.07771924  0.37500228  0.84942359  1
  O  O249  1  0.07694290  0.86815386  0.18740742  1
  O  O250  1  0.08153816  0.86645478  0.51567539  1
  O  O251  1  0.08206365  0.87598345  0.85512361  1
  O  O252  1  0.57672841  0.37375287  0.18425987  1
  O  O253  1  0.57782454  0.36737197  0.51410000  1
  O  O254  1  0.57986607  0.36696745  0.84749252  1
  O  O255  1  0.58878251  0.85507187  0.17744934  1
  O  O256  1  0.58686947  0.86004671  0.51317574  1
  O  O257  1  0.58207985  0.86070820  0.83938657  1
  O  O258  1  0.14236305  0.42248460  0.31923489  1
  O  O259  1  0.13669644  0.42240208  0.65478849  1
  O  O260  1  0.13255452  0.42317858  0.98486416  1
  O  O261  1  0.13518421  0.92342725  0.32348198  1
  O  O262  1  0.13678379  0.91485445  0.65262475  1
  O  O263  1  0.13925897  0.89943519  0.98978725  1
  O  O264  1  0.63109606  0.42075273  0.31923938  1
  O  O265  1  0.62862772  0.42134774  0.64863034  1
  O  O266  1  0.62608007  0.42145557  0.98248597  1
  O  O267  1  0.63150264  0.91661096  0.31377124  1
  O  O268  1  0.63051141  0.91684383  0.64945928  1
  O  O269  1  0.62682664  0.91030467  0.97506341  1
  O  O270  1  0.02726633  0.20066332  0.09470883  1
  O  O271  1  0.03666676  0.20186908  0.44515556  1
  O  O272  1  0.03105514  0.20199093  0.76638998  1
  O  O273  1  0.03357318  0.70474901  0.10098282  1
  O  O274  1  0.02457419  0.69870724  0.43539527  1
  O  O275  1  0.02148533  0.67155926  0.76322179  1
  O  O276  1  0.52977292  0.21278998  0.10701573  1
  O  O277  1  0.52908366  0.20232282  0.43379931  1
  O  O278  1  0.53299208  0.20103662  0.77713073  1
  O  O279  1  0.53603744  0.69428639  0.10591454  1
  O  O280  1  0.53078951  0.69491119  0.43782275  1
  O  O281  1  0.53087054  0.69122652  0.76856776  1
  O  O282  1  0.30023237  0.47405889  0.06083661  1
  O  O283  1  0.30535307  0.47325167  0.39835572  1
  O  O284  1  0.30037986  0.46924993  0.72801381  1
  O  O285  1  0.33256835  0.95921025  0.06309634  1
  O  O286  1  0.29777444  0.97454656  0.40203995  1
  O  O287  1  0.30693134  0.96937800  0.72538950  1
  O  O288  1  0.78749801  0.46899537  0.05933604  1
  O  O289  1  0.79725399  0.46685970  0.39741644  1
  O  O290  1  0.79163085  0.46020065  0.72660658  1
  O  O291  1  0.80153031  0.95961035  0.05762160  1
  O  O292  1  0.79639138  0.96775895  0.39640004  1
  O  O293  1  0.79419410  0.97739953  0.73273486  1
  O  O294  1  0.46923585  0.30878400  0.23249971  1
  O  O295  1  0.46814350  0.31972404  0.56761241  1
  O  O296  1  0.46808639  0.30590656  0.89458074  1
  O  O297  1  0.47410672  0.79277493  0.23006155  1
  O  O298  1  0.47224416  0.79974431  0.55923358  1
  O  O299  1  0.47899804  0.79234079  0.89462096  1
  O  O300  1  0.95824532  0.31149500  0.23414044  1
  O  O301  1  0.96731808  0.30216481  0.56293456  1
  O  O302  1  0.96550680  0.29828868  0.88525642  1
  O  O303  1  0.96286770  0.79387523  0.22756314  1
  O  O304  1  0.96661017  0.79456804  0.55946820  1
  O  O305  1  0.96294773  0.80170203  0.89790515  1
  O  O306  1  0.20691213  0.02905685  0.28015484  1
  O  O307  1  0.20791408  0.02891076  0.60312645  1
  O  O308  1  0.17967560  0.03641765  0.93047877  1
  O  O309  1  0.20360227  0.53545098  0.27018015  1
  O  O310  1  0.20237712  0.53439895  0.60394297  1
  O  O311  1  0.19790249  0.53203922  0.93748748  1
  O  O312  1  0.70203311  0.03122020  0.27279509  1
  O  O313  1  0.70215266  0.02207044  0.59912985  1
  O  O314  1  0.69893718  0.02627839  0.92970930  1
  O  O315  1  0.69800405  0.53025758  0.27264680  1
  O  O316  1  0.69802748  0.53323158  0.60627622  1
  O  O317  1  0.69874071  0.52933642  0.93829310  1
  O  O318  1  0.08359947  0.09121537  0.03300442  1
  O  O319  1  0.10539406  0.09816630  0.38644808  1
  O  O320  1  0.09811011  0.09795934  0.70469387  1
  O  O321  1  0.08810053  0.59641461  0.03166637  1
  O  O322  1  0.08741208  0.59163797  0.37460690  1
  O  O323  1  0.07668852  0.56944552  0.68945654  1
  O  O324  1  0.56889402  0.09209597  0.04041792  1
  O  O325  1  0.58609290  0.09260531  0.37197686  1
  O  O326  1  0.58321367  0.08879821  0.70534507  1
  O  O327  1  0.58187151  0.57904339  0.03719246  1
  O  O328  1  0.58062083  0.58014610  0.37231762  1
  O  O329  1  0.57920634  0.57812733  0.69986872  1
  O  O330  1  0.41472693  0.42299543  0.12587721  1
  O  O331  1  0.41392129  0.41648353  0.46358128  1
  O  O332  1  0.41452126  0.42029037  0.79706749  1
  O  O333  1  0.44136108  0.92467235  0.14931356  1
  O  O334  1  0.41145873  0.91724495  0.45881779  1
  O  O335  1  0.42879832  0.92536791  0.79126535  1
  O  O336  1  0.89940851  0.41125590  0.11488549  1
  O  O337  1  0.90708693  0.41041561  0.46554673  1
  O  O338  1  0.90967170  0.41727727  0.79537729  1
  O  O339  1  0.90629885  0.90679977  0.13277567  1
  O  O340  1  0.90234476  0.90397023  0.45600246  1
  O  O341  1  0.91054292  0.93356395  0.80297293  1
  O  O342  1  0.41755939  0.41981850  0.29918286  1
  O  O343  1  0.41506460  0.42461623  0.63998657  1
  O  O344  1  0.41656172  0.41995696  0.95970892  1
  O  O345  1  0.42622743  0.90750341  0.29919386  1
  O  O346  1  0.42054504  0.91106201  0.62863844  1
  O  O347  1  0.43918713  0.91209588  0.95886365  1
  O  O348  1  0.90780494  0.41602372  0.30959707  1
  O  O349  1  0.91303331  0.41327437  0.62965251  1
  O  O350  1  0.91279764  0.41178847  0.94960439  1
  O  O351  1  0.89974784  0.89935507  0.28926585  1
  O  O352  1  0.90792295  0.90243805  0.62603423  1
  O  O353  1  0.89793117  0.90765429  0.95398975  1
  O  O354  1  0.11014057  0.11041577  0.23693604  1
  O  O355  1  0.09813035  0.08589723  0.54066954  1
  O  O356  1  0.08268505  0.08847381  0.84647525  1
  O  O357  1  0.09222631  0.59122575  0.20749911  1
  O  O358  1  0.09275713  0.59002018  0.53907351  1
  O  O359  1  0.08578636  0.58647087  0.87220546  1
  O  O360  1  0.59417744  0.09457362  0.21261625  1
  O  O361  1  0.58811965  0.07363343  0.53374133  1
  O  O362  1  0.58502991  0.08265365  0.87281109  1
  O  O363  1  0.58366216  0.57998966  0.20609675  1
  O  O364  1  0.58318034  0.58085452  0.53716734  1
  O  O365  1  0.58447485  0.58014762  0.87306107  1
  O  O366  1  0.13715669  0.22550986  0.05485198  1
  O  O367  1  0.13644471  0.23303963  0.39619095  1
  O  O368  1  0.14093981  0.23468333  0.72948619  1
  O  O369  1  0.14176650  0.73117599  0.05669291  1
  O  O370  1  0.13564572  0.72663560  0.39738910  1
  O  O371  1  0.13261298  0.70547852  0.72546098  1
  O  O372  1  0.63645454  0.22034736  0.05870834  1
  O  O373  1  0.63961228  0.22525402  0.39239678  1
  O  O374  1  0.63576476  0.22288225  0.72737821  1
  O  O375  1  0.63886908  0.70985315  0.05242795  1
  O  O376  1  0.63755451  0.71171178  0.38965047  1
  O  O377  1  0.63877228  0.71029890  0.72216398  1
  O  O378  1  0.28197154  0.36619858  0.10638908  1
  O  O379  1  0.27866809  0.36545835  0.44247815  1
  O  O380  1  0.28223162  0.36400452  0.77745056  1
  O  O381  1  0.31110761  0.85459675  0.11216752  1
  O  O382  1  0.27985795  0.86335648  0.44411887  1
  O  O383  1  0.30289952  0.86859025  0.78356795  1
  O  O384  1  0.76787149  0.35959368  0.10291654  1
  O  O385  1  0.77260098  0.36031497  0.44244007  1
  O  O386  1  0.77920206  0.35564789  0.77744120  1
  O  O387  1  0.76976703  0.86052411  0.10723532  1
  O  O388  1  0.76797568  0.85894017  0.43761371  1
  O  O389  1  0.78055837  0.86332417  0.77121190  1
  O  O390  1  0.36039201  0.28584703  0.27736216  1
  O  O391  1  0.36036785  0.28916265  0.61056268  1
  O  O392  1  0.36064790  0.28788180  0.94120425  1
  O  O393  1  0.36796260  0.77543598  0.27760278  1
  O  O394  1  0.36379927  0.77727337  0.60241226  1
  O  O395  1  0.36910184  0.78481462  0.94004205  1
  O  O396  1  0.85432122  0.28035857  0.28157576  1
  O  O397  1  0.85947299  0.27917431  0.60750496  1
  O  O398  1  0.86258484  0.28091978  0.93718299  1
  O  O399  1  0.85768606  0.76359554  0.27065609  1
  O  O400  1  0.86119099  0.76771992  0.60413904  1
  O  O401  1  0.85554411  0.77294142  0.93991066  1
  O  O402  1  0.24054079  0.13089096  0.23382874  1
  O  O403  1  0.23061471  0.14221558  0.56563058  1
  O  O404  1  0.22078554  0.14088137  0.88902094  1
  O  O405  1  0.22525789  0.64381712  0.22658264  1
  O  O406  1  0.22628521  0.63872730  0.55527096  1
  O  O407  1  0.22125398  0.64102485  0.89538081  1
  O  O408  1  0.72782513  0.13611694  0.22630598  1
  O  O409  1  0.72048447  0.13351300  0.55838684  1
  O  O410  1  0.71547418  0.13655017  0.88489291  1
  O  O411  1  0.71591802  0.63505778  0.22275498  1
  O  O412  1  0.71540663  0.63832591  0.55660303  1
  O  O413  1  0.71622324  0.63073629  0.88433332  1
  O  O414  1  0.49204224  0.34156258  0.02887066  1
  O  O415  1  0.49081676  0.33791008  0.36583158  1
  O  O416  1  0.49121105  0.33844404  0.69897678  1
  O  O417  1  0.49960476  0.82674467  0.02930025  1
  O  O418  1  0.49881723  0.82332573  0.36405217  1
  O  O419  1  0.49444304  0.82620612  0.69189746  1
  O  O420  1  0.99571088  0.33808735  0.02030873  1
  O  O421  1  0.98632709  0.33038921  0.36698263  1
  O  O422  1  0.98995240  0.33411998  0.69629187  1
  O  O423  1  0.98157174  0.83888131  0.03073423  1
  O  O424  1  0.98465436  0.82742589  0.36108645  1
  O  O425  1  0.99183294  0.82625963  0.69309664  1
  O  O426  1  0.15468390  0.01152153  0.14751051  1
  O  O427  1  0.18014035  0.01341103  0.47165427  1
  O  O428  1  0.17353062  0.00859404  0.80038928  1
  O  O429  1  0.17001575  0.51492328  0.13680335  1
  O  O430  1  0.16877889  0.50834859  0.46983145  1
  O  O431  1  0.16640140  0.51215248  0.80460311  1
  O  O432  1  0.66173606  0.00730397  0.13846739  1
  O  O433  1  0.67063352  0.00477363  0.46570179  1
  O  O434  1  0.65626404  0.00703208  0.79565412  1
  O  O435  1  0.66205290  0.50373082  0.13759151  1
  O  O436  1  0.66478628  0.50554719  0.47184759  1
  O  O437  1  0.65798856  0.49913581  0.80235638  1
  O  O438  1  0.00835099  0.16084556  0.31166866  1
  O  O439  1  0.01472701  0.17314397  0.63560537  1
  O  O440  1  0.01062399  0.16945074  0.96115947  1
  O  O441  1  0.00871178  0.66742253  0.30343736  1
  O  O442  1  0.00290541  0.65685366  0.63248601  1
  O  O443  1  0.01022530  0.67759304  0.96777392  1
  O  O444  1  0.50983019  0.17187910  0.30182578  1
  O  O445  1  0.50281402  0.16890269  0.64263480  1
  O  O446  1  0.50448235  0.17741610  0.97217028  1
  O  O447  1  0.50591215  0.65864013  0.30292271  1
  O  O448  1  0.50650871  0.66184479  0.63492249  1
  O  O449  1  0.50581124  0.65844966  0.97001209  1
  O  O450  1  0.33681332  0.49726831  0.19507912  1
  O  O451  1  0.33637165  0.49492814  0.53160087  1
  O  O452  1  0.33287159  0.49675025  0.86187824  1
  O  O453  1  0.34024290  0.98910137  0.19490945  1
  O  O454  1  0.34045570  0.99211374  0.53571514  1
  O  O455  1  0.35346687  1.00519429  0.86122588  1
  O  O456  1  0.82721265  0.48691315  0.19314433  1
  O  O457  1  0.82822674  0.49123303  0.53043306  1
  O  O458  1  0.82614365  0.48977462  0.86117175  1
  O  O459  1  0.82608323  0.99082442  0.19190107  1
  O  O460  1  0.83008334  0.98570057  0.52946649  1
  O  O461  1  0.81779289  0.99250376  0.86466444  1
