# generated using pymatgen
data_Na31Fe20(SO4)36
_symmetry_space_group_name_H-M   'P 1'
_cell_length_a   18.07390936
_cell_length_b   18.07131510
_cell_length_c   19.71846669
_cell_angle_alpha   107.57252758
_cell_angle_beta   107.57010773
_cell_angle_gamma   90.74246244
_symmetry_Int_Tables_number   1
_chemical_formula_structural   Na31Fe20(SO4)36
_chemical_formula_sum   'Na62 Fe40 S72 O288'
_cell_volume   5814.93523704
_cell_formula_units_Z   2
loop_
 _symmetry_equiv_pos_site_id
 _symmetry_equiv_pos_as_xyz
  1  'x, y, z'
loop_
 _atom_site_type_symbol
 _atom_site_label
 _atom_site_symmetry_multiplicity
 _atom_site_fract_x
 _atom_site_fract_y
 _atom_site_fract_z
 _atom_site_occupancy
  Na  Na0  1  0.12809568  0.36632901  0.07510806  1
  Na  Na1  1  0.13762634  0.36759510  0.41584119  1
  Na  Na2  1  0.14279393  0.36183627  0.76187303  1
  Na  Na3  1  0.13128835  0.87348575  0.08146924  1
  Na  Na4  1  0.14467345  0.86650371  0.42406247  1
  Na  Na5  1  0.14139248  0.87710068  0.76420114  1
  Na  Na6  1  0.64129317  0.36773004  0.09792044  1
  Na  Na7  1  0.62501390  0.34625709  0.40324604  1
  Na  Na8  1  0.63555678  0.36634148  0.75533411  1
  Na  Na9  1  0.63460367  0.86558559  0.08569902  1
  Na  Na10  1  0.63267723  0.86932916  0.41189900  1
  Na  Na11  1  0.62876361  0.85942561  0.74634356  1
  Na  Na12  1  0.37897508  0.14272468  0.26233181  1
  Na  Na13  1  0.35917759  0.12909056  0.57505292  1
  Na  Na14  1  0.35100414  0.13439035  0.91207766  1
  Na  Na15  1  0.36417112  0.63594848  0.24997211  1
  Na  Na16  1  0.36627155  0.65195305  0.60427972  1
  Na  Na17  1  0.35488039  0.65124968  0.92097172  1
  Na  Na18  1  0.87374950  0.13090212  0.24997717  1
  Na  Na19  1  0.87292937  0.11871233  0.57546866  1
  Na  Na20  1  0.94824147  0.07024190  0.90314894  1
  Na  Na21  1  0.85478261  0.62789738  0.24417915  1
  Na  Na22  1  0.86569192  0.62892556  0.58104281  1
  Na  Na23  1  0.86637709  0.63298535  0.91942108  1
  Na  Na24  1  0.94718163  0.50112258  0.39682985  1
  Na  Na25  1  0.99417539  0.49989832  0.75792479  1
  Na  Na26  1  0.50154458  0.49652445  0.42232909  1
  Na  Na27  1  0.48873999  0.50850138  0.08477722  1
  Na  Na28  1  1.03843711  -0.01310951  0.37014400  1
  Na  Na29  1  0.48430814  0.52177035  0.74745607  1
  Na  Na30  1  0.49289950  0.02127772  0.41091741  1
  Na  Na31  1  0.47188344  0.03018928  0.08192605  1
  Na  Na32  1  0.48443666  0.00516347  0.74780671  1
  Na  Na33  1  0.50849895  0.45058019  0.57336072  1
  Na  Na34  1  0.54305870  1.00307895  0.25603119  1
  Na  Na35  1  0.51545260  0.47718406  0.25271280  1
  Na  Na36  1  0.00236674  0.49046056  0.23441986  1
  Na  Na37  1  0.49490478  0.94577645  0.89402276  1
  Na  Na38  1  0.00628500  0.48503806  0.93587689  1
  Na  Na39  1  0.51289576  0.99075197  0.58245301  1
  Na  Na40  1  0.01130305  0.48745620  0.58166431  1
  Na  Na41  1  0.50912541  0.49613535  0.91664056  1
  Na  Na42  1  0.25442628  0.75852957  0.32906545  1
  Na  Na43  1  0.72650340  0.22325757  0.33302181  1
  Na  Na44  1  0.24172508  0.23990187  0.67508099  1
  Na  Na45  1  0.23972078  0.24772705  -0.00404229  1
  Na  Na46  1  0.74126555  0.74304726  0.01294895  1
  Na  Na47  1  0.75105920  0.24637522  0.00270558  1
  Na  Na48  1  0.75828836  0.75223839  0.66217802  1
  Na  Na49  1  0.74820901  0.24098546  0.66864801  1
  Na  Na50  1  0.75724739  0.76060040  0.31655904  1
  Na  Na51  1  0.25988115  0.25422790  0.33818838  1
  Na  Na52  1  0.74746344  0.24893103  0.17411096  1
  Na  Na53  1  0.24430529  0.23349743  0.49926578  1
  Na  Na54  1  0.27118567  0.77312623  0.82212701  1
  Na  Na55  1  0.75349893  0.24327590  0.83997155  1
  Na  Na56  1  0.24354959  0.74384208  0.51416802  1
  Na  Na57  1  0.25596913  0.76640449  0.15196363  1
  Na  Na58  1  0.74442202  0.74491483  0.83682048  1
  Na  Na59  1  0.26149109  0.25043872  0.17034134  1
  Na  Na60  1  0.75801896  0.75876504  0.49107283  1
  Na  Na61  1  0.74485406  0.23129296  0.50366982  1
  Fe  Fe62  1  0.97153285  0.29527901  0.78914087  1
  Fe  Fe63  1  0.46791992  0.29825363  0.12153801  1
  Fe  Fe64  1  0.46676431  0.80514709  0.45191284  1
  Fe  Fe65  1  0.96619226  0.80898422  0.79240664  1
  Fe  Fe66  1  0.45985171  0.30997203  0.78794277  1
  Fe  Fe67  1  0.96624783  0.81018468  0.45787742  1
  Fe  Fe68  1  0.46162051  0.81552790  0.12087733  1
  Fe  Fe69  1  0.96245636  0.81165081  0.12403666  1
  Fe  Fe70  1  0.96622802  0.30414944  0.44504579  1
  Fe  Fe71  1  0.96844323  0.30179498  0.11370265  1
  Fe  Fe72  1  0.69234535  0.03671821  0.71467100  1
  Fe  Fe73  1  0.19819502  0.03194143  0.03431985  1
  Fe  Fe74  1  0.19539589  0.54137021  0.05259559  1
  Fe  Fe75  1  0.69476188  0.53479494  0.05451765  1
  Fe  Fe76  1  0.69497614  0.53197884  0.71420243  1
  Fe  Fe77  1  0.70058978  0.52811107  0.37919642  1
  Fe  Fe78  1  0.18938534  0.03508665  0.71398616  1
  Fe  Fe79  1  0.19220249  0.53459925  0.71849849  1
  Fe  Fe80  1  0.18992652  0.53800410  0.38316842  1
  Fe  Fe81  1  0.69127997  0.03594276  0.04324070  1
  Fe  Fe82  1  0.03603494  0.69330523  0.55288504  1
  Fe  Fe83  1  0.03728287  0.18853492  0.54210118  1
  Fe  Fe84  1  0.53141777  0.19437022  0.88042314  1
  Fe  Fe85  1  0.52992489  0.69941940  0.88062407  1
  Fe  Fe86  1  0.53354419  0.69283644  0.54962901  1
  Fe  Fe87  1  0.03733310  0.69281155  0.88622576  1
  Fe  Fe88  1  0.03934398  0.18737586  0.20895925  1
  Fe  Fe89  1  0.53100298  0.19978530  0.54448192  1
  Fe  Fe90  1  0.03285915  0.69206890  0.21424825  1
  Fe  Fe91  1  0.53435665  0.69489737  0.21592458  1
  Fe  Fe92  1  0.30037123  0.97201783  0.28868844  1
  Fe  Fe93  1  0.81002601  0.46025121  0.62018140  1
  Fe  Fe94  1  0.30576209  0.46945340  0.28637102  1
  Fe  Fe95  1  0.30395552  0.46668760  0.61612933  1
  Fe  Fe96  1  0.80946412  0.96496569  0.62199042  1
  Fe  Fe97  1  0.30573992  0.96414593  0.61667700  1
  Fe  Fe98  1  0.80267871  0.96708387  0.28853140  1
  Fe  Fe99  1  0.81247179  0.96399596  0.95793318  1
  Fe  Fe100  1  0.30606235  0.46780912  0.95163160  1
  Fe  Fe101  1  0.80889330  0.46577301  0.95786514  1
  S  S102  1  0.35592859  0.14430088  0.08010952  1
  S  S103  1  0.36061011  0.13913983  0.42165542  1
  S  S104  1  0.35799772  0.14026657  0.74707087  1
  S  S105  1  0.36153536  0.64326946  0.08488892  1
  S  S106  1  0.35790317  0.64335519  0.41813469  1
  S  S107  1  0.35800952  0.63890685  0.75286167  1
  S  S108  1  0.86060619  0.13882536  0.07870829  1
  S  S109  1  0.86194042  0.14144012  0.41123747  1
  S  S110  1  0.85668885  0.13883358  0.74766711  1
  S  S111  1  0.85886678  0.64082797  0.08608941  1
  S  S112  1  0.86010401  0.64247007  0.41952856  1
  S  S113  1  0.86225179  0.63645286  0.75195902  1
  S  S114  1  0.14085276  0.36274787  0.24866841  1
  S  S115  1  0.13990347  0.36095434  0.58189658  1
  S  S116  1  0.13762603  0.36926501  0.91993269  1
  S  S117  1  0.13709135  0.85678571  0.25007401  1
  S  S118  1  0.13969436  0.85892851  0.58494262  1
  S  S119  1  0.14120725  0.85531666  0.91648213  1
  S  S120  1  0.63977795  0.35792254  0.25140500  1
  S  S121  1  0.64710225  0.35765387  0.58726747  1
  S  S122  1  0.63691152  0.36268864  0.91745266  1
  S  S123  1  0.63780468  0.85974913  0.25208917  1
  S  S124  1  0.64077709  0.85807680  0.58384090  1
  S  S125  1  0.64423104  0.85812373  0.91452542  1
  S  S126  1  0.08050244  0.17915855  0.04639933  1
  S  S127  1  0.07456893  0.17564544  0.37652646  1
  S  S128  1  0.07119731  0.17366206  0.70438550  1
  S  S129  1  0.06540975  0.67100802  0.04616603  1
  S  S130  1  0.06450482  0.66964461  0.37707056  1
  S  S131  1  0.06627444  0.66430321  0.71137746  1
  S  S132  1  0.56613487  0.17024881  0.03885367  1
  S  S133  1  0.56499275  0.16975792  0.38061150  1
  S  S134  1  0.56590503  0.17460698  0.71062288  1
  S  S135  1  0.56536136  0.66638223  0.04089869  1
  S  S136  1  0.56625792  0.66528254  0.37687919  1
  S  S137  1  0.56703003  0.65619271  0.70530798  1
  S  S138  1  0.33133991  0.43889153  0.12423828  1
  S  S139  1  0.33054884  0.44491427  0.45986335  1
  S  S140  1  0.33121526  0.43592629  0.79187418  1
  S  S141  1  0.33198244  0.94195451  0.12995751  1
  S  S142  1  0.33501012  0.92930131  0.45791471  1
  S  S143  1  0.33069906  0.94251426  0.78525493  1
  S  S144  1  0.82890873  0.43071335  0.12335624  1
  S  S145  1  0.83204653  0.42833235  0.45897138  1
  S  S146  1  0.83241743  0.43148734  0.79287833  1
  S  S147  1  0.82645215  0.93202681  0.12314214  1
  S  S148  1  0.82559454  0.92716147  0.45507710  1
  S  S149  1  0.82111519  0.92625596  0.78684385  1
  S  S150  1  0.43204288  0.34557516  0.29565455  1
  S  S151  1  0.43273670  0.33239952  0.62743168  1
  S  S152  1  0.43122545  0.33448245  0.96018378  1
  S  S153  1  0.42962646  0.83025953  0.29031893  1
  S  S154  1  0.43774721  0.83314758  0.62186436  1
  S  S155  1  0.44033604  0.83367515  0.96193533  1
  S  S156  1  0.94232730  0.33050421  0.28444031  1
  S  S157  1  0.93610174  0.32823428  0.62578678  1
  S  S158  1  0.92797890  0.33666288  0.95886727  1
  S  S159  1  0.93118383  0.82729173  0.29324067  1
  S  S160  1  0.92998864  0.82388519  0.62526073  1
  S  S161  1  0.92817194  0.82285489  0.95662778  1
  S  S162  1  0.18023006  0.07379414  0.20354253  1
  S  S163  1  0.16900144  0.06344875  0.54230706  1
  S  S164  1  0.16251117  0.06656942  0.87446612  1
  S  S165  1  0.17004541  0.56932058  0.21245075  1
  S  S166  1  0.16525668  0.56645271  0.54216496  1
  S  S167  1  0.16793936  0.56888834  0.87607626  1
  S  S168  1  0.66961699  0.06263599  0.20116988  1
  S  S169  1  0.66157672  0.06454980  0.54226785  1
  S  S170  1  0.66334931  0.06839275  0.87182856  1
  S  S171  1  0.66280425  0.56846828  0.21050661  1
  S  S172  1  0.67294737  0.56507957  0.54346858  1
  S  S173  1  0.66795619  0.56671229  0.87729117  1
  O  O174  1  0.36300385  0.22737023  0.07770310  1
  O  O175  1  0.36692725  0.21500699  0.41042617  1
  O  O176  1  0.36897050  0.21926974  0.73872832  1
  O  O177  1  0.37114049  0.72193339  0.07816527  1
  O  O178  1  0.36835715  0.72080932  0.40721148  1
  O  O179  1  0.36614682  0.71464720  0.74338020  1
  O  O180  1  0.87233440  0.21802011  0.07163278  1
  O  O181  1  0.87432646  0.21757462  0.39633942  1
  O  O182  1  0.86919838  0.21772119  0.73872988  1
  O  O183  1  0.86735477  0.72066886  0.07989134  1
  O  O184  1  0.86584837  0.72510938  0.41897617  1
  O  O185  1  0.87052837  0.71546380  0.74426139  1
  O  O186  1  0.27002341  0.13205623  0.07448644  1
  O  O187  1  0.28751579  0.12294887  0.43456982  1
  O  O188  1  0.27802030  0.13157809  0.75142278  1
  O  O189  1  0.28366433  0.63507479  0.09591408  1
  O  O190  1  0.27833993  0.63628441  0.42539353  1
  O  O191  1  0.27983196  0.62558955  0.76227065  1
  O  O192  1  0.77967991  0.13311109  0.08457256  1
  O  O193  1  0.78411795  0.13620004  0.41833385  1
  O  O194  1  0.77344698  0.13467579  0.75002360  1
  O  O195  1  0.77972127  0.62932635  0.09289098  1
  O  O196  1  0.78263047  0.62911547  0.43024109  1
  O  O197  1  0.78364418  0.62736160  0.76149696  1
  O  O198  1  0.13618132  0.28461109  0.25824072  1
  O  O199  1  0.13264906  0.28048588  0.58621942  1
  O  O200  1  0.13090887  0.29659304  0.93544745  1
  O  O201  1  0.12977885  0.77479408  0.25462264  1
  O  O202  1  0.13048844  0.77909892  0.59078155  1
  O  O203  1  0.12469199  0.78181236  0.93207236  1
  O  O204  1  0.63011028  0.28340193  0.26437024  1
  O  O205  1  0.63285958  0.27857082  0.59455254  1
  O  O206  1  0.62865335  0.28296942  0.92364232  1
  O  O207  1  0.62645796  0.78005607  0.26062172  1
  O  O208  1  0.63142026  0.77993516  0.59425091  1
  O  O209  1  0.63631496  0.77734367  0.92057892  1
  O  O210  1  0.21853483  0.37475113  0.23873479  1
  O  O211  1  0.21706636  0.37117454  0.57023800  1
  O  O212  1  0.21367469  0.38168033  0.90703162  1
  O  O213  1  0.21751195  0.86764662  0.24455678  1
  O  O214  1  0.21764051  0.86820601  0.57399749  1
  O  O215  1  0.21325290  0.85637107  0.89879140  1
  O  O216  1  0.71273942  0.36925600  0.23629006  1
  O  O217  1  0.72949002  0.36223690  0.58563774  1
  O  O218  1  0.71282659  0.37162749  0.90361969  1
  O  O219  1  0.71844990  0.86632555  0.24809234  1
  O  O220  1  0.72182970  0.86692054  0.58047940  1
  O  O221  1  0.72596799  0.86909321  0.91171243  1
  O  O222  1  0.40497667  0.13734222  0.15132672  1
  O  O223  1  0.42624126  0.13385038  0.49042102  1
  O  O224  1  0.41631869  0.13377576  0.81610956  1
  O  O225  1  0.42131623  0.63222528  0.15167850  1
  O  O226  1  0.41609452  0.63634200  0.48695989  1
  O  O227  1  0.41814444  0.62948562  0.82092168  1
  O  O228  1  0.91737235  0.13042399  0.14711608  1
  O  O229  1  0.92132605  0.13911918  0.48192326  1
  O  O230  1  0.91063344  0.13001847  0.81438026  1
  O  O231  1  0.91784826  0.63195504  0.15353519  1
  O  O232  1  0.92127814  0.63119334  0.48601299  1
  O  O233  1  0.92209641  0.62616808  0.81841744  1
  O  O234  1  0.37270922  0.09100256  0.01574296  1
  O  O235  1  0.37328021  0.07705369  0.35627121  1
  O  O236  1  0.37048059  0.08115528  0.68059914  1
  O  O237  1  0.36811511  0.58365910  0.01627632  1
  O  O238  1  0.36638902  0.58355296  0.35086264  1
  O  O239  1  0.36727952  0.57609708  0.68589967  1
  O  O240  1  0.86608103  0.07956065  0.00983482  1
  O  O241  1  0.87186189  0.07819721  0.34660152  1
  O  O242  1  0.86031672  0.07979818  0.67695363  1
  O  O243  1  0.86599376  0.58370680  0.01654322  1
  O  O244  1  0.86745533  0.58857324  0.35048734  1
  O  O245  1  0.86874802  0.57746561  0.68300813  1
  O  O246  1  0.07967441  0.37105725  0.18161952  1
  O  O247  1  0.07788680  0.37341729  0.51772277  1
  O  O248  1  0.07469844  0.37418260  0.85161550  1
  O  O249  1  0.08010985  0.86196809  0.17940064  1
  O  O250  1  0.08038098  0.86638700  0.51668241  1
  O  O251  1  0.07561589  0.86470061  0.85240117  1
  O  O252  1  0.57408164  0.36694742  0.18528163  1
  O  O253  1  0.59345080  0.37103870  0.52135073  1
  O  O254  1  0.57417624  0.37365935  0.85252196  1
  O  O255  1  0.58148757  0.86379694  0.18012711  1
  O  O256  1  0.58507530  0.86291434  0.51266640  1
  O  O257  1  0.58788703  0.86592318  0.84684014  1
  O  O258  1  0.13201504  0.42206078  0.31657328  1
  O  O259  1  0.13481873  0.41767215  0.65286458  1
  O  O260  1  0.12873106  0.43520688  0.98514969  1
  O  O261  1  0.12663853  0.91188676  0.31683061  1
  O  O262  1  0.13329850  0.91750796  0.65349521  1
  O  O263  1  0.14257679  0.92025559  0.98673754  1
  O  O264  1  0.63230113  0.42192493  0.31918062  1
  O  O265  1  0.63924373  0.41582422  0.65697990  1
  O  O266  1  0.63167654  0.42078221  0.98729459  1
  O  O267  1  0.62437100  0.91913907  0.31493869  1
  O  O268  1  0.62738457  0.91888893  0.64805869  1
  O  O269  1  0.63438308  0.91573941  0.98256573  1
  O  O270  1  0.04056700  0.20144889  0.10725461  1
  O  O271  1  0.03548924  0.20887103  0.43655626  1
  O  O272  1  0.03679898  0.20164286  0.76526312  1
  O  O273  1  0.02541766  0.69836418  0.10437875  1
  O  O274  1  0.02769342  0.69888716  0.43764491  1
  O  O275  1  0.03078187  0.69434117  0.77272362  1
  O  O276  1  0.53035385  0.19782527  0.09876796  1
  O  O277  1  0.53638104  0.20331789  0.44694805  1
  O  O278  1  0.53017948  0.20376693  0.77226679  1
  O  O279  1  0.53071006  0.69623494  0.10259445  1
  O  O280  1  0.53025315  0.69609682  0.43850373  1
  O  O281  1  0.53383700  0.67497649  0.76726658  1
  O  O282  1  0.29961444  0.47465757  0.06224741  1
  O  O283  1  0.29190275  0.47723886  0.39664819  1
  O  O284  1  0.29772623  0.46727231  0.72798401  1
  O  O285  1  0.30258079  0.97979606  0.07097598  1
  O  O286  1  0.30737360  0.95770863  0.39374292  1
  O  O287  1  0.28947736  0.97623854  0.72066436  1
  O  O288  1  0.79542954  0.46439715  0.05849859  1
  O  O289  1  0.80425365  0.46612614  0.40054534  1
  O  O290  1  0.80311792  0.46871250  0.73206076  1
  O  O291  1  0.79982273  0.97345554  0.06480828  1
  O  O292  1  0.80644447  0.96471871  0.39657497  1
  O  O293  1  0.79347018  0.96755091  0.72901309  1
  O  O294  1  0.45541205  0.31594458  0.22780964  1
  O  O295  1  0.47339066  0.30473813  0.57093372  1
  O  O296  1  0.46572193  0.30253246  0.89733439  1
  O  O297  1  0.46566788  0.80177864  0.22865732  1
  O  O298  1  0.47121966  0.79929725  0.55727617  1
  O  O299  1  0.47816572  0.80165231  0.90262251  1
  O  O300  1  0.97732607  0.28989481  0.22378677  1
  O  O301  1  0.97187821  0.30123522  0.56450700  1
  O  O302  1  0.95581324  0.30852798  0.89389184  1
  O  O303  1  0.96828325  0.79798650  0.23211905  1
  O  O304  1  0.96986495  0.79526260  0.56636901  1
  O  O305  1  0.96399445  0.79007443  0.89522958  1
  O  O306  1  0.20452065  0.03268251  0.25963293  1
  O  O307  1  0.19920326  0.03043915  0.60729866  1
  O  O308  1  0.19440431  0.02468983  0.93159698  1
  O  O309  1  0.20223734  0.53421671  0.27451278  1
  O  O310  1  0.19696761  0.53156941  0.60429383  1
  O  O311  1  0.20490705  0.54110470  0.94175455  1
  O  O312  1  0.70213735  0.02677477  0.26101506  1
  O  O313  1  0.69183387  0.03106477  0.60629677  1
  O  O314  1  0.69366163  0.03274942  0.93274115  1
  O  O315  1  0.68837353  0.53708241  0.27308520  1
  O  O316  1  0.70217994  0.52700112  0.60370767  1
  O  O317  1  0.69802135  0.53144719  0.93870009  1
  O  O318  1  0.10597098  0.09927323  0.04022376  1
  O  O319  1  0.09743426  0.09998045  0.37966909  1
  O  O320  1  0.09638930  0.09471287  0.70167361  1
  O  O321  1  0.08784967  0.59097063  0.04319399  1
  O  O322  1  0.08097080  0.58688387  0.37060597  1
  O  O323  1  0.08025301  0.58001058  0.70516468  1
  O  O324  1  0.58309199  0.08754199  0.02992828  1
  O  O325  1  0.57568795  0.08689882  0.37367645  1
  O  O326  1  0.57964115  0.09096852  0.70238559  1
  O  O327  1  0.58309471  0.58347584  0.03684685  1
  O  O328  1  0.58228404  0.58310206  0.37202688  1
  O  O329  1  0.58203843  0.57092734  0.68801931  1
  O  O330  1  0.41379680  0.42472686  0.12912069  1
  O  O331  1  0.41290746  0.43955145  0.46495923  1
  O  O332  1  0.41519216  0.42406841  0.79811003  1
  O  O333  1  0.41422224  0.92361806  0.13242984  1
  O  O334  1  0.41959096  0.91414846  0.46896743  1
  O  O335  1  0.40696428  0.92365634  0.77507572  1
  O  O336  1  0.90785152  0.40722434  0.12312364  1
  O  O337  1  0.91561267  0.41250607  0.46345584  1
  O  O338  1  0.91482851  0.41612500  0.79931667  1
  O  O339  1  0.90522299  0.90934977  0.12455450  1
  O  O340  1  0.90636986  0.90503789  0.46892590  1
  O  O341  1  0.89916060  0.90279248  0.78739766  1
  O  O342  1  0.41287820  0.42988480  0.30084619  1
  O  O343  1  0.41461173  0.41476472  0.63006964  1
  O  O344  1  0.41744414  0.41828264  0.96354444  1
  O  O345  1  0.41242667  0.91180810  0.29907889  1
  O  O346  1  0.41952390  0.91498971  0.62250342  1
  O  O347  1  0.43344285  0.91682860  0.97096007  1
  O  O348  1  0.93585416  0.41159865  0.28426631  1
  O  O349  1  0.92037770  0.41236752  0.63342364  1
  O  O350  1  0.91516839  0.42159819  0.96967907  1
  O  O351  1  0.90841432  0.90636775  0.29477762  1
  O  O352  1  0.90651283  0.90184331  0.62663884  1
  O  O353  1  0.90845536  0.90171321  0.95625055  1
  O  O354  1  0.09963112  0.09331251  0.19770946  1
  O  O355  1  0.08953707  0.08688280  0.53823888  1
  O  O356  1  0.08114885  0.07574067  0.86480196  1
  O  O357  1  0.08908077  0.58622121  0.21052593  1
  O  O358  1  0.08279278  0.58184775  0.53867969  1
  O  O359  1  0.08495470  0.58203404  0.87348861  1
  O  O360  1  0.58805455  0.07587088  0.19552557  1
  O  O361  1  0.58342643  0.09311304  0.54578761  1
  O  O362  1  0.57995356  0.08299872  0.86389366  1
  O  O363  1  0.57837779  0.58440130  0.19925101  1
  O  O364  1  0.59115872  0.58370405  0.53799519  1
  O  O365  1  0.58543326  0.58272064  0.87130612  1
  O  O366  1  0.14985806  0.23768816  0.07135234  1
  O  O367  1  0.14296460  0.23248652  0.39232326  1
  O  O368  1  0.13824441  0.22873506  0.71531625  1
  O  O369  1  0.13362806  0.72598803  0.06217996  1
  O  O370  1  0.13693545  0.72064660  0.39440148  1
  O  O371  1  0.13773131  0.71280412  0.72497876  1
  O  O372  1  0.63887635  0.22159116  0.05527106  1
  O  O373  1  0.64159380  0.21644937  0.39864769  1
  O  O374  1  0.63963024  0.22464961  0.72996510  1
  O  O375  1  0.63558183  0.71653572  0.05296438  1
  O  O376  1  0.63765881  0.71634894  0.39245651  1
  O  O377  1  0.63991535  0.70705979  0.72350598  1
  O  O378  1  0.28089570  0.36728173  0.10838713  1
  O  O379  1  0.28618066  0.36950765  0.44566541  1
  O  O380  1  0.28524760  0.36274632  0.77916761  1
  O  O381  1  0.28094085  0.87049706  0.11449846  1
  O  O382  1  0.28598613  0.85720982  0.44657454  1
  O  O383  1  0.27976852  0.87280928  0.77388881  1
  O  O384  1  0.77481624  0.36082829  0.10797155  1
  O  O385  1  0.78272876  0.35666568  0.44546903  1
  O  O386  1  0.78064221  0.35964843  0.77540871  1
  O  O387  1  0.77006881  0.86338191  0.10376771  1
  O  O388  1  0.76856825  0.85664033  0.43377998  1
  O  O389  1  0.76455803  0.85698083  0.76811730  1
  O  O390  1  0.36128653  0.29753592  0.28838188  1
  O  O391  1  0.36087829  0.28140651  0.61089140  1
  O  O392  1  0.35902353  0.28725955  0.94654420  1
  O  O393  1  0.35836245  0.77670389  0.27197626  1
  O  O394  1  0.36589736  0.78301185  0.60612544  1
  O  O395  1  0.36543742  0.78619353  0.94228271  1
  O  O396  1  0.86764204  0.28547117  0.27034296  1
  O  O397  1  0.86391772  0.27760592  0.60887385  1
  O  O398  1  0.85474636  0.29135076  0.94868630  1
  O  O399  1  0.86505909  0.77095076  0.28017655  1
  O  O400  1  0.86006558  0.76724758  0.60607309  1
  O  O401  1  0.85794140  0.76937350  0.94188468  1
  O  O402  1  0.23484975  0.14533753  0.22400914  1
  O  O403  1  0.22390743  0.13392147  0.55960025  1
  O  O404  1  0.21494749  0.13884274  0.89556639  1
  O  O405  1  0.22142898  0.64050722  0.22708983  1
  O  O406  1  0.21503928  0.63732949  0.55524112  1
  O  O407  1  0.21307423  0.63892200  0.88116058  1
  O  O408  1  0.72009429  0.13572768  0.21649117  1
  O  O409  1  0.71801985  0.13166530  0.55504878  1
  O  O410  1  0.71193899  0.14103214  0.88668149  1
  O  O411  1  0.71300088  0.63904199  0.22272438  1
  O  O412  1  0.72547869  0.63652773  0.56159799  1
  O  O413  1  0.71926270  0.63846785  0.89310828  1
  O  O414  1  0.49197247  0.33828491  0.03239162  1
  O  O415  1  0.49645795  0.35439027  0.36463675  1
  O  O416  1  0.48944864  0.33890194  0.70320407  1
  O  O417  1  0.49541945  0.82722758  0.03452253  1
  O  O418  1  0.48948072  0.82794699  0.36115348  1
  O  O419  1  0.49852827  0.83728283  0.69123589  1
  O  O420  1  0.99035080  0.33487053  0.02813399  1
  O  O421  1  0.99803692  0.33287203  0.35958943  1
  O  O422  1  0.99401848  0.33101367  0.69910742  1
  O  O423  1  0.98759710  0.82701133  0.02913800  1
  O  O424  1  0.99349342  0.83565758  0.36655853  1
  O  O425  1  0.98792115  0.82651704  0.69807570  1
  O  O426  1  0.17872042  0.01799691  0.12838741  1
  O  O427  1  0.16442283  0.00158436  0.47292793  1
  O  O428  1  0.17151663  0.01178687  0.80159784  1
  O  O429  1  0.16796562  0.51004739  0.14042948  1
  O  O430  1  0.16167105  0.50615703  0.46960582  1
  O  O431  1  0.16206559  0.50335483  0.80511108  1
  O  O432  1  0.66971751  0.00526155  0.12731624  1
  O  O433  1  0.64804315  0.00204749  0.47171024  1
  O  O434  1  0.66235626  0.00874581  0.79923928  1
  O  O435  1  0.66207862  0.50677537  0.13899131  1
  O  O436  1  0.67099453  0.50671015  0.47087788  1
  O  O437  1  0.66668387  0.50786086  0.80464730  1
  O  O438  1  0.01553851  0.16991951  0.30241741  1
  O  O439  1  0.00930685  0.16575410  0.63089750  1
  O  O440  1  0.02316556  0.18001822  0.97732102  1
  O  O441  1  0.00616059  0.66769158  0.30430659  1
  O  O442  1  0.00596689  0.66071604  0.63840784  1
  O  O443  1  0.00609205  0.66328140  0.97155677  1
  O  O444  1  0.50850789  0.17706416  0.31316529  1
  O  O445  1  0.50862258  0.17776106  0.63957699  1
  O  O446  1  0.50745656  0.17127938  0.96642582  1
  O  O447  1  0.50665861  0.66443882  0.30481916  1
  O  O448  1  0.50774202  0.66376903  0.63646554  1
  O  O449  1  0.50452281  0.66015516  0.96752216  1
  O  O450  1  0.33153936  0.49871901  0.19573047  1
  O  O451  1  0.32668636  0.50243221  0.53171021  1
  O  O452  1  0.33204287  0.49688708  0.86311858  1
  O  O453  1  0.33868538  0.99849964  0.20536871  1
  O  O454  1  0.33416424  0.99057062  0.52871697  1
  O  O455  1  0.34246397  1.00348463  0.85684672  1
  O  O456  1  0.83516230  0.49304384  0.19262517  1
  O  O457  1  0.83818786  0.48724452  0.53408081  1
  O  O458  1  0.83161613  0.49041991  0.86472523  1
  O  O459  1  0.83113102  0.98926096  0.19702820  1
  O  O460  1  0.82099429  0.98477571  0.52630369  1
  O  O461  1  0.82671373  0.98381224  0.86079346  1
