# generated using pymatgen
data_Na31Fe20(SO4)36
_symmetry_space_group_name_H-M   'P 1'
_cell_length_a   18.06756370
_cell_length_b   18.06982626
_cell_length_c   19.70401983
_cell_angle_alpha   107.55517158
_cell_angle_beta   107.58261161
_cell_angle_gamma   90.73541932
_symmetry_Int_Tables_number   1
_chemical_formula_structural   Na31Fe20(SO4)36
_chemical_formula_sum   'Na62 Fe40 S72 O288'
_cell_volume   5808.42288646
_cell_formula_units_Z   2
loop_
 _symmetry_equiv_pos_site_id
 _symmetry_equiv_pos_as_xyz
  1  'x, y, z'
loop_
 _atom_site_type_symbol
 _atom_site_label
 _atom_site_symmetry_multiplicity
 _atom_site_fract_x
 _atom_site_fract_y
 _atom_site_fract_z
 _atom_site_occupancy
  Na  Na0  1  0.13520822  0.36246494  0.07631689  1
  Na  Na1  1  0.13460041  0.37329642  0.41901169  1
  Na  Na2  1  0.14514266  0.36595193  0.76046752  1
  Na  Na3  1  0.12191050  0.86975284  0.07747780  1
  Na  Na4  1  0.14324680  0.86764651  0.41897863  1
  Na  Na5  1  0.12756594  0.86204283  0.74725427  1
  Na  Na6  1  0.63205590  0.36317728  0.07478826  1
  Na  Na7  1  0.63196966  0.36949500  0.41726826  1
  Na  Na8  1  0.64359329  0.36894030  0.76399696  1
  Na  Na9  1  0.63826361  0.85188449  0.08109749  1
  Na  Na10  1  0.64564739  0.87168742  0.42916980  1
  Na  Na11  1  0.62943593  0.84572019  0.72662587  1
  Na  Na12  1  0.36694774  0.12905390  0.24798820  1
  Na  Na13  1  0.36581488  0.12868167  0.58200439  1
  Na  Na14  1  0.35421144  0.16484293  0.92482725  1
  Na  Na15  1  0.35995033  0.63437101  0.24657665  1
  Na  Na16  1  0.36747277  0.63300802  0.57850179  1
  Na  Na17  1  0.37184473  0.63618981  0.92547630  1
  Na  Na18  1  0.86521347  0.13279396  0.24726111  1
  Na  Na19  1  0.85941453  0.13456558  0.58479097  1
  Na  Na20  1  0.87292335  0.12731002  0.91524025  1
  Na  Na21  1  0.86147483  0.63636781  0.24770521  1
  Na  Na22  1  0.86908073  0.67045684  0.61595484  1
  Na  Na23  1  0.86316525  0.62579070  0.91320995  1
  Na  Na24  1  0.51188652  -0.04302296  0.12979356  1
  Na  Na25  1  0.49130574  0.01084646  0.40239467  1
  Na  Na26  1  0.48787769  0.50874744  0.74857201  1
  Na  Na27  1  0.49328725  0.52743064  0.08416483  1
  Na  Na28  1  0.96933675  0.51387666  0.05277345  1
  Na  Na29  1  1.01725921  -0.00777232  0.41077868  1
  Na  Na30  1  0.49336159  0.55448307  0.42722421  1
  Na  Na31  1  0.97141797  -0.00971077  0.75697840  1
  Na  Na32  1  0.98716197  0.50942923  0.76693895  1
  Na  Na33  1  0.03666675  0.99278689  0.24462711  1
  Na  Na34  1  0.51078684  0.50167911  0.58124590  1
  Na  Na35  1  -0.01380564  1.00904330  0.58908750  1
  Na  Na36  1  0.51171298  0.49127641  0.24977232  1
  Na  Na37  1  0.50413691  0.98064645  0.60485386  1
  Na  Na38  1  0.03960792  0.49192100  0.27032328  1
  Na  Na39  1  0.51955770  0.47859485  0.91537750  1
  Na  Na40  1  -0.00311180  0.51537177  0.56270421  1
  Na  Na41  1  0.48341480  1.04548480  0.87585472  1
  Na  Na42  1  0.75064212  0.25261202  0.33010265  1
  Na  Na43  1  0.24921588  0.74581785  0.66697976  1
  Na  Na44  1  0.74897135  0.25420873  -0.00398220  1
  Na  Na45  1  0.24454744  0.23666116  0.68240645  1
  Na  Na46  1  0.74738433  0.24760489  0.67088080  1
  Na  Na47  1  0.24360577  0.24116192  0.33690315  1
  Na  Na48  1  0.26627898  0.76620615  -0.00029998  1
  Na  Na49  1  0.24536294  0.74239736  0.33436402  1
  Na  Na50  1  0.75144562  0.74687015  0.00106621  1
  Na  Na51  1  0.75433460  0.75966985  0.32632691  1
  Na  Na52  1  0.23840048  0.23233417  0.50438545  1
  Na  Na53  1  0.74874364  0.24933418  0.50071123  1
  Na  Na54  1  0.73891951  0.75170000  0.52366114  1
  Na  Na55  1  0.75152845  0.25436303  0.16203502  1
  Na  Na56  1  0.25562232  0.25716339  0.15856187  1
  Na  Na57  1  0.23866182  0.73492516  0.49966420  1
  Na  Na58  1  0.75366347  0.25128280  0.83691725  1
  Na  Na59  1  0.25566476  0.75881173  0.16071007  1
  Na  Na60  1  0.25106562  0.75110646  0.83371270  1
  Na  Na61  1  0.76570085  0.75903438  0.81510741  1
  Fe  Fe62  1  0.46477795  0.30768529  0.11468419  1
  Fe  Fe63  1  0.96404856  0.81145128  0.45232533  1
  Fe  Fe64  1  0.46890853  0.80718965  0.78862110  1
  Fe  Fe65  1  0.47238251  0.29464385  0.78940836  1
  Fe  Fe66  1  0.96418138  0.31077572  0.79092386  1
  Fe  Fe67  1  0.96591926  0.30680045  0.45289851  1
  Fe  Fe68  1  0.46485624  0.30596891  0.44937850  1
  Fe  Fe69  1  0.96167222  0.80701697  0.12028550  1
  Fe  Fe70  1  0.96557826  0.30688414  0.11782068  1
  Fe  Fe71  1  0.46733438  0.80079294  0.45897487  1
  Fe  Fe72  1  0.18575300  0.53450702  0.04247143  1
  Fe  Fe73  1  0.70168433  0.03184405  0.71089897  1
  Fe  Fe74  1  0.69395781  0.53410502  0.71831630  1
  Fe  Fe75  1  0.70207486  0.52994872  0.04701761  1
  Fe  Fe76  1  0.18723958  0.03592611  0.04300271  1
  Fe  Fe77  1  0.19212440  0.03462134  0.71708805  1
  Fe  Fe78  1  0.69384215  0.03249133  0.37805912  1
  Fe  Fe79  1  0.19326635  0.53240009  0.71251674  1
  Fe  Fe80  1  0.69399618  0.53860482  0.38481623  1
  Fe  Fe81  1  0.68900357  0.03574764  0.03958285  1
  Fe  Fe82  1  0.04072145  0.19112794  0.88196693  1
  Fe  Fe83  1  0.53591381  0.69281557  0.88473450  1
  Fe  Fe84  1  0.52870766  0.70480604  0.21082147  1
  Fe  Fe85  1  0.03359803  0.19108865  0.54756451  1
  Fe  Fe86  1  0.03255028  0.70121384  0.87993270  1
  Fe  Fe87  1  0.03320570  0.69365553  0.54510052  1
  Fe  Fe88  1  0.03387716  0.18937784  0.21030843  1
  Fe  Fe89  1  0.53468880  0.19448055  0.54658519  1
  Fe  Fe90  1  0.03401427  0.68925120  0.21324086  1
  Fe  Fe91  1  0.53259433  0.19084058  0.20909854  1
  Fe  Fe92  1  0.30691724  0.96517747  0.62237696  1
  Fe  Fe93  1  0.30711678  0.46166731  0.95146582  1
  Fe  Fe94  1  0.81075857  0.96457911  0.95107678  1
  Fe  Fe95  1  0.30464475  0.46429078  0.61573703  1
  Fe  Fe96  1  0.30843066  0.96555585  0.95698725  1
  Fe  Fe97  1  0.80762913  0.46493981  0.62017115  1
  Fe  Fe98  1  0.80907332  0.96409183  0.28299052  1
  Fe  Fe99  1  0.30034966  0.46939249  0.28759092  1
  Fe  Fe100  1  0.81065600  0.46760692  0.29029752  1
  Fe  Fe101  1  0.30040085  0.96644692  0.28982184  1
  S  S102  1  0.35785253  0.14151206  0.08084682  1
  S  S103  1  0.36095036  0.14078657  0.41532949  1
  S  S104  1  0.35816889  0.13648881  0.75129199  1
  S  S105  1  0.35557726  0.63698609  0.08389880  1
  S  S106  1  0.35437579  0.64178964  0.41224457  1
  S  S107  1  0.36100949  0.63835312  0.75082125  1
  S  S108  1  0.85761607  0.14252332  0.08306201  1
  S  S109  1  0.85829080  0.14179640  0.41560945  1
  S  S110  1  0.86436584  0.13903166  0.74876118  1
  S  S111  1  0.85869310  0.64227566  0.08611184  1
  S  S112  1  0.85670129  0.64386828  0.42012582  1
  S  S113  1  0.86270314  0.63532373  0.75278216  1
  S  S114  1  0.14093421  0.35387181  0.24886787  1
  S  S115  1  0.14103829  0.35768162  0.58315685  1
  S  S116  1  0.14034328  0.35986855  0.91336020  1
  S  S117  1  0.13743184  0.85645319  0.25069064  1
  S  S118  1  0.14193590  0.85977628  0.58146490  1
  S  S119  1  0.14350178  0.85880791  0.91785142  1
  S  S120  1  0.63974620  0.36181439  0.25207268  1
  S  S121  1  0.63791193  0.36128350  0.58223372  1
  S  S122  1  0.64078566  0.35763445  0.91736553  1
  S  S123  1  0.64245934  0.86305772  0.25060083  1
  S  S124  1  0.63724745  0.86700859  0.58121788  1
  S  S125  1  0.64404307  0.85760663  0.91710666  1
  S  S126  1  0.06726392  0.17278293  0.04420007  1
  S  S127  1  0.06058757  0.16747865  0.37465548  1
  S  S128  1  0.06600172  0.17103862  0.70808696  1
  S  S129  1  0.06525591  0.67051165  0.04266589  1
  S  S130  1  0.06388167  0.67372143  0.37747060  1
  S  S131  1  0.06917641  0.66230644  0.70597387  1
  S  S132  1  0.56634374  0.17277970  0.04320061  1
  S  S133  1  0.56973007  0.17134379  0.37419745  1
  S  S134  1  0.57442780  0.16994691  0.70721201  1
  S  S135  1  0.57079206  0.66193030  0.04194772  1
  S  S136  1  0.56901600  0.67380999  0.37356139  1
  S  S137  1  0.56310193  0.66119802  0.71076173  1
  S  S138  1  0.32980825  0.43098424  0.12560471  1
  S  S139  1  0.33469688  0.43090083  0.45728963  1
  S  S140  1  0.33351546  0.43361752  0.78913145  1
  S  S141  1  0.32023261  0.93310248  0.12331109  1
  S  S142  1  0.33420583  0.92918400  0.46045445  1
  S  S143  1  0.32739570  0.92908213  0.79166553  1
  S  S144  1  0.83338292  0.43293424  0.12988513  1
  S  S145  1  0.82905020  0.43158655  0.45777574  1
  S  S146  1  0.82940785  0.43163576  0.78891021  1
  S  S147  1  0.83129257  0.93558662  0.12386619  1
  S  S148  1  0.83656435  0.94059978  0.45547001  1
  S  S149  1  0.82475757  0.93178228  0.78925247  1
  S  S150  1  0.43393967  0.33451199  0.28959447  1
  S  S151  1  0.43142738  0.32663705  0.62469253  1
  S  S152  1  0.43331114  0.34365412  0.96195182  1
  S  S153  1  0.42668115  0.82721781  0.29405551  1
  S  S154  1  0.42597604  0.82604322  0.62419304  1
  S  S155  1  0.43597697  0.83016606  0.95744985  1
  S  S156  1  0.93341518  0.33010290  0.29120954  1
  S  S157  1  0.93380131  0.32995045  0.62473557  1
  S  S158  1  0.93484890  0.32666421  0.95544837  1
  S  S159  1  0.93519200  0.83182181  0.29236700  1
  S  S160  1  0.94237194  0.83541647  0.62103370  1
  S  S161  1  0.92797233  0.82279475  0.95745463  1
  S  S162  1  0.17249147  0.06709204  0.20874143  1
  S  S163  1  0.16691126  0.06316964  0.54366279  1
  S  S164  1  0.16777496  0.06383742  0.87264630  1
  S  S165  1  0.16427014  0.56154103  0.20392192  1
  S  S166  1  0.17157223  0.56570096  0.54242317  1
  S  S167  1  0.17276485  0.57384135  0.87710997  1
  S  S168  1  0.67113097  0.06880471  0.20701862  1
  S  S169  1  0.66915011  0.07362948  0.54133541  1
  S  S170  1  0.67782040  0.06987589  0.87609496  1
  S  S171  1  0.66992181  0.56470308  0.21128722  1
  S  S172  1  0.67095495  0.56477297  0.54530044  1
  S  S173  1  0.66502561  0.56650217  0.87590585  1
  O  O174  1  0.37115276  0.21972840  0.07287066  1
  O  O175  1  0.37409491  0.21759814  0.40226781  1
  O  O176  1  0.37341860  0.21500199  0.74282929  1
  O  O177  1  0.36014136  0.71368910  0.07456249  1
  O  O178  1  0.37332247  0.72010597  0.40350218  1
  O  O179  1  0.37066547  0.71706844  0.74278536  1
  O  O180  1  0.86476850  0.22358615  0.07806847  1
  O  O181  1  0.86575544  0.22218122  0.40930262  1
  O  O182  1  0.87113830  0.22055404  0.74391002  1
  O  O183  1  0.86518642  0.72475629  0.08485660  1
  O  O184  1  0.86502885  0.72237693  0.41105784  1
  O  O185  1  0.86795850  0.71173429  0.74356020  1
  O  O186  1  0.27862179  0.13468625  0.08863590  1
  O  O187  1  0.28368605  0.13536138  0.42311956  1
  O  O188  1  0.27426487  0.13124407  0.74840199  1
  O  O189  1  0.27920313  0.62270286  0.09636541  1
  O  O190  1  0.27388213  0.63870151  0.41266264  1
  O  O191  1  0.28120526  0.63014136  0.75733542  1
  O  O192  1  0.77777463  0.13150935  0.08989783  1
  O  O193  1  0.77837905  0.13162344  0.42199841  1
  O  O194  1  0.78310817  0.13060904  0.75594837  1
  O  O195  1  0.78167218  0.62873258  0.09595075  1
  O  O196  1  0.77792082  0.63443256  0.42937637  1
  O  O197  1  0.78604672  0.62190265  0.76544137  1
  O  O198  1  0.13269740  0.27172355  0.25154898  1
  O  O199  1  0.13193912  0.27585980  0.58529082  1
  O  O200  1  0.13379954  0.28184187  0.92197460  1
  O  O201  1  0.12859383  0.77494021  0.25473638  1
  O  O202  1  0.13443794  0.77878449  0.58643352  1
  O  O203  1  0.13441108  0.78045266  0.92938058  1
  O  O204  1  0.62868210  0.28380089  0.26146374  1
  O  O205  1  0.62968262  0.28175001  0.58940445  1
  O  O206  1  0.62830204  0.28409722  0.93095114  1
  O  O207  1  0.62910431  0.78355692  0.25687860  1
  O  O208  1  0.63087742  0.79417031  0.59723459  1
  O  O209  1  0.63102168  0.78169046  0.93083733  1
  O  O210  1  0.22136005  0.36573230  0.24410906  1
  O  O211  1  0.21820238  0.36670976  0.57097418  1
  O  O212  1  0.21607942  0.37391255  0.90087586  1
  O  O213  1  0.21773040  0.86609396  0.24552955  1
  O  O214  1  0.22095451  0.86902516  0.57277539  1
  O  O215  1  0.22866571  0.86603796  0.91988676  1
  O  O216  1  0.72047140  0.36894630  0.24737485  1
  O  O217  1  0.71571243  0.36913918  0.57139717  1
  O  O218  1  0.71511424  0.36585435  0.90344451  1
  O  O219  1  0.72453551  0.86970471  0.24888931  1
  O  O220  1  0.70778329  0.88009745  0.56305072  1
  O  O221  1  0.72431953  0.86256881  0.91184029  1
  O  O222  1  0.41601848  0.13367802  0.15005415  1
  O  O223  1  0.42156102  0.13529236  0.48450572  1
  O  O224  1  0.40859201  0.12854582  0.82131324  1
  O  O225  1  0.41883687  0.62988658  0.15082338  1
  O  O226  1  0.41009386  0.63100243  0.47920857  1
  O  O227  1  0.41859912  0.62934305  0.81927784  1
  O  O228  1  0.91569071  0.13663696  0.15253610  1
  O  O229  1  0.91629717  0.13488854  0.48462611  1
  O  O230  1  0.92181535  0.13126024  0.81795324  1
  O  O231  1  0.91986208  0.63272540  0.15335309  1
  O  O232  1  0.91620253  0.63480757  0.48733011  1
  O  O233  1  0.92505236  0.62580625  0.81913394  1
  O  O234  1  0.36429310  0.08146345  0.01292574  1
  O  O235  1  0.37141442  0.07864559  0.34975666  1
  O  O236  1  0.36915950  0.07726992  0.68388288  1
  O  O237  1  0.36427592  0.57590395  0.01630421  1
  O  O238  1  0.36479488  0.58183763  0.34390441  1
  O  O239  1  0.37041698  0.57840820  0.68359596  1
  O  O240  1  0.86727713  0.08589954  0.01579831  1
  O  O241  1  0.86789387  0.08478093  0.34778213  1
  O  O242  1  0.87329887  0.08225749  0.68227794  1
  O  O243  1  0.86792328  0.58885427  0.01759881  1
  O  O244  1  0.86206417  0.58484536  0.35081157  1
  O  O245  1  0.87099251  0.57410159  0.68477014  1
  O  O246  1  0.08351813  0.36208726  0.17931933  1
  O  O247  1  0.07945120  0.37123809  0.51952303  1
  O  O248  1  0.07821431  0.36768994  0.84643804  1
  O  O249  1  0.08013149  0.86446574  0.18075919  1
  O  O250  1  0.08327497  0.87049983  0.51493014  1
  O  O251  1  0.09209460  0.86196353  0.84707013  1
  O  O252  1  0.58266633  0.37018025  0.18309440  1
  O  O253  1  0.57754683  0.37016692  0.51510182  1
  O  O254  1  0.57674090  0.36695182  0.85012814  1
  O  O255  1  0.58814834  0.87379249  0.18345591  1
  O  O256  1  0.56850582  0.87319120  0.51652314  1
  O  O257  1  0.58717188  0.86156875  0.84624865  1
  O  O258  1  0.12933574  0.40890380  0.31523296  1
  O  O259  1  0.13843313  0.41227271  0.65543222  1
  O  O260  1  0.13401131  0.41905968  0.98229285  1
  O  O261  1  0.12563437  0.91347472  0.31614832  1
  O  O262  1  0.13551242  0.91606623  0.65130549  1
  O  O263  1  0.13255016  0.91892152  0.98362067  1
  O  O264  1  0.62977296  0.42263425  0.31861621  1
  O  O265  1  0.62990696  0.41951772  0.65042627  1
  O  O266  1  0.63381639  0.42301810  0.98410224  1
  O  O267  1  0.63459351  0.92070990  0.32078083  1
  O  O268  1  0.62990267  0.93338044  0.64890034  1
  O  O269  1  0.63624265  0.92034054  0.98318336  1
  O  O270  1  0.02425014  0.19991924  0.10117555  1
  O  O271  1  0.02569053  0.20344945  0.43705043  1
  O  O272  1  0.03221699  0.20174800  0.77042216  1
  O  O273  1  0.02676655  0.69996998  0.10269098  1
  O  O274  1  0.02565856  0.70857130  0.43722992  1
  O  O275  1  0.03793177  0.68717528  0.76858198  1
  O  O276  1  0.53443506  0.20520970  0.10916320  1
  O  O277  1  0.53398506  0.20342035  0.43556093  1
  O  O278  1  0.53869749  0.19606375  0.76680295  1
  O  O279  1  0.53537170  0.68431058  0.10275360  1
  O  O280  1  0.53200395  0.70110179  0.43324209  1
  O  O281  1  0.53214416  0.69516789  0.77634873  1
  O  O282  1  0.29960631  0.46297030  0.06180721  1
  O  O283  1  0.31357037  0.46698418  0.39768344  1
  O  O284  1  0.30151205  0.46991858  0.72765290  1
  O  O285  1  0.29140650  0.97627138  0.06624942  1
  O  O286  1  0.31501009  0.96595673  0.40114535  1
  O  O287  1  0.29647742  0.96543349  0.73050529  1
  O  O288  1  0.80512624  0.46737685  0.06918996  1
  O  O289  1  0.79944552  0.46875094  0.39741893  1
  O  O290  1  0.79279996  0.46018890  0.72164228  1
  O  O291  1  0.80518608  0.97400406  0.06426067  1
  O  O292  1  0.80326870  0.97365951  0.39116176  1
  O  O293  1  0.79255424  0.97345199  0.73139228  1
  O  O294  1  0.46905835  0.30360133  0.22745273  1
  O  O295  1  0.46792866  0.29894372  0.56321340  1
  O  O296  1  0.46212161  0.31462372  0.89778311  1
  O  O297  1  0.46489641  0.80158009  0.23580516  1
  O  O298  1  0.45928907  0.80023391  0.56228216  1
  O  O299  1  0.46881673  0.79843571  0.89244907  1
  O  O300  1  0.97047155  0.29970711  0.23073639  1
  O  O301  1  0.96937590  0.29823064  0.56303075  1
  O  O302  1  0.97382050  0.29155727  0.89605877  1
  O  O303  1  0.96949143  0.79884951  0.23042341  1
  O  O304  1  0.97491164  0.79682680  0.55565745  1
  O  O305  1  0.96783581  0.79637796  0.90058070  1
  O  O306  1  0.19901481  0.02717376  0.26599791  1
  O  O307  1  0.19816512  0.02958140  0.60701016  1
  O  O308  1  0.19816076  0.02730727  0.93385020  1
  O  O309  1  0.19273770  0.52302709  0.26175984  1
  O  O310  1  0.20221668  0.53138338  0.60724786  1
  O  O311  1  0.20063967  0.53692972  0.93789331  1
  O  O312  1  0.70220614  0.03311659  0.26848993  1
  O  O313  1  0.69499898  0.04704761  0.60755099  1
  O  O314  1  0.70870820  0.02639781  0.93294754  1
  O  O315  1  0.70024891  0.52742922  0.27248538  1
  O  O316  1  0.70626564  0.52903648  0.60690597  1
  O  O317  1  0.69314981  0.53570084  0.93862678  1
  O  O318  1  0.08910640  0.09420502  0.04294593  1
  O  O319  1  0.06912627  0.08551133  0.36959436  1
  O  O320  1  0.08609437  0.09009641  0.70427281  1
  O  O321  1  0.08032796  0.58816940  0.03829730  1
  O  O322  1  0.08220989  0.59596033  0.37816630  1
  O  O323  1  0.08534085  0.57779909  0.69276670  1
  O  O324  1  0.58999521  0.09372645  0.04224329  1
  O  O325  1  0.58746294  0.09053551  0.37176997  1
  O  O326  1  0.59943399  0.08970741  0.70148746  1
  O  O327  1  0.58779824  0.57819723  0.03100078  1
  O  O328  1  0.58516760  0.59011833  0.36874922  1
  O  O329  1  0.58252973  0.57890450  0.70984546  1
  O  O330  1  0.41402516  0.41716397  0.13376009  1
  O  O331  1  0.41826099  0.41203048  0.47056084  1
  O  O332  1  0.41628541  0.42024690  0.79452531  1
  O  O333  1  0.39497474  0.90680424  0.11964683  1
  O  O334  1  0.41727124  0.90964119  0.47594384  1
  O  O335  1  0.40870589  0.91137539  0.79607586  1
  O  O336  1  0.91574941  0.41441394  0.13726401  1
  O  O337  1  0.90936303  0.41043731  0.46058166  1
  O  O338  1  0.90971432  0.41224537  0.78602997  1
  O  O339  1  0.91350541  0.91730709  0.13417037  1
  O  O340  1  0.91793586  0.92052545  0.45540265  1
  O  O341  1  0.89960812  0.90801583  0.78405150  1
  O  O342  1  0.41909366  0.41726066  0.29617983  1
  O  O343  1  0.41369739  0.40912252  0.63093584  1
  O  O344  1  0.42305653  0.42988704  0.97307084  1
  O  O345  1  0.40642458  0.90870037  0.30119096  1
  O  O346  1  0.41010795  0.90938018  0.63544821  1
  O  O347  1  0.40967055  0.90781148  0.95742490  1
  O  O348  1  0.91524377  0.41091220  0.29545700  1
  O  O349  1  0.91749814  0.41193709  0.62919745  1
  O  O350  1  0.91683888  0.40426557  0.95400083  1
  O  O351  1  0.91780304  0.91337539  0.29409545  1
  O  O352  1  0.93745484  0.91820314  0.62577450  1
  O  O353  1  0.90460124  0.90154428  0.96064198  1
  O  O354  1  0.09292013  0.09036175  0.20944929  1
  O  O355  1  0.08565823  0.08500269  0.54233693  1
  O  O356  1  0.08592568  0.08189308  0.86786196  1
  O  O357  1  0.08142505  0.57835765  0.19891863  1
  O  O358  1  0.09319988  0.59155925  0.54378001  1
  O  O359  1  0.09263015  0.59495742  0.87182069  1
  O  O360  1  0.58949117  0.08600704  0.20295828  1
  O  O361  1  0.58456765  0.08756413  0.52480092  1
  O  O362  1  0.59974224  0.08749591  0.87526803  1
  O  O363  1  0.58687203  0.57848902  0.20544450  1
  O  O364  1  0.58850215  0.57219308  0.54011693  1
  O  O365  1  0.57998037  0.58045144  0.86524387  1
  O  O366  1  0.13586236  0.22908673  0.06382192  1
  O  O367  1  0.13516344  0.21566185  0.39212261  1
  O  O368  1  0.13328855  0.22404932  0.71770396  1
  O  O369  1  0.13834653  0.72084787  0.06154803  1
  O  O370  1  0.13379610  0.72819891  0.39252363  1
  O  O371  1  0.14097915  0.71317838  0.71963598  1
  O  O372  1  0.63595283  0.22715490  0.05816296  1
  O  O373  1  0.64118991  0.22321749  0.38962276  1
  O  O374  1  0.64323895  0.22521200  0.72079717  1
  O  O375  1  0.64056694  0.71390308  0.05630239  1
  O  O376  1  0.64172355  0.72390351  0.39088501  1
  O  O377  1  0.63419592  0.71027449  0.72280083  1
  O  O378  1  0.28129297  0.35954830  0.11317344  1
  O  O379  1  0.28135336  0.36011817  0.44020433  1
  O  O380  1  0.28390356  0.36097608  0.77189388  1
  O  O381  1  0.26109359  0.86585115  0.10541320  1
  O  O382  1  0.27988599  0.85830701  0.44107012  1
  O  O383  1  0.27516539  0.85731323  0.77533311  1
  O  O384  1  0.78123695  0.36145713  0.11555255  1
  O  O385  1  0.77490881  0.36152461  0.44158782  1
  O  O386  1  0.78052442  0.35893161  0.77624659  1
  O  O387  1  0.77750752  0.86533621  0.10542039  1
  O  O388  1  0.78563286  0.86954983  0.44111050  1
  O  O389  1  0.76669182  0.86673894  0.77651282  1
  O  O390  1  0.36214211  0.28360684  0.27407820  1
  O  O391  1  0.35996792  0.27437677  0.60736387  1
  O  O392  1  0.36027897  0.30048697  0.95284571  1
  O  O393  1  0.35485271  0.77350711  0.27479018  1
  O  O394  1  0.35391813  0.77494475  0.60875627  1
  O  O395  1  0.36810986  0.77328327  0.94292861  1
  O  O396  1  0.86153430  0.27756591  0.27447892  1
  O  O397  1  0.86088411  0.27951229  0.60802148  1
  O  O398  1  0.86519260  0.27232333  0.94075213  1
  O  O399  1  0.86616860  0.78129512  0.28250301  1
  O  O400  1  0.86527629  0.79175713  0.60148793  1
  O  O401  1  0.85902396  0.76631153  0.94101531  1
  O  O402  1  0.22730286  0.13694013  0.22530939  1
  O  O403  1  0.21970061  0.13450465  0.55963957  1
  O  O404  1  0.21897069  0.13284154  0.88505962  1
  O  O405  1  0.21445817  0.63456294  0.22075338  1
  O  O406  1  0.22718505  0.63540750  0.55946668  1
  O  O407  1  0.22828166  0.64242832  0.89245506  1
  O  O408  1  0.72231440  0.14124227  0.22350137  1
  O  O409  1  0.71884822  0.14658978  0.55517675  1
  O  O410  1  0.73332828  0.14052558  0.89674962  1
  O  O411  1  0.71988831  0.63730893  0.22973286  1
  O  O412  1  0.71799780  0.63808758  0.56037804  1
  O  O413  1  0.71256017  0.63903198  0.88766760  1
  O  O414  1  0.49550220  0.34208131  0.03268976  1
  O  O415  1  0.49348229  0.33374898  0.36123702  1
  O  O416  1  0.49066175  0.32780421  0.69670971  1
  O  O417  1  0.49884798  0.83810123  0.02736628  1
  O  O418  1  0.48389262  0.82919489  0.36830507  1
  O  O419  1  0.48650254  0.82307200  0.69457156  1
  O  O420  1  0.99326664  0.33104994  0.03008915  1
  O  O421  1  0.99175530  0.33169590  0.36407843  1
  O  O422  1  0.99242985  0.33094608  0.69661532  1
  O  O423  1  0.98600594  0.82913969  0.03294660  1
  O  O424  1  0.99776503  0.83964512  0.36537075  1
  O  O425  1  0.99804693  0.82850260  0.68950502  1
  O  O426  1  0.16391965  0.01055889  0.13323635  1
  O  O427  1  0.15933639  0.00369453  0.47211348  1
  O  O428  1  0.16256640  0.00196764  0.79967962  1
  O  O429  1  0.16164316  0.50503905  0.12934995  1
  O  O430  1  0.16571278  0.50502013  0.47305797  1
  O  O431  1  0.16897487  0.51253726  0.80452708  1
  O  O432  1  0.66882966  0.00988512  0.13469525  1
  O  O433  1  0.67485667  0.01199905  0.47329763  1
  O  O434  1  0.67709302  0.01553194  0.80080174  1
  O  O435  1  0.67024328  0.50685343  0.13880938  1
  O  O436  1  0.67234134  0.50672626  0.47195532  1
  O  O437  1  0.66551350  0.50510046  0.80481848  1
  O  O438  1  0.00428225  0.17074381  0.30241721  1
  O  O439  1  0.00270326  0.16338348  0.63498611  1
  O  O440  1  0.01050573  0.16845259  0.96986253  1
  O  O441  1  0.00518703  0.67032577  0.30335068  1
  O  O442  1  0.00783436  0.66208479  0.63437180  1
  O  O443  1  0.00888696  0.67010714  0.96998677  1
  O  O444  1  0.51044855  0.16908791  0.30174672  1
  O  O445  1  0.51350713  0.16260761  0.63305576  1
  O  O446  1  0.50288767  0.16702411  0.97452356  1
  O  O447  1  0.51130124  0.66934005  0.29934756  1
  O  O448  1  0.50039318  0.65241860  0.64072218  1
  O  O449  1  0.50906069  0.66239918  0.97045203  1
  O  O450  1  0.33028413  0.49262921  0.19659236  1
  O  O451  1  0.33490753  0.49012472  0.53010859  1
  O  O452  1  0.33280666  0.49172758  0.86139269  1
  O  O453  1  0.32716013  0.98973445  0.19885906  1
  O  O454  1  0.33124392  0.98862778  0.53179169  1
  O  O455  1  0.32963973  0.98889512  0.86344205  1
  O  O456  1  0.83543960  0.49256610  0.20298718  1
  O  O457  1  0.83570193  0.49085751  0.53125035  1
  O  O458  1  0.83455066  0.49325983  0.85738551  1
  O  O459  1  0.83103718  0.99471708  0.19646559  1
  O  O460  1  0.84484388  1.00195394  0.52606700  1
  O  O461  1  0.83548785  0.99187553  0.86520584  1
