# generated using pymatgen
data_Na31Fe20(SO4)36
_symmetry_space_group_name_H-M   'P 1'
_cell_length_a   18.05612144
_cell_length_b   18.05677688
_cell_length_c   19.66896468
_cell_angle_alpha   107.56945748
_cell_angle_beta   107.58218451
_cell_angle_gamma   90.67357085
_symmetry_Int_Tables_number   1
_chemical_formula_structural   Na31Fe20(SO4)36
_chemical_formula_sum   'Na62 Fe40 S72 O288'
_cell_volume   5790.52545603
_cell_formula_units_Z   2
loop_
 _symmetry_equiv_pos_site_id
 _symmetry_equiv_pos_as_xyz
  1  'x, y, z'
loop_
 _atom_site_type_symbol
 _atom_site_label
 _atom_site_symmetry_multiplicity
 _atom_site_fract_x
 _atom_site_fract_y
 _atom_site_fract_z
 _atom_site_occupancy
  Na  Na0  1  0.13480288  0.36117680  0.07651370  1
  Na  Na1  1  0.12786025  0.37197699  0.41775080  1
  Na  Na2  1  0.13318607  0.37228585  0.75296496  1
  Na  Na3  1  0.12895431  0.86019725  0.07126291  1
  Na  Na4  1  0.12922326  0.86936819  0.41830146  1
  Na  Na5  1  0.13069740  0.86351670  0.74440103  1
  Na  Na6  1  0.64833266  0.37817938  0.09748194  1
  Na  Na7  1  0.63514093  0.35129710  0.41300331  1
  Na  Na8  1  0.63225664  0.35873556  0.74778092  1
  Na  Na9  1  0.64835934  0.81832106  0.07528947  1
  Na  Na10  1  0.63931882  0.86964199  0.41459427  1
  Na  Na11  1  0.64364178  0.87117244  0.76519895  1
  Na  Na12  1  0.36421637  0.13164965  0.24560058  1
  Na  Na13  1  0.37569255  0.13891360  0.59414472  1
  Na  Na14  1  0.36557107  0.14079375  0.92049054  1
  Na  Na15  1  0.37071452  0.63356410  0.25272828  1
  Na  Na16  1  0.36646928  0.63663337  0.58624753  1
  Na  Na17  1  0.36828509  0.63817926  0.92884700  1
  Na  Na18  1  0.86292721  0.13454655  0.25297659  1
  Na  Na19  1  0.84767783  0.12833015  0.55872594  1
  Na  Na20  1  0.86050731  0.12766922  0.91511466  1
  Na  Na21  1  0.83290140  0.62739012  0.21772178  1
  Na  Na22  1  0.89419573  0.61664201  0.57938808  1
  Na  Na23  1  0.86408259  0.65912681  0.93194049  1
  Na  Na24  1  0.51074382  0.50331684  0.38475385  1
  Na  Na25  1  0.98975229  0.00670048  0.75276074  1
  Na  Na26  1  0.49579666  0.49969632  0.08827281  1
  Na  Na27  1  0.52685187  -0.03214802  0.09015353  1
  Na  Na28  1  0.95300584  0.00709978  0.08418575  1
  Na  Na29  1  0.50935299  -0.00525978  0.42520593  1
  Na  Na30  1  0.50428309  0.48730904  0.75557113  1
  Na  Na31  1  0.98015617  0.50905633  0.08660863  1
  Na  Na32  1  0.49844336  0.01872811  0.73138705  1
  Na  Na33  1  -0.01111211  0.99224667  0.27895157  1
  Na  Na34  1  0.51753740  0.99559232  0.91501873  1
  Na  Na35  1  -0.05125976  0.52581615  0.31645843  1
  Na  Na36  1  0.51092690  0.49268324  0.57776764  1
  Na  Na37  1  0.01452403  0.99693053  0.56705346  1
  Na  Na38  1  0.00316711  0.98679108  0.92168054  1
  Na  Na39  1  0.52269751  0.97564869  0.25192207  1
  Na  Na40  1  -0.01993036  0.54443911  0.86365407  1
  Na  Na41  1  0.51807783  0.46148497  0.91665483  1
  Na  Na42  1  0.26377222  0.26216868  0.66965062  1
  Na  Na43  1  0.75215549  0.25727892  0.00147937  1
  Na  Na44  1  0.25155066  0.24990458  0.32998465  1
  Na  Na45  1  0.24744168  0.74987186  0.00174737  1
  Na  Na46  1  0.74338596  0.23040594  0.35652996  1
  Na  Na47  1  0.24402067  0.74656855  0.33896498  1
  Na  Na48  1  0.23238793  0.73617672  0.67161095  1
  Na  Na49  1  0.75743224  0.75126922  0.66415450  1
  Na  Na50  1  0.75606036  0.25347991  0.65093704  1
  Na  Na51  1  0.75610795  0.75588816  0.31956650  1
  Na  Na52  1  0.23361907  0.73873811  0.50946009  1
  Na  Na53  1  0.74904058  0.24968304  0.83273266  1
  Na  Na54  1  0.24016859  0.74330056  0.84193933  1
  Na  Na55  1  0.76103671  0.26555967  0.17267265  1
  Na  Na56  1  0.76126333  0.75576697  0.49404020  1
  Na  Na57  1  0.25695510  0.25679472  0.15386877  1
  Na  Na58  1  0.25449711  0.75105357  0.16441688  1
  Na  Na59  1  0.74896243  0.75329748  0.84133169  1
  Na  Na60  1  0.24889774  0.24568690  0.84100953  1
  Na  Na61  1  0.25424814  0.25247963  0.49896690  1
  Fe  Fe62  1  0.46551961  0.80937355  0.45342820  1
  Fe  Fe63  1  0.97124575  0.79990580  0.79043591  1
  Fe  Fe64  1  0.96223586  0.31588246  0.45651950  1
  Fe  Fe65  1  0.46482220  0.30578122  0.45035911  1
  Fe  Fe66  1  0.96465944  0.80820905  0.11806734  1
  Fe  Fe67  1  0.46249484  0.80690425  0.78421091  1
  Fe  Fe68  1  0.96561216  0.79771070  0.45729823  1
  Fe  Fe69  1  0.96298583  0.30942157  0.78639731  1
  Fe  Fe70  1  0.96697001  0.31120050  0.12539509  1
  Fe  Fe71  1  0.46471403  0.30843059  0.12007993  1
  Fe  Fe72  1  0.19569830  0.03368183  0.38110680  1
  Fe  Fe73  1  0.69535540  0.53092293  0.37177408  1
  Fe  Fe74  1  0.70229453  0.03081846  0.04726967  1
  Fe  Fe75  1  0.18785107  0.53721303  0.71120684  1
  Fe  Fe76  1  0.18919653  0.53403583  0.04396506  1
  Fe  Fe77  1  0.69377896  0.03229435  0.71356745  1
  Fe  Fe78  1  0.69250573  0.53735389  0.71457761  1
  Fe  Fe79  1  0.19584112  0.03796739  0.04975442  1
  Fe  Fe80  1  0.19470936  0.03557050  0.71774847  1
  Fe  Fe81  1  0.18833972  0.53360989  0.37875508  1
  Fe  Fe82  1  0.03352533  0.69485779  0.21260413  1
  Fe  Fe83  1  0.53725023  0.19116657  0.54643461  1
  Fe  Fe84  1  0.53465381  0.69239057  0.54463181  1
  Fe  Fe85  1  0.03546586  0.19072483  0.21516671  1
  Fe  Fe86  1  0.53835804  0.18700628  0.21536692  1
  Fe  Fe87  1  0.53382751  0.20123759  0.87842441  1
  Fe  Fe88  1  0.53082285  0.69237766  0.88552811  1
  Fe  Fe89  1  0.03491930  0.19460384  0.88365929  1
  Fe  Fe90  1  0.03646774  0.19437337  0.54820260  1
  Fe  Fe91  1  0.53078589  0.69990260  0.20450849  1
  Fe  Fe92  1  0.30753212  0.46329486  0.95138146  1
  Fe  Fe93  1  0.80589980  0.96450736  0.61912275  1
  Fe  Fe94  1  0.30528178  0.46636178  0.28309165  1
  Fe  Fe95  1  0.79864470  0.47272327  0.95656606  1
  Fe  Fe96  1  0.30765016  0.46488560  0.61974567  1
  Fe  Fe97  1  0.81046625  0.46438625  0.61999948  1
  Fe  Fe98  1  0.30846399  0.96477709  0.28303265  1
  Fe  Fe99  1  0.30757792  0.96632025  0.61716449  1
  Fe  Fe100  1  0.31369620  0.96636524  0.95413325  1
  Fe  Fe101  1  0.80424893  0.96560372  0.29478404  1
  S  S102  1  0.36357739  0.14020084  0.08324639  1
  S  S103  1  0.35898716  0.13980815  0.41703807  1
  S  S104  1  0.36118709  0.13907101  0.75167723  1
  S  S105  1  0.35725792  0.63803071  0.08702847  1
  S  S106  1  0.36005323  0.64011625  0.41604163  1
  S  S107  1  0.35918977  0.64045243  0.74670521  1
  S  S108  1  0.85949529  0.14387994  0.08672942  1
  S  S109  1  0.86874879  0.13905056  0.41629856  1
  S  S110  1  0.86131225  0.13963855  0.75101589  1
  S  S111  1  0.86250924  0.64107276  0.08008998  1
  S  S112  1  0.85065205  0.64213542  0.41062190  1
  S  S113  1  0.85428658  0.64032065  0.74795323  1
  S  S114  1  0.14386618  0.35624535  0.24836971  1
  S  S115  1  0.14115592  0.35847288  0.58602315  1
  S  S116  1  0.13811539  0.35943418  0.91490530  1
  S  S117  1  0.13997556  0.86118844  0.25036140  1
  S  S118  1  0.14137440  0.86414341  0.58208803  1
  S  S119  1  0.14328761  0.86725946  0.91521525  1
  S  S120  1  0.63620533  0.35769438  0.25376818  1
  S  S121  1  0.63917685  0.36255635  0.58275267  1
  S  S122  1  0.64433187  0.35851748  0.91561805  1
  S  S123  1  0.64143819  0.85946087  0.24900510  1
  S  S124  1  0.63994905  0.85809252  0.58458503  1
  S  S125  1  0.63346742  0.86098793  0.91846765  1
  S  S126  1  0.06536021  0.16790028  0.04294675  1
  S  S127  1  0.07399360  0.16991038  0.37710652  1
  S  S128  1  0.06690271  0.16766107  0.70987603  1
  S  S129  1  0.06801785  0.66883035  0.04327983  1
  S  S130  1  0.06833442  0.67277367  0.37498369  1
  S  S131  1  0.07085329  0.67703965  0.71196869  1
  S  S132  1  0.57327069  0.17297344  0.04426427  1
  S  S133  1  0.55728703  0.16154912  0.37413093  1
  S  S134  1  0.56959825  0.16717601  0.70745515  1
  S  S135  1  0.55361327  0.65176157  0.03622283  1
  S  S136  1  0.57117895  0.67823754  0.37625647  1
  S  S137  1  0.56591417  0.67170012  0.70837936  1
  S  S138  1  0.32815065  0.43092104  0.12373803  1
  S  S139  1  0.33142856  0.43386420  0.45639189  1
  S  S140  1  0.33291835  0.44161142  0.79243159  1
  S  S141  1  0.33515909  0.93738659  0.12428375  1
  S  S142  1  0.33148095  0.93459852  0.45602096  1
  S  S143  1  0.33123691  0.93236231  0.78946337  1
  S  S144  1  0.83999179  0.43611365  0.12811563  1
  S  S145  1  0.82117447  0.43094206  0.45296223  1
  S  S146  1  0.82396180  0.43075856  0.78814051  1
  S  S147  1  0.83099225  0.93171388  0.13250523  1
  S  S148  1  0.83423673  0.93060852  0.46011320  1
  S  S149  1  0.83344372  0.93265943  0.79196925  1
  S  S150  1  0.42829986  0.32713806  0.28897531  1
  S  S151  1  0.43622785  0.33347657  0.62250777  1
  S  S152  1  0.43565423  0.33077085  0.95899369  1
  S  S153  1  0.43519170  0.83160682  0.29160375  1
  S  S154  1  0.43108543  0.82994116  0.62185286  1
  S  S155  1  0.43252178  0.83211374  0.95574313  1
  S  S156  1  0.93661271  0.32420285  0.29054408  1
  S  S157  1  0.93078893  0.32591276  0.62398949  1
  S  S158  1  0.93058304  0.32799652  0.95747329  1
  S  S159  1  0.92936872  0.82380324  0.29270255  1
  S  S160  1  0.93256391  0.83162877  0.62853257  1
  S  S161  1  0.93806324  0.83811964  0.95741404  1
  S  S162  1  0.16792603  0.06444435  0.20699008  1
  S  S163  1  0.17578629  0.07266876  0.54582736  1
  S  S164  1  0.16840713  0.07000072  0.87539089  1
  S  S165  1  0.17108175  0.56725463  0.20960753  1
  S  S166  1  0.17282672  0.56485483  0.54329266  1
  S  S167  1  0.17608312  0.56928487  0.87921018  1
  S  S168  1  0.67417518  0.06631733  0.21246941  1
  S  S169  1  0.66774696  0.06354911  0.54389699  1
  S  S170  1  0.66527113  0.06991417  0.87553490  1
  S  S171  1  0.65432423  0.56896143  0.20818646  1
  S  S172  1  0.66549604  0.56763140  0.53625176  1
  S  S173  1  0.66689890  0.56821921  0.86969542  1
  O  O174  1  0.37217506  0.21898351  0.07561064  1
  O  O175  1  0.36573260  0.21957459  0.40950436  1
  O  O176  1  0.36572629  0.21282278  0.73685783  1
  O  O177  1  0.35694841  0.71186951  0.07136628  1
  O  O178  1  0.36926413  0.71778374  0.40502670  1
  O  O179  1  0.37022212  0.71692570  0.73328149  1
  O  O180  1  0.86891766  0.22607426  0.08517236  1
  O  O181  1  0.88390146  0.21524681  0.40334997  1
  O  O182  1  0.86822201  0.22032776  0.74612143  1
  O  O183  1  0.87793317  0.71830404  0.06978376  1
  O  O184  1  0.85854549  0.72934087  0.42281319  1
  O  O185  1  0.87134919  0.72096019  0.74495763  1
  O  O186  1  0.28570743  0.13176591  0.09479438  1
  O  O187  1  0.27990095  0.13060380  0.42547165  1
  O  O188  1  0.28279247  0.12618811  0.76180475  1
  O  O189  1  0.28176866  0.62265012  0.10096475  1
  O  O190  1  0.28000396  0.63110452  0.42158970  1
  O  O191  1  0.27813771  0.63569684  0.75095234  1
  O  O192  1  0.78056654  0.13439805  0.09549551  1
  O  O193  1  0.79241576  0.13596093  0.42644570  1
  O  O194  1  0.78445771  0.12861495  0.76276749  1
  O  O195  1  0.78883541  0.63359776  0.09272987  1
  O  O196  1  0.76742637  0.62881138  0.41457154  1
  O  O197  1  0.76901720  0.63596400  0.74329980  1
  O  O198  1  0.13554604  0.27610246  0.25430358  1
  O  O199  1  0.13296904  0.28022366  0.59710351  1
  O  O200  1  0.12857107  0.28108783  0.92372343  1
  O  O201  1  0.13209403  0.78313743  0.26070545  1
  O  O202  1  0.13986258  0.78741656  0.59192120  1
  O  O203  1  0.14271839  0.79153819  0.92744064  1
  O  O204  1  0.62323734  0.28150307  0.26818635  1
  O  O205  1  0.62852564  0.28529553  0.59382707  1
  O  O206  1  0.63612078  0.27388308  0.91323115  1
  O  O207  1  0.62686324  0.77567037  0.24955395  1
  O  O208  1  0.62997921  0.77769615  0.59028879  1
  O  O209  1  0.61940112  0.78350542  0.92812117  1
  O  O210  1  0.22450009  0.36665958  0.24334007  1
  O  O211  1  0.22106379  0.36506480  0.57791484  1
  O  O212  1  0.21609872  0.36772108  0.90436214  1
  O  O213  1  0.21972111  0.86986616  0.24310082  1
  O  O214  1  0.21682614  0.87837953  0.56702367  1
  O  O215  1  0.21916138  0.88266897  0.90214415  1
  O  O216  1  0.71211580  0.36423546  0.24365242  1
  O  O217  1  0.71915809  0.37117016  0.57867908  1
  O  O218  1  0.72618795  0.36796735  0.91097099  1
  O  O219  1  0.72798400  0.86776218  0.26088228  1
  O  O220  1  0.71872378  0.86596975  0.57531484  1
  O  O221  1  0.70659072  0.86648172  0.90257894  1
  O  O222  1  0.42361293  0.13021885  0.14970892  1
  O  O223  1  0.41805060  0.13152584  0.48466273  1
  O  O224  1  0.42068864  0.13582341  0.82204875  1
  O  O225  1  0.42000612  0.64054253  0.15908597  1
  O  O226  1  0.41782557  0.63492378  0.48612969  1
  O  O227  1  0.41457355  0.63448222  0.81709735  1
  O  O228  1  0.91866573  0.13235386  0.15444353  1
  O  O229  1  0.92980434  0.13100624  0.48421048  1
  O  O230  1  0.92333569  0.12915017  0.81692612  1
  O  O231  1  0.92756482  0.62976397  0.14486871  1
  O  O232  1  0.90656227  0.62146084  0.47027286  1
  O  O233  1  0.90168112  0.62879932  0.81766834  1
  O  O234  1  0.36846056  0.08168304  0.01339812  1
  O  O235  1  0.36579062  0.08196735  0.34784861  1
  O  O236  1  0.37265403  0.07445704  0.68721107  1
  O  O237  1  0.37042274  0.57390338  0.02507876  1
  O  O238  1  0.37159657  0.57893636  0.35037924  1
  O  O239  1  0.37039690  0.57859942  0.68163667  1
  O  O240  1  0.86747805  0.08825857  0.01877630  1
  O  O241  1  0.87506354  0.07610588  0.34850694  1
  O  O242  1  0.86798787  0.08283374  0.68132709  1
  O  O243  1  0.86909574  0.58049862  0.01027406  1
  O  O244  1  0.85351889  0.60035343  0.33546651  1
  O  O245  1  0.86418229  0.58246069  0.67989233  1
  O  O246  1  0.08729710  0.36377473  0.17913783  1
  O  O247  1  0.08301494  0.36357354  0.51653528  1
  O  O248  1  0.07812634  0.36743389  0.84713629  1
  O  O249  1  0.08154777  0.86846998  0.18201031  1
  O  O250  1  0.07731331  0.87169031  0.51644859  1
  O  O251  1  0.07990346  0.87201026  0.84737237  1
  O  O252  1  0.57458769  0.36414771  0.18624621  1
  O  O253  1  0.58142621  0.36856721  0.51230971  1
  O  O254  1  0.58844346  0.37211672  0.84979260  1
  O  O255  1  0.59695479  0.86964671  0.17719602  1
  O  O256  1  0.58070561  0.86825261  0.51790385  1
  O  O257  1  0.56868838  0.87304453  0.85355518  1
  O  O258  1  0.13542090  0.41386760  0.31673516  1
  O  O259  1  0.13383778  0.41837392  0.65317495  1
  O  O260  1  0.13147438  0.41901860  0.98328022  1
  O  O261  1  0.13077701  0.92111625  0.31806460  1
  O  O262  1  0.13453286  0.92527208  0.65073160  1
  O  O263  1  0.13275850  0.92869730  0.98176816  1
  O  O264  1  0.62898279  0.42017410  0.32241560  1
  O  O265  1  0.62614107  0.42438751  0.64727676  1
  O  O266  1  0.63628129  0.40927388  0.98597009  1
  O  O267  1  0.62129443  0.91273344  0.31202314  1
  O  O268  1  0.63487565  0.91465617  0.65519444  1
  O  O269  1  0.63015047  0.92221066  0.98829937  1
  O  O270  1  0.02830571  0.19673244  0.10357277  1
  O  O271  1  0.04406471  0.20134734  0.44133424  1
  O  O272  1  0.03016882  0.19854089  0.77043749  1
  O  O273  1  0.04021284  0.70726471  0.10991171  1
  O  O274  1  0.03113286  0.70141694  0.43367664  1
  O  O275  1  0.03303271  0.70618979  0.77232033  1
  O  O276  1  0.53632673  0.20002562  0.10558385  1
  O  O277  1  0.52559192  0.20313166  0.43825827  1
  O  O278  1  0.53232264  0.18897587  0.76646093  1
  O  O279  1  0.52514988  0.69375251  0.10154184  1
  O  O280  1  0.52962767  0.70250690  0.43488537  1
  O  O281  1  0.52974287  0.70022513  0.76937217  1
  O  O282  1  0.29376428  0.46226222  0.05984615  1
  O  O283  1  0.29974923  0.46868805  0.39452587  1
  O  O284  1  0.29431902  0.47608212  0.73040251  1
  O  O285  1  0.29759230  0.97083710  0.06111553  1
  O  O286  1  0.30000562  0.97007526  0.39368565  1
  O  O287  1  0.29762235  0.96495536  0.72604973  1
  O  O288  1  0.81547613  0.46626472  0.06351992  1
  O  O289  1  0.79099840  0.47316737  0.39695636  1
  O  O290  1  0.79549812  0.47006401  0.72837711  1
  O  O291  1  0.80600559  0.97212310  0.07519137  1
  O  O292  1  0.81643310  0.97126159  0.40342140  1
  O  O293  1  0.80331118  0.96493587  0.72634025  1
  O  O294  1  0.46136181  0.29536745  0.22669350  1
  O  O295  1  0.46687083  0.29980606  0.55699429  1
  O  O296  1  0.47468379  0.30505372  0.90121285  1
  O  O297  1  0.47233613  0.80071536  0.23259956  1
  O  O298  1  0.46764315  0.79951805  0.56069513  1
  O  O299  1  0.45598021  0.79352250  0.88658698  1
  O  O300  1  0.97999325  0.29434000  0.23296900  1
  O  O301  1  0.96895586  0.29780432  0.56316892  1
  O  O302  1  0.96712405  0.29820912  0.89560936  1
  O  O303  1  0.96890455  0.80032634  0.23254259  1
  O  O304  1  0.97054146  0.80829859  0.57045772  1
  O  O305  1  0.97396358  0.80740263  0.89666888  1
  O  O306  1  0.19993153  0.03006468  0.26947688  1
  O  O307  1  0.20771427  0.03872030  0.60855004  1
  O  O308  1  0.20307679  0.04182979  0.94090652  1
  O  O309  1  0.19996611  0.52996771  0.27115183  1
  O  O310  1  0.20765582  0.52517677  0.60304632  1
  O  O311  1  0.20957846  0.53083707  0.94010885  1
  O  O312  1  0.70537206  0.02755563  0.27000823  1
  O  O313  1  0.70062116  0.03027002  0.60864543  1
  O  O314  1  0.68659631  0.03490687  0.93617430  1
  O  O315  1  0.67111797  0.53211056  0.26951183  1
  O  O316  1  0.69408988  0.52848132  0.59465004  1
  O  O317  1  0.69754707  0.53418773  0.93025652  1
  O  O318  1  0.08487161  0.08635102  0.03800702  1
  O  O319  1  0.09279806  0.08795776  0.37135266  1
  O  O320  1  0.08240973  0.08448885  0.70486561  1
  O  O321  1  0.08840182  0.58915246  0.04688662  1
  O  O322  1  0.08833148  0.59144408  0.37125976  1
  O  O323  1  0.09699007  0.59976311  0.71624589  1
  O  O324  1  0.59194593  0.09108678  0.03734978  1
  O  O325  1  0.55874668  0.07908142  0.36972743  1
  O  O326  1  0.58775213  0.08413592  0.69593046  1
  O  O327  1  0.54364203  0.56698914  0.02278600  1
  O  O328  1  0.59131351  0.59719396  0.37170590  1
  O  O329  1  0.58240581  0.58867644  0.70035098  1
  O  O330  1  0.40890371  0.41325206  0.12557427  1
  O  O331  1  0.41304280  0.41526143  0.45962677  1
  O  O332  1  0.41388251  0.43139409  0.79380126  1
  O  O333  1  0.41745590  0.93021864  0.13056067  1
  O  O334  1  0.41211704  0.91613066  0.45825437  1
  O  O335  1  0.41416668  0.91843260  0.79431791  1
  O  O336  1  0.92286994  0.41485008  0.13519180  1
  O  O337  1  0.90022386  0.41045149  0.45244592  1
  O  O338  1  0.90631565  0.41436387  0.79405040  1
  O  O339  1  0.91597113  0.91744545  0.14072692  1
  O  O340  1  0.91481364  0.90673478  0.47263315  1
  O  O341  1  0.91488616  0.91025018  0.79539367  1
  O  O342  1  0.40945224  0.40852486  0.29376594  1
  O  O343  1  0.41456129  0.41433696  0.62202052  1
  O  O344  1  0.41436254  0.41236275  0.96284633  1
  O  O345  1  0.41730141  0.91358242  0.29409099  1
  O  O346  1  0.41375089  0.91175245  0.62708850  1
  O  O347  1  0.41912353  0.91579284  0.95757229  1
  O  O348  1  0.91373475  0.40022281  0.28883439  1
  O  O349  1  0.90886336  0.40495309  0.62703579  1
  O  O350  1  0.91020561  0.40796234  0.96152391  1
  O  O351  1  0.90630815  0.90423078  0.29740170  1
  O  O352  1  0.91434127  0.91527904  0.63912812  1
  O  O353  1  0.93084661  0.92197655  0.96907021  1
  O  O354  1  0.08599954  0.08152063  0.20216933  1
  O  O355  1  0.09473922  0.08979019  0.54333448  1
  O  O356  1  0.08519074  0.08496075  0.87103902  1
  O  O357  1  0.09020382  0.58641081  0.20329345  1
  O  O358  1  0.09577584  0.58295975  0.54280468  1
  O  O359  1  0.10003761  0.59165104  0.88171155  1
  O  O360  1  0.59014567  0.07973187  0.20810747  1
  O  O361  1  0.58746447  0.08599556  0.54262105  1
  O  O362  1  0.58135872  0.08747185  0.86185406  1
  O  O363  1  0.57360393  0.59761196  0.20022152  1
  O  O364  1  0.58070342  0.58028703  0.52876087  1
  O  O365  1  0.58493481  0.58784828  0.86582245  1
  O  O366  1  0.13539806  0.22051413  0.05826916  1
  O  O367  1  0.14402810  0.22123553  0.38719548  1
  O  O368  1  0.13997379  0.21749851  0.72677712  1
  O  O369  1  0.13956448  0.71845659  0.05318137  1
  O  O370  1  0.14058326  0.72535883  0.39172064  1
  O  O371  1  0.14216529  0.73311483  0.73206097  1
  O  O372  1  0.64361211  0.22705327  0.06135736  1
  O  O373  1  0.63295115  0.20402921  0.38831540  1
  O  O374  1  0.64165803  0.21935469  0.72519883  1
  O  O375  1  0.63225715  0.68486689  0.04907205  1
  O  O376  1  0.64125951  0.73307426  0.39726803  1
  O  O377  1  0.63691785  0.72394548  0.72487766  1
  O  O378  1  0.27786372  0.36139948  0.11441502  1
  O  O379  1  0.28001702  0.36252966  0.44230985  1
  O  O380  1  0.28527055  0.36745819  0.77797394  1
  O  O381  1  0.28771786  0.86340470  0.10991005  1
  O  O382  1  0.27932820  0.86385223  0.44101261  1
  O  O383  1  0.28326730  0.85977156  0.77637240  1
  O  O384  1  0.78694626  0.36484271  0.11273544  1
  O  O385  1  0.76783949  0.36048173  0.43589348  1
  O  O386  1  0.77240178  0.35760628  0.76696136  1
  O  O387  1  0.78190240  0.86015945  0.11574150  1
  O  O388  1  0.77567139  0.86277338  0.43890966  1
  O  O389  1  0.78012148  0.86217902  0.77642523  1
  O  O390  1  0.35781571  0.27533041  0.27645482  1
  O  O391  1  0.36542225  0.28192946  0.60992825  1
  O  O392  1  0.36528056  0.27778496  0.94266081  1
  O  O393  1  0.36333237  0.78112935  0.27753146  1
  O  O394  1  0.35928147  0.77852660  0.60514368  1
  O  O395  1  0.35876258  0.78848129  0.94775406  1
  O  O396  1  0.86870343  0.26662330  0.27131266  1
  O  O397  1  0.86331799  0.27003104  0.60911392  1
  O  O398  1  0.86149716  0.27241554  0.94153363  1
  O  O399  1  0.86204503  0.76737398  0.27502086  1
  O  O400  1  0.86081664  0.77912826  0.61050611  1
  O  O401  1  0.86323375  0.79131303  0.93911176  1
  O  O402  1  0.21901423  0.13602291  0.22142268  1
  O  O403  1  0.22686528  0.14389826  0.55938622  1
  O  O404  1  0.21578665  0.14007114  0.88234163  1
  O  O405  1  0.22505080  0.63841399  0.22880644  1
  O  O406  1  0.22923954  0.63505821  0.56082649  1
  O  O407  1  0.23212555  0.63846844  0.89494990  1
  O  O408  1  0.72133451  0.14163231  0.23104209  1
  O  O409  1  0.72009574  0.13354388  0.55822205  1
  O  O410  1  0.71924755  0.14029751  0.89277922  1
  O  O411  1  0.71187114  0.63595836  0.22844105  1
  O  O412  1  0.71390625  0.64084660  0.55384821  1
  O  O413  1  0.71765410  0.63645612  0.87667262  1
  O  O414  1  0.49349262  0.33775395  0.03457606  1
  O  O415  1  0.48996429  0.33211003  0.36158223  1
  O  O416  1  0.49793527  0.34241732  0.69305258  1
  O  O417  1  0.49715197  0.83579622  0.02294234  1
  O  O418  1  0.49315682  0.83895341  0.36733558  1
  O  O419  1  0.49044909  0.83190136  0.69434994  1
  O  O420  1  0.99138768  0.33021570  0.02951360  1
  O  O421  1  0.99424302  0.32793354  0.36511707  1
  O  O422  1  0.99191898  0.33028621  0.69692928  1
  O  O423  1  0.99391197  0.83087009  0.02925907  1
  O  O424  1  0.98936544  0.82842864  0.36585583  1
  O  O425  1  0.99027386  0.83219777  0.70243847  1
  O  O426  1  0.16648493  0.00455402  0.13516539  1
  O  O427  1  0.17292026  0.01172557  0.47394370  1
  O  O428  1  0.16336048  0.00556551  0.80419803  1
  O  O429  1  0.17085429  0.50739663  0.13832695  1
  O  O430  1  0.17404185  0.50690549  0.46975149  1
  O  O431  1  0.17214171  0.50987537  0.80602473  1
  O  O432  1  0.67010756  0.01221453  0.13667669  1
  O  O433  1  0.66028633  0.00166812  0.47363772  1
  O  O434  1  0.66696315  0.01015463  0.80353638  1
  O  O435  1  0.64819484  0.50783660  0.13817892  1
  O  O436  1  0.66318087  0.51115203  0.46100080  1
  O  O437  1  0.65665050  0.50511630  0.79466627  1
  O  O438  1  0.01130104  0.16421329  0.30513979  1
  O  O439  1  0.00907898  0.16481160  0.63656016  1
  O  O440  1  0.00537770  0.16379169  0.96967421  1
  O  O441  1  0.01126951  0.66723256  0.30016416  1
  O  O442  1  0.01645687  0.67039247  0.63882130  1
  O  O443  1  0.00471591  0.65989742  0.97353588  1
  O  O444  1  0.50014276  0.16719681  0.30253805  1
  O  O445  1  0.51100322  0.17153100  0.63635844  1
  O  O446  1  0.51360028  0.17162009  0.97178516  1
  O  O447  1  0.51365072  0.67926516  0.30390598  1
  O  O448  1  0.50690817  0.66926277  0.63500183  1
  O  O449  1  0.49785122  0.66737768  0.96819095  1
  O  O450  1  0.33325274  0.49372259  0.19606309  1
  O  O451  1  0.33636958  0.49366312  0.52928053  1
  O  O452  1  0.33353366  0.49809475  0.86626872  1
  O  O453  1  0.33038889  0.99569086  0.19582890  1
  O  O454  1  0.33452992  0.99474356  0.52822121  1
  O  O455  1  0.33268774  0.99384624  0.86071248  1
  O  O456  1  0.84285324  0.49695445  0.19763599  1
  O  O457  1  0.82762582  0.48731621  0.52892508  1
  O  O458  1  0.82416935  0.48766545  0.86040639  1
  O  O459  1  0.83506242  0.98992470  0.20811834  1
  O  O460  1  0.83362019  0.98962416  0.53287641  1
  O  O461  1  0.83831695  0.99495708  0.86089936  1
