# generated using pymatgen
data_Na31Fe20(SO4)36
_symmetry_space_group_name_H-M   'P 1'
_cell_length_a   18.06630871
_cell_length_b   18.06729110
_cell_length_c   19.69462833
_cell_angle_alpha   107.57186579
_cell_angle_beta   107.58829990
_cell_angle_gamma   90.73568048
_symmetry_Int_Tables_number   1
_chemical_formula_structural   Na31Fe20(SO4)36
_chemical_formula_sum   'Na62 Fe40 S72 O288'
_cell_volume   5803.62259231
_cell_formula_units_Z   2
loop_
 _symmetry_equiv_pos_site_id
 _symmetry_equiv_pos_as_xyz
  1  'x, y, z'
loop_
 _atom_site_type_symbol
 _atom_site_label
 _atom_site_symmetry_multiplicity
 _atom_site_fract_x
 _atom_site_fract_y
 _atom_site_fract_z
 _atom_site_occupancy
  Na  Na0  1  0.12743339  0.36165803  0.07470662  1
  Na  Na1  1  0.13839585  0.36678844  0.41622458  1
  Na  Na2  1  0.13301321  0.36597788  0.75044694  1
  Na  Na3  1  0.13621552  0.85649378  0.07390464  1
  Na  Na4  1  0.12724953  0.86645385  0.41961889  1
  Na  Na5  1  0.14197671  0.86512008  0.75588620  1
  Na  Na6  1  0.64050072  0.38062220  0.09447728  1
  Na  Na7  1  0.62296164  0.34376793  0.39708804  1
  Na  Na8  1  0.62816339  0.37717143  0.74749732  1
  Na  Na9  1  0.63578325  0.87246927  0.08953753  1
  Na  Na10  1  0.63910523  0.86250552  0.41893687  1
  Na  Na11  1  0.63571958  0.86175436  0.74869105  1
  Na  Na12  1  0.37335194  0.16979113  0.28006863  1
  Na  Na13  1  0.35393520  0.13141187  0.57719329  1
  Na  Na14  1  0.36870515  0.13809791  0.92496979  1
  Na  Na15  1  0.36334206  0.63043923  0.24398047  1
  Na  Na16  1  0.36666915  0.63942913  0.58637739  1
  Na  Na17  1  0.35234127  0.64945385  0.91659887  1
  Na  Na18  1  0.87186159  0.13651893  0.25132448  1
  Na  Na19  1  0.86844589  0.13117993  0.57962789  1
  Na  Na20  1  0.86854277  0.13639515  0.91382652  1
  Na  Na21  1  0.86403582  0.62748157  0.25683114  1
  Na  Na22  1  0.85660336  0.64245676  0.58083420  1
  Na  Na23  1  0.86566051  0.62317079  0.90897653  1
  Na  Na24  1  0.99613393  0.00673433  0.08665708  1
  Na  Na25  1  0.97846611  0.49580487  0.77179225  1
  Na  Na26  1  0.99659586  0.03981633  0.75103819  1
  Na  Na27  1  0.98443171  0.50537035  0.09100266  1
  Na  Na28  1  0.97884133  0.51947781  0.37211785  1
  Na  Na29  1  0.51026951  0.47365597  0.43002578  1
  Na  Na30  1  0.44683532  0.00522036  0.73446863  1
  Na  Na31  1  0.49783179  0.01727578  0.40021788  1
  Na  Na32  1  0.48217853  0.04945074  0.19205637  1
  Na  Na33  1  0.51536451  0.48989014  0.23648054  1
  Na  Na34  1  0.49014079  1.00246403  0.57737153  1
  Na  Na35  1  0.01419477  1.00032319  0.91360729  1
  Na  Na36  1  0.50853016  0.99067894  0.92786667  1
  Na  Na37  1  0.51689978  0.47405361  0.60554100  1
  Na  Na38  1  -0.00771330  0.51403203  0.57339495  1
  Na  Na39  1  0.54932441  0.49915174  0.93878408  1
  Na  Na40  1  0.00207377  0.98797658  0.27347488  1
  Na  Na41  1  0.01359422  0.95541657  0.55458191  1
  Na  Na42  1  0.75813811  0.75339162  0.66287446  1
  Na  Na43  1  0.75340075  0.25425296  -0.00142942  1
  Na  Na44  1  0.24959642  0.75349300  0.33259578  1
  Na  Na45  1  0.74142251  0.24746866  0.32615323  1
  Na  Na46  1  0.24339536  0.75051735  0.67582763  1
  Na  Na47  1  0.74708801  0.74286281  0.34941623  1
  Na  Na48  1  0.23537385  0.23881097  0.00604526  1
  Na  Na49  1  0.75163516  0.25372609  0.65971259  1
  Na  Na50  1  0.73760986  0.73362888  0.00946625  1
  Na  Na51  1  0.24930183  0.25043196  0.66347120  1
  Na  Na52  1  0.73825401  0.73082409  0.83636861  1
  Na  Na53  1  0.23943075  0.24310366  0.83912021  1
  Na  Na54  1  0.75317063  0.25565302  0.82640044  1
  Na  Na55  1  0.27134937  0.26221991  0.47887034  1
  Na  Na56  1  0.24248870  0.24556362  0.17796100  1
  Na  Na57  1  0.74424255  0.24934333  0.49733299  1
  Na  Na58  1  0.25345638  0.76002496  0.50324436  1
  Na  Na59  1  0.25787506  0.75649603  0.15401575  1
  Na  Na60  1  0.75676218  0.26677867  0.16740086  1
  Na  Na61  1  0.73880956  0.73092425  0.17477212  1
  Fe  Fe62  1  0.46445224  0.80716691  0.78437584  1
  Fe  Fe63  1  0.46785412  0.30133011  0.11945611  1
  Fe  Fe64  1  0.96384010  0.30802693  0.45244645  1
  Fe  Fe65  1  0.96408468  0.80476164  0.11416979  1
  Fe  Fe66  1  0.46234528  0.81041554  0.11636567  1
  Fe  Fe67  1  0.96603112  0.31163420  0.12564349  1
  Fe  Fe68  1  0.46258113  0.31304272  0.78946301  1
  Fe  Fe69  1  0.97103503  0.29909123  0.79413260  1
  Fe  Fe70  1  0.46865797  0.80452286  0.45281584  1
  Fe  Fe71  1  0.96921705  0.80796991  0.78417582  1
  Fe  Fe72  1  0.19078005  0.53828342  0.71611783  1
  Fe  Fe73  1  0.69031564  0.03329757  0.71069304  1
  Fe  Fe74  1  0.69580311  0.03642242  0.04817046  1
  Fe  Fe75  1  0.69245672  0.03255072  0.37485919  1
  Fe  Fe76  1  0.18911613  0.53575608  0.04345391  1
  Fe  Fe77  1  0.19436933  0.03575213  0.04925531  1
  Fe  Fe78  1  0.19635130  0.03124252  0.38401606  1
  Fe  Fe79  1  0.19290654  0.53569768  0.38018375  1
  Fe  Fe80  1  0.19967992  0.02840693  0.70940449  1
  Fe  Fe81  1  0.69900890  0.52905710  0.37793199  1
  Fe  Fe82  1  0.03761316  0.18782199  0.54321089  1
  Fe  Fe83  1  0.04235402  0.19279783  0.21738671  1
  Fe  Fe84  1  0.02531118  0.70139881  0.54409510  1
  Fe  Fe85  1  0.03165651  0.69453089  0.21487304  1
  Fe  Fe86  1  0.04108259  0.69291684  0.88313921  1
  Fe  Fe87  1  0.53311244  0.68808424  0.20887210  1
  Fe  Fe88  1  0.53387004  0.68708765  0.87672856  1
  Fe  Fe89  1  0.53017010  0.19847318  0.54376066  1
  Fe  Fe90  1  0.53430633  0.19085834  0.87783621  1
  Fe  Fe91  1  0.53860532  0.68828905  0.54673043  1
  Fe  Fe92  1  0.30715209  0.46908283  0.62069482  1
  Fe  Fe93  1  0.79851590  0.46822792  0.95900770  1
  Fe  Fe94  1  0.80641947  0.96434527  0.94882984  1
  Fe  Fe95  1  0.31301036  0.96201712  0.95641824  1
  Fe  Fe96  1  0.30686437  0.96354874  0.28418550  1
  Fe  Fe97  1  0.31132387  0.46702384  0.95421163  1
  Fe  Fe98  1  0.80051828  0.46816999  0.62723124  1
  Fe  Fe99  1  0.30985324  0.46771901  0.28752381  1
  Fe  Fe100  1  0.80875116  0.96347097  0.61338728  1
  Fe  Fe101  1  0.81050107  0.96141093  0.28576338  1
  S  S102  1  0.35539430  0.14147144  0.08422677  1
  S  S103  1  0.36158308  0.13470918  0.41916113  1
  S  S104  1  0.35763118  0.14619361  0.75017601  1
  S  S105  1  0.35690324  0.64175182  0.08172110  1
  S  S106  1  0.35862560  0.64330004  0.41689099  1
  S  S107  1  0.35699380  0.64346454  0.75032774  1
  S  S108  1  0.86289486  0.13829984  0.08287427  1
  S  S109  1  0.86110048  0.14116181  0.41360910  1
  S  S110  1  0.85606892  0.13768646  0.74753466  1
  S  S111  1  0.85956593  0.63956095  0.08013651  1
  S  S112  1  0.85811991  0.63607992  0.42070407  1
  S  S113  1  0.86474420  0.64113468  0.75135383  1
  S  S114  1  0.14269393  0.36156669  0.24954493  1
  S  S115  1  0.13929602  0.36146744  0.58200597  1
  S  S116  1  0.14367666  0.36124455  0.91672105  1
  S  S117  1  0.13710606  0.86056347  0.24640427  1
  S  S118  1  0.14519589  0.85469196  0.58962228  1
  S  S119  1  0.14148452  0.86232856  0.91959091  1
  S  S120  1  0.63796662  0.36206049  0.25015082  1
  S  S121  1  0.64063973  0.35659685  0.57935974  1
  S  S122  1  0.64013784  0.35448149  0.91399462  1
  S  S123  1  0.63943562  0.85765728  0.24829654  1
  S  S124  1  0.64294890  0.85869243  0.58249131  1
  S  S125  1  0.64168791  0.85866215  0.91556988  1
  S  S126  1  0.06291348  0.16571503  0.04297887  1
  S  S127  1  0.07204958  0.17062846  0.37780420  1
  S  S128  1  0.06860504  0.16900591  0.70585485  1
  S  S129  1  0.06663540  0.66925849  0.04356448  1
  S  S130  1  0.06947233  0.66869866  0.37495796  1
  S  S131  1  0.06894002  0.67245525  0.70908644  1
  S  S132  1  0.57134319  0.17184115  0.04044229  1
  S  S133  1  0.56546507  0.15725410  0.36903956  1
  S  S134  1  0.56507730  0.16859106  0.70672281  1
  S  S135  1  0.56469107  0.67730322  0.04540237  1
  S  S136  1  0.56895197  0.66744068  0.37360232  1
  S  S137  1  0.56320914  0.66918147  0.70873605  1
  S  S138  1  0.32688723  0.43027378  0.12015310  1
  S  S139  1  0.33254314  0.44409051  0.46257872  1
  S  S140  1  0.32685385  0.43493398  0.78990671  1
  S  S141  1  0.32885183  0.93386073  0.12630157  1
  S  S142  1  0.33105125  0.93082526  0.45637562  1
  S  S143  1  0.33632704  0.93846299  0.79706409  1
  S  S144  1  0.83460078  0.43461509  0.12544752  1
  S  S145  1  0.82456904  0.42698033  0.46094141  1
  S  S146  1  0.83016839  0.42556822  0.79477205  1
  S  S147  1  0.83545760  0.93330268  0.12213913  1
  S  S148  1  0.82836500  0.93521517  0.45207671  1
  S  S149  1  0.83190433  0.93383098  0.78961056  1
  S  S150  1  0.43042293  0.34138342  0.28942152  1
  S  S151  1  0.42799423  0.32759599  0.62354855  1
  S  S152  1  0.43282574  0.32868958  0.95570057  1
  S  S153  1  0.43247469  0.82721392  0.28947292  1
  S  S154  1  0.44176225  0.83125503  0.62206500  1
  S  S155  1  0.43779449  0.83354965  0.95936877  1
  S  S156  1  0.93662996  0.32620883  0.28916453  1
  S  S157  1  0.93096337  0.32860818  0.62687618  1
  S  S158  1  0.92570501  0.32933988  0.95884376  1
  S  S159  1  0.93247739  0.82583094  0.28614075  1
  S  S160  1  0.93602172  0.83849295  0.63083622  1
  S  S161  1  0.93236881  0.83289865  0.95431442  1
  S  S162  1  0.17271599  0.06550900  0.20938287  1
  S  S163  1  0.16499529  0.06336016  0.54101394  1
  S  S164  1  0.17349388  0.06148004  0.87532769  1
  S  S165  1  0.16988645  0.57005932  0.20826598  1
  S  S166  1  0.16595818  0.57034269  0.54319322  1
  S  S167  1  0.16645683  0.56720461  0.87330472  1
  S  S168  1  0.68088085  0.06758208  0.21038912  1
  S  S169  1  0.66664474  0.06519180  0.54020165  1
  S  S170  1  0.66828500  0.06435214  0.87322061  1
  S  S171  1  0.66834815  0.56966381  0.21367980  1
  S  S172  1  0.67152491  0.56631611  0.54217802  1
  S  S173  1  0.67254805  0.56452682  0.87615446  1
  O  O174  1  0.36711705  0.21688713  0.06926706  1
  O  O175  1  0.36725568  0.21081376  0.40911924  1
  O  O176  1  0.36645096  0.22862407  0.74922058  1
  O  O177  1  0.36429094  0.72254146  0.07831790  1
  O  O178  1  0.36924500  0.72370252  0.41111684  1
  O  O179  1  0.36674614  0.72222117  0.74076000  1
  O  O180  1  0.87255479  0.21793327  0.07689139  1
  O  O181  1  0.87007765  0.21959348  0.40312112  1
  O  O182  1  0.86566311  0.21847294  0.74322355  1
  O  O183  1  0.87434630  0.71389718  0.06419220  1
  O  O184  1  0.86259953  0.71431666  0.41530743  1
  O  O185  1  0.87718684  0.71881918  0.74016832  1
  O  O186  1  0.27022643  0.13543826  0.08089569  1
  O  O187  1  0.28405429  0.12196606  0.43072636  1
  O  O188  1  0.27769207  0.13454832  0.75563241  1
  O  O189  1  0.27842231  0.62917278  0.09090089  1
  O  O190  1  0.27999123  0.63674300  0.42668845  1
  O  O191  1  0.27698929  0.63321084  0.75475754  1
  O  O192  1  0.78436016  0.13074921  0.09228114  1
  O  O193  1  0.78110401  0.13300531  0.41990780  1
  O  O194  1  0.77523201  0.12880515  0.75352462  1
  O  O195  1  0.78259976  0.63785870  0.08918199  1
  O  O196  1  0.77990096  0.61981187  0.43235218  1
  O  O197  1  0.79043422  0.63583223  0.76497448  1
  O  O198  1  0.13720356  0.28138676  0.25544096  1
  O  O199  1  0.12970281  0.28234871  0.58992552  1
  O  O200  1  0.13895992  0.28449355  0.92661007  1
  O  O201  1  0.12838733  0.78350457  0.25809804  1
  O  O202  1  0.12478069  0.77764405  0.59929393  1
  O  O203  1  0.12807466  0.78633473  0.93116031  1
  O  O204  1  0.62514164  0.28907487  0.26502508  1
  O  O205  1  0.63039875  0.27317605  0.58040647  1
  O  O206  1  0.63462784  0.27127749  0.91284862  1
  O  O207  1  0.62956249  0.77728592  0.25356208  1
  O  O208  1  0.63520941  0.78026243  0.59157379  1
  O  O209  1  0.63385664  0.77870784  0.92152410  1
  O  O210  1  0.22070275  0.37511794  0.24097778  1
  O  O211  1  0.21745493  0.37048342  0.57214153  1
  O  O212  1  0.22122382  0.37514112  0.90555730  1
  O  O213  1  0.21656021  0.86833838  0.23894309  1
  O  O214  1  0.22713744  0.85799676  0.59307775  1
  O  O215  1  0.22014684  0.87022680  0.91309463  1
  O  O216  1  0.71375379  0.37090405  0.23941497  1
  O  O217  1  0.72683410  0.36551139  0.58711571  1
  O  O218  1  0.72118483  0.36825782  0.90870220  1
  O  O219  1  0.71728292  0.86530020  0.23676003  1
  O  O220  1  0.72094285  0.87040564  0.57454974  1
  O  O221  1  0.71955730  0.86829764  0.90463716  1
  O  O222  1  0.40436084  0.14006241  0.15748306  1
  O  O223  1  0.42190206  0.12689338  0.48747880  1
  O  O224  1  0.41567015  0.13562865  0.81866659  1
  O  O225  1  0.41631272  0.63170095  0.14871224  1
  O  O226  1  0.41823643  0.63263765  0.48281089  1
  O  O227  1  0.41432929  0.63876741  0.82055613  1
  O  O228  1  0.92295311  0.12575452  0.14824820  1
  O  O229  1  0.91831937  0.13804672  0.48444474  1
  O  O230  1  0.91403673  0.12475381  0.81171085  1
  O  O231  1  0.92051887  0.63019419  0.14677564  1
  O  O232  1  0.91889146  0.62940652  0.49081821  1
  O  O233  1  0.92909034  0.63148333  0.81676859  1
  O  O234  1  0.36910642  0.07842021  0.02166391  1
  O  O235  1  0.37083027  0.07261340  0.35258672  1
  O  O236  1  0.36860475  0.09184437  0.68276336  1
  O  O237  1  0.36314425  0.58552799  0.01160219  1
  O  O238  1  0.36245431  0.58673434  0.34598930  1
  O  O239  1  0.36719932  0.58423219  0.68351039  1
  O  O240  1  0.86788618  0.07990364  0.01266336  1
  O  O241  1  0.87219476  0.08095961  0.34810487  1
  O  O242  1  0.86194559  0.08169145  0.67610254  1
  O  O243  1  0.86539965  0.57473470  0.01237598  1
  O  O244  1  0.86664670  0.57644258  0.35491984  1
  O  O245  1  0.86863272  0.58005234  0.68189443  1
  O  O246  1  0.08290068  0.36855725  0.18127065  1
  O  O247  1  0.07859458  0.36966074  0.51474588  1
  O  O248  1  0.08244523  0.36599695  0.84793209  1
  O  O249  1  0.07913328  0.86661374  0.17684254  1
  O  O250  1  0.09256102  0.86233798  0.51954587  1
  O  O251  1  0.08262157  0.87041650  0.85070974  1
  O  O252  1  0.57564432  0.37162032  0.18327141  1
  O  O253  1  0.59290311  0.36650294  0.50867606  1
  O  O254  1  0.58279945  0.36472195  0.84558195  1
  O  O255  1  0.57883294  0.86976214  0.18359291  1
  O  O256  1  0.58257404  0.86603538  0.51437661  1
  O  O257  1  0.58089273  0.86951593  0.84997401  1
  O  O258  1  0.13426887  0.41847763  0.31843775  1
  O  O259  1  0.13297541  0.42054374  0.65084864  1
  O  O260  1  0.13498042  0.42194671  0.98400260  1
  O  O261  1  0.12682467  0.92237007  0.31211732  1
  O  O262  1  0.13268300  0.91700092  0.65518561  1
  O  O263  1  0.13034699  0.92473961  0.98538425  1
  O  O264  1  0.62973309  0.42784960  0.31789261  1
  O  O265  1  0.62407415  0.40974212  0.64426120  1
  O  O266  1  0.62956322  0.40748043  0.98162636  1
  O  O267  1  0.63592787  0.91425642  0.31934281  1
  O  O268  1  0.63352253  0.91786663  0.65041521  1
  O  O269  1  0.63642374  0.91724656  0.98535393  1
  O  O270  1  0.03204280  0.19932698  0.10810602  1
  O  O271  1  0.03269326  0.19970031  0.43682854  1
  O  O272  1  0.02953800  0.19558230  0.76390425  1
  O  O273  1  0.03191647  0.70242836  0.10576389  1
  O  O274  1  0.03436189  0.68819608  0.43547098  1
  O  O275  1  0.03749639  0.70361235  0.77375119  1
  O  O276  1  0.53457189  0.20114219  0.09889993  1
  O  O277  1  0.53543626  0.17489360  0.43364945  1
  O  O278  1  0.52814788  0.19604526  0.76748732  1
  O  O279  1  0.52418341  0.71014293  0.10406781  1
  O  O280  1  0.53314711  0.69607168  0.43579059  1
  O  O281  1  0.52670331  0.70498385  0.77055317  1
  O  O282  1  0.29837436  0.46877894  0.06008755  1
  O  O283  1  0.29812414  0.47811719  0.39909298  1
  O  O284  1  0.29792003  0.47246838  0.72898936  1
  O  O285  1  0.29702803  0.96976101  0.06496819  1
  O  O286  1  0.29486499  0.95751075  0.38831555  1
  O  O287  1  0.31092200  0.97784126  0.73942130  1
  O  O288  1  0.80486464  0.46399442  0.05885308  1
  O  O289  1  0.79133780  0.46176265  0.40052877  1
  O  O290  1  0.81498932  0.46912081  0.74052801  1
  O  O291  1  0.80462064  0.96918662  0.06054137  1
  O  O292  1  0.79419072  0.97442529  0.39216093  1
  O  O293  1  0.80232360  0.96883430  0.72772263  1
  O  O294  1  0.45595134  0.31490860  0.22252444  1
  O  O295  1  0.46687248  0.29922365  0.56595988  1
  O  O296  1  0.47370266  0.29936622  0.89689651  1
  O  O297  1  0.46743730  0.79739549  0.22774551  1
  O  O298  1  0.47885344  0.79309976  0.56218509  1
  O  O299  1  0.47361472  0.80161653  0.89771076  1
  O  O300  1  0.97554450  0.29015209  0.22948136  1
  O  O301  1  0.96853859  0.30356076  0.56626414  1
  O  O302  1  0.96141831  0.30733965  0.89911698  1
  O  O303  1  0.96400526  0.79467018  0.21957935  1
  O  O304  1  0.96669660  0.80702138  0.56789880  1
  O  O305  1  0.96760753  0.80270482  0.89295327  1
  O  O306  1  0.20440587  0.03228794  0.27250185  1
  O  O307  1  0.18956225  0.02797491  0.60150596  1
  O  O308  1  0.20846878  0.02584980  0.93657339  1
  O  O309  1  0.19983237  0.53454603  0.26983379  1
  O  O310  1  0.19707161  0.53277358  0.60357674  1
  O  O311  1  0.19867315  0.53267762  0.93523920  1
  O  O312  1  0.71202456  0.02644450  0.26877838  1
  O  O313  1  0.69902910  0.02859288  0.60092915  1
  O  O314  1  0.69899085  0.02850890  0.93519181  1
  O  O315  1  0.69198958  0.54082362  0.28044106  1
  O  O316  1  0.69725176  0.52497243  0.59752653  1
  O  O317  1  0.70263473  0.52590431  0.93663934  1
  O  O318  1  0.08491070  0.08488426  0.04420208  1
  O  O319  1  0.09211665  0.08996893  0.37386679  1
  O  O320  1  0.08982701  0.08834923  0.70261406  1
  O  O321  1  0.08192236  0.58781844  0.04045479  1
  O  O322  1  0.09006147  0.58607775  0.36250885  1
  O  O323  1  0.08212800  0.58834043  0.70023354  1
  O  O324  1  0.59202977  0.09031994  0.03564989  1
  O  O325  1  0.58668956  0.07352392  0.35512958  1
  O  O326  1  0.58242043  0.08568806  0.69959610  1
  O  O327  1  0.58394776  0.59987320  0.04639756  1
  O  O328  1  0.59179819  0.58713322  0.37032016  1
  O  O329  1  0.57494182  0.58904906  0.70480916  1
  O  O330  1  0.40673401  0.40937568  0.12377811  1
  O  O331  1  0.41547433  0.43650551  0.47244057  1
  O  O332  1  0.40821500  0.41707463  0.79693738  1
  O  O333  1  0.40964584  0.91564700  0.12771878  1
  O  O334  1  0.41083375  0.90799685  0.45500175  1
  O  O335  1  0.41889374  0.91862240  0.80078679  1
  O  O336  1  0.91626916  0.41380169  0.12850558  1
  O  O337  1  0.90685975  0.41094604  0.46340560  1
  O  O338  1  0.91126349  0.40333910  0.80679643  1
  O  O339  1  0.91843951  0.91777023  0.12693020  1
  O  O340  1  0.90669607  0.91894822  0.45214381  1
  O  O341  1  0.91483972  0.91820403  0.79838834  1
  O  O342  1  0.41761391  0.42789114  0.30305993  1
  O  O343  1  0.40800646  0.40848214  0.62596095  1
  O  O344  1  0.41460254  0.40910122  0.95783941  1
  O  O345  1  0.41423680  0.90897884  0.29574507  1
  O  O346  1  0.43130036  0.91159559  0.62114860  1
  O  O347  1  0.42143928  0.91549334  0.96148103  1
  O  O348  1  0.92113653  0.40439952  0.28837823  1
  O  O349  1  0.91201234  0.41068276  0.63650140  1
  O  O350  1  0.90188237  0.41085729  0.97070812  1
  O  O351  1  0.90761157  0.90489388  0.28279037  1
  O  O352  1  0.92035531  0.92216448  0.63619420  1
  O  O353  1  0.91796468  0.91674484  0.96125876  1
  O  O354  1  0.09057831  0.08310904  0.20606597  1
  O  O355  1  0.08140236  0.07895044  0.52846898  1
  O  O356  1  0.09092373  0.06919472  0.86955354  1
  O  O357  1  0.08859524  0.58936618  0.20233369  1
  O  O358  1  0.08495238  0.58850064  0.54030232  1
  O  O359  1  0.08410591  0.58334109  0.86963110  1
  O  O360  1  0.60423098  0.08963845  0.20996922  1
  O  O361  1  0.58529539  0.08215916  0.53798051  1
  O  O362  1  0.58566858  0.07927702  0.86674858  1
  O  O363  1  0.58501434  0.58858267  0.20458227  1
  O  O364  1  0.58774536  0.58223852  0.53404838  1
  O  O365  1  0.59557461  0.59084320  0.88421465  1
  O  O366  1  0.13341897  0.21774762  0.05602203  1
  O  O367  1  0.14099777  0.22485381  0.39388842  1
  O  O368  1  0.13882806  0.22349588  0.72241399  1
  O  O369  1  0.13845615  0.71949813  0.05853081  1
  O  O370  1  0.13966758  0.72324121  0.39187686  1
  O  O371  1  0.14052606  0.72096830  0.72258313  1
  O  O372  1  0.64182886  0.22384716  0.05278330  1
  O  O373  1  0.63674620  0.21076149  0.38684678  1
  O  O374  1  0.63644887  0.22063790  0.72354133  1
  O  O375  1  0.63548692  0.73273212  0.06410528  1
  O  O376  1  0.63617189  0.72248055  0.38700349  1
  O  O377  1  0.63629490  0.72039743  0.72618303  1
  O  O378  1  0.27157992  0.36116996  0.10388288  1
  O  O379  1  0.28431227  0.37062544  0.44587431  1
  O  O380  1  0.27349159  0.36356227  0.77110162  1
  O  O381  1  0.27712933  0.86458945  0.11398120  1
  O  O382  1  0.27894042  0.86220918  0.44784226  1
  O  O383  1  0.28426602  0.86805752  0.78120024  1
  O  O384  1  0.78311720  0.36197080  0.10931560  1
  O  O385  1  0.77546315  0.35396400  0.44677667  1
  O  O386  1  0.77193607  0.35611310  0.76996150  1
  O  O387  1  0.78530727  0.86132821  0.10631892  1
  O  O388  1  0.77422667  0.86625930  0.43684922  1
  O  O389  1  0.78116286  0.86183746  0.77403016  1
  O  O390  1  0.35648985  0.29526496  0.27661051  1
  O  O391  1  0.35594025  0.27500776  0.60632461  1
  O  O392  1  0.36135102  0.27515577  0.93582708  1
  O  O393  1  0.36043397  0.77564213  0.27354245  1
  O  O394  1  0.36849315  0.78264215  0.60652296  1
  O  O395  1  0.36710526  0.78499457  0.94735637  1
  O  O396  1  0.86502421  0.27357394  0.27204805  1
  O  O397  1  0.86031637  0.27330252  0.60685732  1
  O  O398  1  0.85584411  0.27337000  0.94095868  1
  O  O399  1  0.86360784  0.77262718  0.27368716  1
  O  O400  1  0.86503205  0.79116258  0.62292651  1
  O  O401  1  0.86029457  0.78377049  0.93968975  1
  O  O402  1  0.22304492  0.13516186  0.22027416  1
  O  O403  1  0.21576757  0.13627601  0.55873518  1
  O  O404  1  0.22045051  0.13710719  0.89353289  1
  O  O405  1  0.22257055  0.64119044  0.22404291  1
  O  O406  1  0.21863173  0.64139869  0.55942883  1
  O  O407  1  0.21511035  0.63735895  0.88417479  1
  O  O408  1  0.73727432  0.13608159  0.22685138  1
  O  O409  1  0.71871995  0.13620856  0.55514545  1
  O  O410  1  0.71959893  0.13615550  0.88996382  1
  O  O411  1  0.72074638  0.64249676  0.23308280  1
  O  O412  1  0.72196710  0.63928725  0.56256744  1
  O  O413  1  0.72806926  0.63535731  0.89528801  1
  O  O414  1  0.48965140  0.32954396  0.02852918  1
  O  O415  1  0.49169453  0.33881385  0.35703186  1
  O  O416  1  0.48489194  0.33207827  0.69855074  1
  O  O417  1  0.49831504  0.83926315  0.03269399  1
  O  O418  1  0.49245963  0.82850879  0.36140304  1
  O  O419  1  0.49694138  0.83465814  0.69751674  1
  O  O420  1  0.98639073  0.32917790  0.03017040  1
  O  O421  1  0.99399462  0.32772653  0.36320645  1
  O  O422  1  0.98892274  0.32839476  0.69951633  1
  O  O423  1  0.99241612  0.83487072  0.02675874  1
  O  O424  1  0.99584515  0.83571845  0.35495797  1
  O  O425  1  0.99874302  0.84286309  0.70335735  1
  O  O426  1  0.16652381  0.00291510  0.13720168  1
  O  O427  1  0.16962406  0.00451472  0.47023903  1
  O  O428  1  0.17775430  0.00661112  0.80283232  1
  O  O429  1  0.16739974  0.51010908  0.13602154  1
  O  O430  1  0.16241318  0.51164054  0.46963758  1
  O  O431  1  0.16050784  0.50534538  0.79998505  1
  O  O432  1  0.67755156  0.00846114  0.13634148  1
  O  O433  1  0.66217039  0.00662311  0.46666289  1
  O  O434  1  0.66860180  0.00524167  0.80146456  1
  O  O435  1  0.67084799  0.50995066  0.14684779  1
  O  O436  1  0.66906100  0.51184740  0.46558920  1
  O  O437  1  0.66217308  0.50885515  0.80285033  1
  O  O438  1  0.01244894  0.16455016  0.30362070  1
  O  O439  1  0.01081724  0.16467471  0.63113734  1
  O  O440  1  0.00185201  0.15548567  0.97179575  1
  O  O441  1  0.00893891  0.66926703  0.30361310  1
  O  O442  1  0.00581048  0.67203532  0.63904001  1
  O  O443  1  0.00750246  0.66882930  0.97146436  1
  O  O444  1  0.50365180  0.15807108  0.30139862  1
  O  O445  1  0.50611660  0.16687005  0.63433630  1
  O  O446  1  0.51133149  0.16390685  0.96498091  1
  O  O447  1  0.50606630  0.66105167  0.30139437  1
  O  O448  1  0.50624648  0.67242337  0.63617455  1
  O  O449  1  0.50776202  0.67502169  0.97121085  1
  O  O450  1  0.33032675  0.49036514  0.19300906  1
  O  O451  1  0.32611601  0.50244271  0.53324587  1
  O  O452  1  0.32640818  0.49379013  0.86150093  1
  O  O453  1  0.33585475  0.99543709  0.19928354  1
  O  O454  1  0.34166198  0.99618937  0.52496527  1
  O  O455  1  0.34350944  0.99625999  0.87255483  1
  O  O456  1  0.83761535  0.49575003  0.19354736  1
  O  O457  1  0.83135383  0.48592151  0.53539914  1
  O  O458  1  0.82568567  0.48074145  0.86807506  1
  O  O459  1  0.83903586  0.99247428  0.19497812  1
  O  O460  1  0.83063500  0.99439604  0.52608956  1
  O  O461  1  0.83167105  0.99365285  0.86150489  1
