# generated using pymatgen
data_Na31Fe20(SO4)36
_symmetry_space_group_name_H-M   'P 1'
_cell_length_a   18.09785695
_cell_length_b   18.09557998
_cell_length_c   19.73538692
_cell_angle_alpha   107.56957736
_cell_angle_beta   107.60343946
_cell_angle_gamma   90.78113495
_symmetry_Int_Tables_number   1
_chemical_formula_structural   Na31Fe20(SO4)36
_chemical_formula_sum   'Na62 Fe40 S72 O288'
_cell_volume   5833.84817049
_cell_formula_units_Z   2
loop_
 _symmetry_equiv_pos_site_id
 _symmetry_equiv_pos_as_xyz
  1  'x, y, z'
loop_
 _atom_site_type_symbol
 _atom_site_label
 _atom_site_symmetry_multiplicity
 _atom_site_fract_x
 _atom_site_fract_y
 _atom_site_fract_z
 _atom_site_occupancy
  Na  Na0  1  0.13503405  0.36184319  0.07896978  1
  Na  Na1  1  0.13241418  0.37884645  0.42656877  1
  Na  Na2  1  0.12893568  0.37017147  0.74857476  1
  Na  Na3  1  0.12582361  0.86948998  0.08029161  1
  Na  Na4  1  0.13235078  0.86412253  0.42069970  1
  Na  Na5  1  0.12419538  0.84870373  0.72553895  1
  Na  Na6  1  0.63453709  0.35431048  0.08079545  1
  Na  Na7  1  0.63436879  0.36615787  0.41468538  1
  Na  Na8  1  0.63304333  0.37033385  0.75273202  1
  Na  Na9  1  0.63283935  0.86477326  0.08274777  1
  Na  Na10  1  0.64922957  0.86600298  0.42474131  1
  Na  Na11  1  0.63074517  0.86361038  0.74563989  1
  Na  Na12  1  0.36100097  0.13691788  0.24252967  1
  Na  Na13  1  0.36306469  0.13301326  0.57826424  1
  Na  Na14  1  0.36825570  0.14816503  0.93418174  1
  Na  Na15  1  0.36638409  0.63229421  0.24941308  1
  Na  Na16  1  0.36570700  0.62407343  0.57913805  1
  Na  Na17  1  0.35154858  0.62896940  0.90105475  1
  Na  Na18  1  0.86193477  0.14089547  0.25429600  1
  Na  Na19  1  0.85439264  0.12364588  0.56508928  1
  Na  Na20  1  0.87719163  0.13575414  0.91928295  1
  Na  Na21  1  0.88298885  0.64540440  0.27239524  1
  Na  Na22  1  0.87221802  0.64024349  0.58526708  1
  Na  Na23  1  0.85827149  0.62435039  0.91371614  1
  Na  Na24  1  0.43828469  0.50313269  0.71673809  1
  Na  Na25  1  0.48564096  0.01765143  0.08915649  1
  Na  Na26  1  0.98761575  0.02723843  0.77718708  1
  Na  Na27  1  0.51153781  0.47621894  0.09169728  1
  Na  Na28  1  0.48671808  0.01110418  0.74987066  1
  Na  Na29  1  0.49896849  0.00662825  0.41344645  1
  Na  Na30  1  0.95647592  0.50256285  0.08373217  1
  Na  Na31  1  1.00352606  0.56432883  0.45222621  1
  Na  Na32  1  0.98891093  -0.00726693  0.42312109  1
  Na  Na33  1  0.50421796  0.98747336  0.91724827  1
  Na  Na34  1  0.00228242  1.00104857  0.23680548  1
  Na  Na35  1  0.51002224  0.98860549  0.58159711  1
  Na  Na36  1  0.00399327  0.95505684  0.58277493  1
  Na  Na37  1  0.50679815  0.46317776  0.25502803  1
  Na  Na38  1  0.17706694  0.53878868  0.69274420  1
  Na  Na39  1  0.56457341  0.99907552  0.27121273  1
  Na  Na40  1  0.51843919  0.49325418  0.91501281  1
  Na  Na41  1  0.00272775  0.48218187  0.90815204  1
  Na  Na42  1  0.25208119  0.75447641  -0.00581755  1
  Na  Na43  1  0.76249420  0.26216323  -0.00652957  1
  Na  Na44  1  0.25961732  0.26283375  0.31958278  1
  Na  Na45  1  0.75665667  0.25216070  0.65836795  1
  Na  Na46  1  0.74744502  0.73913774  0.35086612  1
  Na  Na47  1  0.25902232  0.26407207  0.65815428  1
  Na  Na48  1  0.24134130  0.74205049  0.34055954  1
  Na  Na49  1  0.23910148  0.24123432  0.01695459  1
  Na  Na50  1  0.75664204  0.75789383  0.65436289  1
  Na  Na51  1  0.74634693  0.74542558  0.00040581  1
  Na  Na52  1  0.75522384  0.75654283  0.82793739  1
  Na  Na53  1  0.22489253  0.73659901  0.52556747  1
  Na  Na54  1  0.23829667  0.24425971  0.84123683  1
  Na  Na55  1  0.74404576  0.24605042  0.17730076  1
  Na  Na56  1  0.26071924  0.26532835  0.48825136  1
  Na  Na57  1  0.75411612  0.25461467  0.48408278  1
  Na  Na58  1  0.75131398  0.74214530  0.17587829  1
  Na  Na59  1  0.76436830  0.26919094  0.82984473  1
  Na  Na60  1  0.24757252  0.74789521  0.16835113  1
  Na  Na61  1  0.25158648  0.75738542  0.81547346  1
  Fe  Fe62  1  0.46625112  0.31547033  0.45618422  1
  Fe  Fe63  1  0.46792385  0.80669157  0.12007000  1
  Fe  Fe64  1  0.96829499  0.29520559  0.78974168  1
  Fe  Fe65  1  0.96198733  0.80974434  0.11980226  1
  Fe  Fe66  1  0.96320754  0.81409581  0.79135638  1
  Fe  Fe67  1  0.96647951  0.31017776  0.45687573  1
  Fe  Fe68  1  0.96901425  0.30657023  0.12058683  1
  Fe  Fe69  1  0.46198437  0.80646578  0.77831512  1
  Fe  Fe70  1  0.46362658  0.80236100  0.44773325  1
  Fe  Fe71  1  0.46379368  0.30752308  0.78425072  1
  Fe  Fe72  1  0.68993035  0.53296294  0.71153816  1
  Fe  Fe73  1  0.19239901  0.53129833  0.37550081  1
  Fe  Fe74  1  0.19447958  0.03367613  0.38062191  1
  Fe  Fe75  1  0.18663399  0.03725108  0.04492608  1
  Fe  Fe76  1  0.19308370  0.53650429  0.04442176  1
  Fe  Fe77  1  0.68766836  0.03525158  0.71505617  1
  Fe  Fe78  1  0.19139493  0.03705115  0.71554686  1
  Fe  Fe79  1  0.69086338  0.03660455  0.04844891  1
  Fe  Fe80  1  0.70124502  0.52785203  0.04454374  1
  Fe  Fe81  1  0.69672235  0.53634049  0.38438075  1
  Fe  Fe82  1  0.03287337  0.18704803  0.54622471  1
  Fe  Fe83  1  0.03407675  0.69528211  0.21260397  1
  Fe  Fe84  1  0.03730846  0.19007595  0.21211546  1
  Fe  Fe85  1  0.03423565  0.68551585  0.87526135  1
  Fe  Fe86  1  0.53596204  0.68737081  0.21133168  1
  Fe  Fe87  1  0.53629608  0.19221684  0.54630611  1
  Fe  Fe88  1  0.53278929  0.69144140  0.87532258  1
  Fe  Fe89  1  0.53027977  0.19570267  0.88416476  1
  Fe  Fe90  1  0.53578570  0.68339100  0.54042442  1
  Fe  Fe91  1  0.53185074  0.20223353  0.21555982  1
  Fe  Fe92  1  0.30970617  0.46736526  0.95186078  1
  Fe  Fe93  1  0.30666009  0.96634700  0.61605124  1
  Fe  Fe94  1  0.80108023  0.96734399  0.61632059  1
  Fe  Fe95  1  0.30925770  0.46085618  0.28201815  1
  Fe  Fe96  1  0.80028964  0.96887696  0.28954552  1
  Fe  Fe97  1  0.30818813  0.96648827  0.28272376  1
  Fe  Fe98  1  0.80681165  0.96780482  0.95612887  1
  Fe  Fe99  1  0.30577019  0.96258224  0.94917590  1
  Fe  Fe100  1  0.81424852  0.46625196  0.62437555  1
  Fe  Fe101  1  0.81621182  0.46150508  0.29437372  1
  S  S102  1  0.36024283  0.13438451  0.08269277  1
  S  S103  1  0.35936297  0.13988291  0.41626039  1
  S  S104  1  0.35871528  0.14013950  0.74873694  1
  S  S105  1  0.36062977  0.64351197  0.08083693  1
  S  S106  1  0.35872584  0.63799054  0.41233731  1
  S  S107  1  0.35839723  0.64929572  0.75186071  1
  S  S108  1  0.85790477  0.14159335  0.08472059  1
  S  S109  1  0.86336453  0.13973617  0.41460257  1
  S  S110  1  0.84795399  0.13935358  0.74778052  1
  S  S111  1  0.85896987  0.64306579  0.08560763  1
  S  S112  1  0.85876517  0.63992288  0.41501279  1
  S  S113  1  0.85463392  0.64272281  0.75343533  1
  S  S114  1  0.14224130  0.35846771  0.24742616  1
  S  S115  1  0.13987872  0.34813741  0.58502888  1
  S  S116  1  0.14350012  0.36056185  0.91516847  1
  S  S117  1  0.14248856  0.86086589  0.24828962  1
  S  S118  1  0.14245504  0.86602110  0.58230675  1
  S  S119  1  0.14109338  0.85968865  0.91924546  1
  S  S120  1  0.64361396  0.36421781  0.25071431  1
  S  S121  1  0.64423703  0.35822523  0.58425919  1
  S  S122  1  0.63834571  0.35709530  0.91812901  1
  S  S123  1  0.64194766  0.85166804  0.24837547  1
  S  S124  1  0.63485372  0.85938239  0.58240248  1
  S  S125  1  0.63663670  0.86009365  0.91406990  1
  S  S126  1  0.06685639  0.17074709  0.04593120  1
  S  S127  1  0.07059831  0.16238893  0.37212404  1
  S  S128  1  0.06044066  0.16010528  0.70586469  1
  S  S129  1  0.06569528  0.67292464  0.04231830  1
  S  S130  1  0.07890896  0.67037994  0.37278679  1
  S  S131  1  0.05728821  0.67637607  0.71711305  1
  S  S132  1  0.56575782  0.16497652  0.04230669  1
  S  S133  1  0.55865545  0.17355091  0.37749714  1
  S  S134  1  0.56304498  0.16953094  0.70933628  1
  S  S135  1  0.56916977  0.66759538  0.04116692  1
  S  S136  1  0.56728133  0.66806617  0.37211042  1
  S  S137  1  0.56844712  0.67266833  0.70789750  1
  S  S138  1  0.33333554  0.43998197  0.12193432  1
  S  S139  1  0.32402058  0.43254118  0.45065694  1
  S  S140  1  0.33688427  0.43309622  0.79217613  1
  S  S141  1  0.33614466  0.93000614  0.12534424  1
  S  S142  1  0.33570427  0.93390682  0.45503801  1
  S  S143  1  0.33533034  0.93824341  0.79363386  1
  S  S144  1  0.82780976  0.42903966  0.12721568  1
  S  S145  1  0.82959311  0.43054318  0.46091946  1
  S  S146  1  0.83078017  0.43030541  0.78954326  1
  S  S147  1  0.82202807  0.93257292  0.12277849  1
  S  S148  1  0.82868134  0.93517511  0.45441372  1
  S  S149  1  0.82129869  0.93517193  0.79161177  1
  S  S150  1  0.43476719  0.33007911  0.29304234  1
  S  S151  1  0.43346042  0.32422398  0.61835795  1
  S  S152  1  0.43431947  0.33308342  0.95688580  1
  S  S153  1  0.43450292  0.82988870  0.28968859  1
  S  S154  1  0.43174091  0.83358951  0.62047253  1
  S  S155  1  0.43452382  0.83063472  0.95700171  1
  S  S156  1  0.93653196  0.32622460  0.29055003  1
  S  S157  1  0.92701359  0.31870020  0.62295969  1
  S  S158  1  0.93927084  0.33204690  0.95801700  1
  S  S159  1  0.93683358  0.83965263  0.28966192  1
  S  S160  1  0.93013320  0.84768693  0.63840881  1
  S  S161  1  0.92571646  0.82855145  0.95751383  1
  S  S162  1  0.17196644  0.06579854  0.21140063  1
  S  S163  1  0.17280262  0.06841610  0.54170844  1
  S  S164  1  0.17574390  0.06681345  0.87966398  1
  S  S165  1  0.16975592  0.56815216  0.20450463  1
  S  S166  1  0.17770860  0.56147010  0.54170436  1
  S  S167  1  0.16914273  0.56686192  0.87749779  1
  S  S168  1  0.66539871  0.06682897  0.20478905  1
  S  S169  1  0.65820626  0.06092423  0.54007738  1
  S  S170  1  0.66277306  0.06781110  0.87597339  1
  S  S171  1  0.67316113  0.56539982  0.20797409  1
  S  S172  1  0.67525727  0.56750843  0.54597284  1
  S  S173  1  0.66166092  0.56621531  0.87258935  1
  O  O174  1  0.36454249  0.20741625  0.06672223  1
  O  O175  1  0.36432181  0.22103182  0.41355904  1
  O  O176  1  0.36837023  0.21692526  0.73748905  1
  O  O177  1  0.37129826  0.72272873  0.07300797  1
  O  O178  1  0.36785915  0.71632007  0.40144351  1
  O  O179  1  0.36661153  0.73313959  0.75382642  1
  O  O180  1  0.86766435  0.22080354  0.07766266  1
  O  O181  1  0.88068676  0.21784978  0.40793729  1
  O  O182  1  0.86077822  0.22240010  0.75032126  1
  O  O183  1  0.86510892  0.72431765  0.08090579  1
  O  O184  1  0.87042116  0.71013499  0.39575312  1
  O  O185  1  0.85872345  0.72457371  0.75061029  1
  O  O186  1  0.28363046  0.11957508  0.09315738  1
  O  O187  1  0.28314450  0.12692395  0.42871277  1
  O  O188  1  0.28033654  0.13215801  0.75734607  1
  O  O189  1  0.28163916  0.63700682  0.08917691  1
  O  O190  1  0.27835233  0.62899920  0.41730776  1
  O  O191  1  0.28239566  0.63434796  0.76050988  1
  O  O192  1  0.77895144  0.13244817  0.09357572  1
  O  O193  1  0.79036370  0.13645267  0.43085821  1
  O  O194  1  0.76759178  0.13326045  0.75546151  1
  O  O195  1  0.77808860  0.63099122  0.08916265  1
  O  O196  1  0.77467659  0.63059807  0.41345402  1
  O  O197  1  0.77598947  0.62815535  0.76179666  1
  O  O198  1  0.13257646  0.28053224  0.25711783  1
  O  O199  1  0.12292016  0.27058560  0.59630787  1
  O  O200  1  0.14376921  0.28513526  0.92764567  1
  O  O201  1  0.13360185  0.77952227  0.25056397  1
  O  O202  1  0.13488317  0.78951983  0.59066204  1
  O  O203  1  0.12824846  0.78212707  0.92895239  1
  O  O204  1  0.63059636  0.28416434  0.25414271  1
  O  O205  1  0.63343029  0.27896017  0.59212500  1
  O  O206  1  0.62390015  0.28018336  0.93015291  1
  O  O207  1  0.63431206  0.76869255  0.24785855  1
  O  O208  1  0.62528395  0.78135048  0.59162935  1
  O  O209  1  0.62854215  0.78140311  0.92300781  1
  O  O210  1  0.22137844  0.36729629  0.24022878  1
  O  O211  1  0.21673651  0.34623989  0.57485484  1
  O  O212  1  0.21981329  0.37722323  0.90333045  1
  O  O213  1  0.22032167  0.87022130  0.23773904  1
  O  O214  1  0.22270405  0.87728733  0.57331913  1
  O  O215  1  0.22109040  0.86389604  0.91059873  1
  O  O216  1  0.72568675  0.37164455  0.24853650  1
  O  O217  1  0.72371724  0.36538331  0.57718919  1
  O  O218  1  0.71625772  0.36206277  0.91194495  1
  O  O219  1  0.72014303  0.86493917  0.24041969  1
  O  O220  1  0.71405394  0.87052554  0.57760836  1
  O  O221  1  0.71549958  0.87029206  0.90693988  1
  O  O222  1  0.42179153  0.13166301  0.15250550  1
  O  O223  1  0.42193879  0.12670093  0.47959657  1
  O  O224  1  0.41812775  0.13219949  0.81677943  1
  O  O225  1  0.41860106  0.63619722  0.14977922  1
  O  O226  1  0.41641803  0.63599556  0.48320164  1
  O  O227  1  0.41957268  0.63887218  0.81987969  1
  O  O228  1  0.91700454  0.13165477  0.15137870  1
  O  O229  1  0.92700268  0.12194951  0.47566053  1
  O  O230  1  0.90447669  0.12018142  0.80868637  1
  O  O231  1  0.91577879  0.63747655  0.15669649  1
  O  O232  1  0.91068351  0.63839868  0.48715963  1
  O  O233  1  0.91393967  0.63438786  0.82078870  1
  O  O234  1  0.37363648  0.06981803  0.01917512  1
  O  O235  1  0.36419496  0.08476068  0.34474764  1
  O  O236  1  0.36788972  0.07898968  0.68173793  1
  O  O237  1  0.36878586  0.58516167  0.01326062  1
  O  O238  1  0.36865546  0.57822620  0.34642654  1
  O  O239  1  0.37099673  0.59802723  0.68455425  1
  O  O240  1  0.86133746  0.08335283  0.01444769  1
  O  O241  1  0.86276150  0.08101427  0.34214949  1
  O  O242  1  0.84910052  0.08810672  0.67334632  1
  O  O243  1  0.87236192  0.58663712  0.02113646  1
  O  O244  1  0.87235183  0.57183664  0.35360092  1
  O  O245  1  0.86191930  0.58823614  0.68362586  1
  O  O246  1  0.08399067  0.36647825  0.17958771  1
  O  O247  1  0.08046527  0.35425040  0.51514156  1
  O  O248  1  0.08078800  0.36265003  0.84593133  1
  O  O249  1  0.08154381  0.87425343  0.18415590  1
  O  O250  1  0.08432124  0.87994536  0.51854328  1
  O  O251  1  0.08309011  0.87134071  0.85397306  1
  O  O252  1  0.58900932  0.37856031  0.18495546  1
  O  O253  1  0.58632814  0.36713562  0.51682674  1
  O  O254  1  0.57935654  0.36464524  0.84925704  1
  O  O255  1  0.58289998  0.86266802  0.18041035  1
  O  O256  1  0.57664075  0.86630350  0.51307054  1
  O  O257  1  0.57744997  0.86727346  0.84543473  1
  O  O258  1  0.13467287  0.41835770  0.31536196  1
  O  O259  1  0.13544453  0.40960377  0.65099033  1
  O  O260  1  0.13169168  0.42262313  0.98018691  1
  O  O261  1  0.13908087  0.91577879  0.32006507  1
  O  O262  1  0.13832195  0.92655064  0.65343122  1
  O  O263  1  0.13996840  0.91969557  0.98992213  1
  O  O264  1  0.63510404  0.42189786  0.32039036  1
  O  O265  1  0.63737228  0.41649368  0.65314999  1
  O  O266  1  0.62862100  0.41884546  0.98446451  1
  O  O267  1  0.63099376  0.90468767  0.31592674  1
  O  O268  1  0.62246397  0.91952836  0.64851844  1
  O  O269  1  0.62644752  0.91947003  0.98078169  1
  O  O270  1  0.03128765  0.20329004  0.10977208  1
  O  O271  1  0.03816325  0.19195585  0.43451819  1
  O  O272  1  0.02083099  0.18818172  0.76269827  1
  O  O273  1  0.02730985  0.70153866  0.10229850  1
  O  O274  1  0.04627259  0.67569756  0.43223323  1
  O  O275  1  0.02098731  0.71360810  0.78129649  1
  O  O276  1  0.53381991  0.18868217  0.10439507  1
  O  O277  1  0.52265837  0.21098750  0.43837268  1
  O  O278  1  0.52852965  0.20022675  0.77148901  1
  O  O279  1  0.53090093  0.69699006  0.10082955  1
  O  O280  1  0.53045720  0.69717561  0.43354022  1
  O  O281  1  0.52898271  0.70392866  0.76708184  1
  O  O282  1  0.29930223  0.47779795  0.06148197  1
  O  O283  1  0.29254482  0.46936429  0.38735525  1
  O  O284  1  0.31676610  0.46710507  0.73206063  1
  O  O285  1  0.30512162  0.96036387  0.06149182  1
  O  O286  1  0.30602461  0.96931873  0.39338621  1
  O  O287  1  0.30461991  0.97364322  0.73261807  1
  O  O288  1  0.80136915  0.46848870  0.06923495  1
  O  O289  1  0.79845041  0.46931470  0.40161653  1
  O  O290  1  0.80350461  0.46555044  0.72620081  1
  O  O291  1  0.79277964  0.96942742  0.06149176  1
  O  O292  1  0.79825818  0.96953615  0.39318757  1
  O  O293  1  0.79134476  0.97170352  0.73051108  1
  O  O294  1  0.47069283  0.30165519  0.23293419  1
  O  O295  1  0.47440842  0.29103840  0.56057695  1
  O  O296  1  0.46276362  0.29737052  0.88993804  1
  O  O297  1  0.47146516  0.79969338  0.22940180  1
  O  O298  1  0.46575150  0.80302680  0.55840413  1
  O  O299  1  0.47249478  0.80356925  0.89771892  1
  O  O300  1  0.97482843  0.29729173  0.23047579  1
  O  O301  1  0.96351726  0.29009207  0.56182147  1
  O  O302  1  0.97275066  0.29673403  0.89754400  1
  O  O303  1  0.97182549  0.80585844  0.22639365  1
  O  O304  1  0.96404423  0.82889218  0.57863088  1
  O  O305  1  0.96480364  0.80257584  0.89913780  1
  O  O306  1  0.20216155  0.02798328  0.27235375  1
  O  O307  1  0.20447272  0.03683833  0.60571337  1
  O  O308  1  0.20878385  0.02816203  0.93998658  1
  O  O309  1  0.19937960  0.52986945  0.26388781  1
  O  O310  1  0.21019554  0.50847273  0.58250103  1
  O  O311  1  0.20637720  0.53584929  0.94264241  1
  O  O312  1  0.69287762  0.02856591  0.26306567  1
  O  O313  1  0.69049524  0.02889517  0.60467158  1
  O  O314  1  0.69370182  0.03151843  0.93660648  1
  O  O315  1  0.70024335  0.52910716  0.26816495  1
  O  O316  1  0.70301054  0.52732822  0.60453958  1
  O  O317  1  0.68221572  0.53130495  0.93344911  1
  O  O318  1  0.09328814  0.09464820  0.05257821  1
  O  O319  1  0.08506351  0.07823467  0.36430470  1
  O  O320  1  0.07952602  0.07810678  0.70273319  1
  O  O321  1  0.08459813  0.59183431  0.03671049  1
  O  O322  1  0.10338499  0.59071540  0.34526906  1
  O  O323  1  0.07345198  0.59888046  0.72156118  1
  O  O324  1  0.58059826  0.08010587  0.02832929  1
  O  O325  1  0.56590887  0.09218371  0.37666613  1
  O  O326  1  0.57730589  0.08615528  0.70452904  1
  O  O327  1  0.58865017  0.58687867  0.03762006  1
  O  O328  1  0.58769580  0.58783318  0.36746053  1
  O  O329  1  0.58760275  0.59327583  0.70661247  1
  O  O330  1  0.41599307  0.43255859  0.12923209  1
  O  O331  1  0.39796055  0.40197766  0.44290590  1
  O  O332  1  0.42174366  0.41515507  0.80602730  1
  O  O333  1  0.41993736  0.91644430  0.13337700  1
  O  O334  1  0.41842026  0.91734324  0.46029277  1
  O  O335  1  0.41715109  0.91928134  0.79414798  1
  O  O336  1  0.90742169  0.40677889  0.12775906  1
  O  O337  1  0.90823718  0.40987743  0.45994877  1
  O  O338  1  0.90833850  0.40138910  0.79183614  1
  O  O339  1  0.90378061  0.91579724  0.12929811  1
  O  O340  1  0.91285793  0.93007778  0.46840421  1
  O  O341  1  0.90271330  0.91849266  0.79944797  1
  O  O342  1  0.41284764  0.40987799  0.29267291  1
  O  O343  1  0.41243068  0.39997566  0.61396535  1
  O  O344  1  0.41843822  0.41570369  0.96025101  1
  O  O345  1  0.41752947  0.91206203  0.29569673  1
  O  O346  1  0.41803688  0.91772070  0.62694364  1
  O  O347  1  0.41903084  0.91392759  0.96448138  1
  O  O348  1  0.91933372  0.40725189  0.29693342  1
  O  O349  1  0.90776943  0.39860970  0.62783485  1
  O  O350  1  0.93019523  0.41480249  0.96488297  1
  O  O351  1  0.91145349  0.91777601  0.28528479  1
  O  O352  1  0.90931022  0.93204168  0.65199293  1
  O  O353  1  0.90142843  0.90687269  0.96048227  1
  O  O354  1  0.09036874  0.08186009  0.20740831  1
  O  O355  1  0.08971226  0.08086080  0.53273706  1
  O  O356  1  0.09660632  0.08200869  0.87647383  1
  O  O357  1  0.08889023  0.58806948  0.19649152  1
  O  O358  1  0.10476792  0.58622168  0.55397216  1
  O  O359  1  0.08870428  0.58323226  0.88026484  1
  O  O360  1  0.58514704  0.08920452  0.20441752  1
  O  O361  1  0.57744976  0.08309123  0.54227147  1
  O  O362  1  0.57986043  0.08328185  0.87135229  1
  O  O363  1  0.59022687  0.58303124  0.20054479  1
  O  O364  1  0.59609517  0.58926636  0.54394079  1
  O  O365  1  0.57740006  0.58203690  0.85775265  1
  O  O366  1  0.13447048  0.22603192  0.05966529  1
  O  O367  1  0.14223139  0.21085372  0.38388215  1
  O  O368  1  0.13294163  0.21157372  0.72401086  1
  O  O369  1  0.13679587  0.72682471  0.06146517  1
  O  O370  1  0.14764758  0.73026501  0.39694209  1
  O  O371  1  0.12970246  0.72831499  0.73602751  1
  O  O372  1  0.63839849  0.21424449  0.05722004  1
  O  O373  1  0.63315043  0.21929026  0.39361246  1
  O  O374  1  0.63498857  0.21893999  0.72406964  1
  O  O375  1  0.63990735  0.72158324  0.05892177  1
  O  O376  1  0.63456009  0.72329588  0.38639213  1
  O  O377  1  0.63912034  0.72661162  0.72588502  1
  O  O378  1  0.28511572  0.36636779  0.10326097  1
  O  O379  1  0.26553818  0.36529600  0.43427922  1
  O  O380  1  0.28603403  0.36089393  0.77654903  1
  O  O381  1  0.28782316  0.85762498  0.11342812  1
  O  O382  1  0.28532974  0.86296430  0.44011609  1
  O  O383  1  0.28429830  0.86969241  0.78304121  1
  O  O384  1  0.77318694  0.35836891  0.10897381  1
  O  O385  1  0.77526328  0.36196904  0.44598418  1
  O  O386  1  0.77153861  0.36292413  0.77158096  1
  O  O387  1  0.77012250  0.86044389  0.10389530  1
  O  O388  1  0.78263470  0.86003940  0.43693008  1
  O  O389  1  0.76889142  0.86287426  0.77275882  1
  O  O390  1  0.36623974  0.27708125  0.28109129  1
  O  O391  1  0.36488055  0.26766879  0.60175002  1
  O  O392  1  0.36221548  0.28496397  0.94502173  1
  O  O393  1  0.36262897  0.77875189  0.27318189  1
  O  O394  1  0.36064626  0.78538191  0.60806659  1
  O  O395  1  0.36177803  0.78027246  0.93887862  1
  O  O396  1  0.86491957  0.27355429  0.27090467  1
  O  O397  1  0.85553777  0.26431458  0.60380671  1
  O  O398  1  0.86392379  0.28464135  0.94256004  1
  O  O399  1  0.86913393  0.78488321  0.27680507  1
  O  O400  1  0.86136746  0.79451604  0.62555599  1
  O  O401  1  0.85748964  0.77173962  0.94160813  1
  O  O402  1  0.22322791  0.13735424  0.22968769  1
  O  O403  1  0.22200852  0.14043678  0.55543020  1
  O  O404  1  0.22915054  0.13895789  0.89905955  1
  O  O405  1  0.22406321  0.63938542  0.22300526  1
  O  O406  1  0.23442336  0.62839042  0.55538029  1
  O  O407  1  0.21732026  0.64058375  0.89183974  1
  O  O408  1  0.71861288  0.13422848  0.21559251  1
  O  O409  1  0.70892173  0.13071760  0.55138016  1
  O  O410  1  0.71258257  0.13919742  0.89036183  1
  O  O411  1  0.72530433  0.63681117  0.22494312  1
  O  O412  1  0.73030372  0.63651872  0.56333429  1
  O  O413  1  0.71324303  0.63909485  0.89208729  1
  O  O414  1  0.49766481  0.33739734  0.02537933  1
  O  O415  1  0.49557527  0.33865625  0.36691509  1
  O  O416  1  0.49050793  0.33059112  0.69409394  1
  O  O417  1  0.49232516  0.83089796  0.02964478  1
  O  O418  1  0.49327703  0.83152662  0.36218183  1
  O  O419  1  0.49263074  0.83704528  0.69304422  1
  O  O420  1  0.99464988  0.32943191  0.03150113  1
  O  O421  1  0.99405909  0.32528596  0.36272697  1
  O  O422  1  0.98517604  0.31784221  0.69450641  1
  O  O423  1  0.98496695  0.83401094  0.03170266  1
  O  O424  1  0.99865264  0.85318425  0.36120233  1
  O  O425  1  0.99125511  0.85126512  0.71202540  1
  O  O426  1  0.17238865  0.00702100  0.14017554  1
  O  O427  1  0.17469142  0.00721865  0.47137234  1
  O  O428  1  0.17861759  0.00958848  0.80774914  1
  O  O429  1  0.16888149  0.50996737  0.13178950  1
  O  O430  1  0.15600846  0.51424672  0.45544713  1
  O  O431  1  0.16666300  0.50743440  0.80779082  1
  O  O432  1  0.65391825  0.00594627  0.12902135  1
  O  O433  1  0.64563853  -0.00128834  0.46905378  1
  O  O434  1  0.65776686  0.00806624  0.80240492  1
  O  O435  1  0.66932997  0.50675035  0.13436439  1
  O  O436  1  0.67021778  0.50928222  0.47222006  1
  O  O437  1  0.66777479  0.50833430  0.80276785  1
  O  O438  1  0.00960911  0.15939896  0.29947925  1
  O  O439  1  0.00467999  0.15397997  0.63006115  1
  O  O440  1  0.00563071  0.15929565  0.97533396  1
  O  O441  1  0.01819484  0.68124887  0.30570183  1
  O  O442  1  -0.00052501  0.67768619  0.64797274  1
  O  O443  1  0.00764935  0.67192716  0.96997957  1
  O  O444  1  0.50329138  0.17336498  0.30367016  1
  O  O445  1  0.50370256  0.16690322  0.63716197  1
  O  O446  1  0.50528359  0.16725186  0.97159998  1
  O  O447  1  0.50564546  0.66370207  0.29958395  1
  O  O448  1  0.51064352  0.67067710  0.63493835  1
  O  O449  1  0.51106714  0.66437081  0.96789762  1
  O  O450  1  0.32980573  0.49570732  0.19484938  1
  O  O451  1  0.33634176  0.49261970  0.52137747  1
  O  O452  1  0.33626269  0.49232598  0.86468151  1
  O  O453  1  0.33574281  0.99127376  0.19599175  1
  O  O454  1  0.33913666  0.99400492  0.52760149  1
  O  O455  1  0.34604596  0.99865568  0.86835251  1
  O  O456  1  0.83349227  0.48597514  0.20144323  1
  O  O457  1  0.83648118  0.49013057  0.53490748  1
  O  O458  1  0.83794368  0.49135784  0.85980159  1
  O  O459  1  0.82058889  0.99120040  0.19353887  1
  O  O460  1  0.81817133  0.99081668  0.52490894  1
  O  O461  1  0.81931394  0.99358527  0.86285025  1
