# generated using pymatgen
data_Na31Fe20(SO4)36
_symmetry_space_group_name_H-M   'P 1'
_cell_length_a   18.09599795
_cell_length_b   18.08477586
_cell_length_c   19.73443265
_cell_angle_alpha   107.55762780
_cell_angle_beta   107.56581263
_cell_angle_gamma   90.73868619
_symmetry_Int_Tables_number   1
_chemical_formula_structural   Na31Fe20(SO4)36
_chemical_formula_sum   'Na62 Fe40 S72 O288'
_cell_volume   5831.84346874
_cell_formula_units_Z   2
loop_
 _symmetry_equiv_pos_site_id
 _symmetry_equiv_pos_as_xyz
  1  'x, y, z'
loop_
 _atom_site_type_symbol
 _atom_site_label
 _atom_site_symmetry_multiplicity
 _atom_site_fract_x
 _atom_site_fract_y
 _atom_site_fract_z
 _atom_site_occupancy
  Na  Na0  1  0.12314878  0.36808908  0.07829652  1
  Na  Na1  1  0.11848977  0.37097765  0.41343814  1
  Na  Na2  1  0.13647347  0.37332002  0.75060584  1
  Na  Na3  1  0.12826353  0.87293988  0.08288084  1
  Na  Na4  1  0.13366795  0.86821953  0.41709660  1
  Na  Na5  1  0.13235965  0.86185097  0.74823972  1
  Na  Na6  1  0.76004279  0.27698238  0.13314047  1
  Na  Na7  1  0.65921099  0.35642658  0.40741106  1
  Na  Na8  1  0.63823073  0.36608385  0.75422443  1
  Na  Na9  1  0.63114995  0.86699925  0.08436770  1
  Na  Na10  1  0.63612318  0.86810199  0.42089019  1
  Na  Na11  1  0.63680519  0.86791717  0.75591356  1
  Na  Na12  1  0.37568351  0.13303243  0.25102265  1
  Na  Na13  1  0.36515790  0.13219236  0.57966420  1
  Na  Na14  1  0.36241854  0.12817070  0.91024348  1
  Na  Na15  1  0.37483978  0.62590560  0.25230507  1
  Na  Na16  1  0.37434918  0.63868019  0.59298395  1
  Na  Na17  1  0.36921486  0.62267049  0.91247437  1
  Na  Na18  1  0.81521946  0.21758271  0.28898276  1
  Na  Na19  1  0.84876790  0.14030217  0.56769700  1
  Na  Na20  1  0.85399761  0.15809859  0.95125922  1
  Na  Na21  1  0.86875034  0.62977063  0.25335947  1
  Na  Na22  1  0.86947407  0.63968981  0.58240685  1
  Na  Na23  1  0.87103425  0.62686527  0.91738569  1
  Na  Na24  1  0.48886400  0.01334844  0.75130347  1
  Na  Na25  1  0.98984666  0.50995876  0.75273403  1
  Na  Na26  1  0.49204364  0.50704276  0.75119247  1
  Na  Na27  1  0.81364298  0.45735734  0.28810042  1
  Na  Na28  1  0.55141567  0.43977813  0.08287316  1
  Na  Na29  1  0.49533936  0.01338035  0.39566001  1
  Na  Na30  1  0.98304808  0.00525876  0.76401417  1
  Na  Na31  1  0.99627538  0.02578173  0.40296506  1
  Na  Na32  1  0.49272583  0.04021067  0.10739455  1
  Na  Na33  1  0.51688283  0.98536051  0.57993307  1
  Na  Na34  1  0.58017130  0.49976833  0.28826282  1
  Na  Na35  1  0.51541472  0.98875515  0.92137443  1
  Na  Na36  1  -0.04928779  1.01727532  0.97028469  1
  Na  Na37  1  -0.01090733  1.01554787  0.57823112  1
  Na  Na38  1  -0.03060428  1.03665356  0.21599573  1
  Na  Na39  1  0.49178836  0.53645363  0.49159404  1
  Na  Na40  1  0.03440816  0.48021857  0.57377744  1
  Na  Na41  1  0.01122855  0.46214267  0.21607857  1
  Na  Na42  1  0.75849725  0.26119449  0.65859309  1
  Na  Na43  1  0.24384356  0.74350811  0.00507665  1
  Na  Na44  1  0.24553478  0.74461148  0.33762430  1
  Na  Na45  1  0.23757897  0.73166952  0.67538010  1
  Na  Na46  1  0.25621145  0.25333367  0.33055013  1
  Na  Na47  1  0.73132111  0.73481965  0.66854031  1
  Na  Na48  1  0.73824988  0.73496809  0.34521091  1
  Na  Na49  1  0.74972560  0.75443244  0.00013109  1
  Na  Na50  1  0.24971796  0.24810801  -0.00212674  1
  Na  Na51  1  0.25435484  0.25654801  0.66106369  1
  Na  Na52  1  0.23936218  0.73102729  0.83952312  1
  Na  Na53  1  0.24804777  0.74216186  0.50636026  1
  Na  Na54  1  0.75517711  0.75845058  0.83744787  1
  Na  Na55  1  0.25073204  0.25442692  0.82608086  1
  Na  Na56  1  0.72843088  0.72724650  0.50682229  1
  Na  Na57  1  0.74792417  0.74721274  0.17223486  1
  Na  Na58  1  0.25312097  0.25701494  0.49691653  1
  Na  Na59  1  0.74436124  0.24668053  0.84539116  1
  Na  Na60  1  0.25209114  0.25150246  0.16382822  1
  Na  Na61  1  0.24530677  0.74214112  0.17180451  1
  Fe  Fe62  1  0.96396882  0.31612911  0.79167959  1
  Fe  Fe63  1  0.47442424  0.29632393  0.12985675  1
  Fe  Fe64  1  0.96199816  0.80919328  0.78645218  1
  Fe  Fe65  1  0.46636714  0.80564417  0.45483791  1
  Fe  Fe66  1  0.46460174  0.80449810  0.78157143  1
  Fe  Fe67  1  0.96465375  0.80919167  0.11847406  1
  Fe  Fe68  1  0.46793585  0.30487879  0.79091601  1
  Fe  Fe69  1  0.47189164  0.30728591  0.45452366  1
  Fe  Fe70  1  0.96613627  0.80853720  0.45129957  1
  Fe  Fe71  1  0.46425850  0.81030426  0.12114781  1
  Fe  Fe72  1  0.68989857  0.53616981  0.04387163  1
  Fe  Fe73  1  0.18831562  0.03569303  0.71049014  1
  Fe  Fe74  1  0.18720930  0.03423294  0.04160727  1
  Fe  Fe75  1  0.19048060  0.03490744  0.37447532  1
  Fe  Fe76  1  0.69338823  0.53473869  0.71203034  1
  Fe  Fe77  1  0.68832455  0.03867730  0.37802166  1
  Fe  Fe78  1  0.19041262  0.53399448  0.04404699  1
  Fe  Fe79  1  0.19312197  0.53166022  0.37823767  1
  Fe  Fe80  1  0.69761532  0.03391303  0.72204313  1
  Fe  Fe81  1  0.69853972  0.03184412  0.05468638  1
  Fe  Fe82  1  0.03107764  0.19614243  0.88197041  1
  Fe  Fe83  1  0.03602635  0.69151929  0.87970691  1
  Fe  Fe84  1  0.54077555  0.19424448  0.89243386  1
  Fe  Fe85  1  0.53761466  0.19152500  0.54868152  1
  Fe  Fe86  1  0.53414204  0.68947778  0.21260025  1
  Fe  Fe87  1  0.53493352  0.69546186  0.88280438  1
  Fe  Fe88  1  0.02693405  0.20572490  0.20709250  1
  Fe  Fe89  1  0.03426052  0.68812717  0.54207376  1
  Fe  Fe90  1  0.03431352  0.68816307  0.20886112  1
  Fe  Fe91  1  0.02659757  0.20691091  0.54106399  1
  Fe  Fe92  1  0.31483140  0.46471234  0.29117996  1
  Fe  Fe93  1  0.30618159  0.96456989  0.95097963  1
  Fe  Fe94  1  0.80727988  0.96238004  0.28546017  1
  Fe  Fe95  1  0.30264465  0.46643813  0.62585301  1
  Fe  Fe96  1  0.30300560  0.96467083  0.61526817  1
  Fe  Fe97  1  0.31190792  0.46377485  0.95792816  1
  Fe  Fe98  1  0.80613149  0.96786378  0.61776345  1
  Fe  Fe99  1  0.80278216  0.44977537  0.59328387  1
  Fe  Fe100  1  0.30365309  0.96609897  0.28109045  1
  Fe  Fe101  1  0.81587132  0.46324578  0.95863796  1
  S  S102  1  0.35292940  0.13907164  0.07894643  1
  S  S103  1  0.36187028  0.13794099  0.41734829  1
  S  S104  1  0.35823189  0.13787061  0.74764393  1
  S  S105  1  0.35888776  0.64178109  0.08387141  1
  S  S106  1  0.35524749  0.64110365  0.41802989  1
  S  S107  1  0.36197348  0.64013400  0.74998332  1
  S  S108  1  0.85814937  0.13517360  0.09192900  1
  S  S109  1  0.86218698  0.13507551  0.41637637  1
  S  S110  1  0.85969115  0.14087598  0.74818824  1
  S  S111  1  0.85854642  0.64491563  0.08282307  1
  S  S112  1  0.86048667  0.64807777  0.41660458  1
  S  S113  1  0.86062754  0.64088748  0.75129108  1
  S  S114  1  0.15009485  0.35797934  0.25103998  1
  S  S115  1  0.14430606  0.35777275  0.58606238  1
  S  S116  1  0.14344948  0.35854554  0.91676110  1
  S  S117  1  0.14098626  0.85864607  0.24711554  1
  S  S118  1  0.13948789  0.85867519  0.58274679  1
  S  S119  1  0.14128409  0.85860771  0.91286997  1
  S  S120  1  0.64005716  0.34813066  0.23378262  1
  S  S121  1  0.63992781  0.35978727  0.58970496  1
  S  S122  1  0.63787308  0.36122369  0.91703533  1
  S  S123  1  0.63755804  0.85912552  0.25345273  1
  S  S124  1  0.64209971  0.86301798  0.58350031  1
  S  S125  1  0.63469962  0.86293156  0.91743460  1
  S  S126  1  0.06572031  0.16861491  0.04053185  1
  S  S127  1  0.07323926  0.16887982  0.36997698  1
  S  S128  1  0.06668003  0.17272648  0.70653569  1
  S  S129  1  0.07108481  0.67482219  0.04561462  1
  S  S130  1  0.07295086  0.67406521  0.37525614  1
  S  S131  1  0.06045695  0.66872633  0.70867577  1
  S  S132  1  0.56018269  0.15946772  0.03830977  1
  S  S133  1  0.56698423  0.17112827  0.38035293  1
  S  S134  1  0.56586267  0.16556201  0.71006009  1
  S  S135  1  0.56628196  0.67289209  0.04404024  1
  S  S136  1  0.56525862  0.67675304  0.38085950  1
  S  S137  1  0.56832937  0.67192622  0.71262636  1
  S  S138  1  0.33094343  0.42415712  0.12388359  1
  S  S139  1  0.33106723  0.43144167  0.46165504  1
  S  S140  1  0.33681233  0.42917647  0.79530403  1
  S  S141  1  0.32660132  0.93296617  0.12010797  1
  S  S142  1  0.32882486  0.93306261  0.45491470  1
  S  S143  1  0.32680032  0.93065037  0.78591739  1
  S  S144  1  0.84116608  0.44874711  0.11641246  1
  S  S145  1  0.84756718  0.43835935  0.47183825  1
  S  S146  1  0.82761166  0.43531660  0.79216829  1
  S  S147  1  0.82502724  0.92411991  0.12531444  1
  S  S148  1  0.83155900  0.93090193  0.45673572  1
  S  S149  1  0.83075045  0.93631101  0.79190538  1
  S  S150  1  0.43273832  0.32738585  0.29262803  1
  S  S151  1  0.43088489  0.32628926  0.62505788  1
  S  S152  1  0.42535516  0.31635123  0.95726136  1
  S  S153  1  0.42863582  0.82954978  0.29089854  1
  S  S154  1  0.43243537  0.83960283  0.62578321  1
  S  S155  1  0.42861387  0.83227043  0.95768745  1
  S  S156  1  0.94529622  0.34564939  0.28516684  1
  S  S157  1  0.93211031  0.33184202  0.63105600  1
  S  S158  1  0.93425559  0.32919287  0.95361503  1
  S  S159  1  0.93680626  0.83213166  0.29080916  1
  S  S160  1  0.93322744  0.83820383  0.62542291  1
  S  S161  1  0.93231169  0.82196606  0.95298700  1
  S  S162  1  0.17172431  0.07384900  0.20717511  1
  S  S163  1  0.16614611  0.06738382  0.53941211  1
  S  S164  1  0.16613536  0.06680371  0.87167433  1
  S  S165  1  0.17628734  0.56647037  0.21038222  1
  S  S166  1  0.17490619  0.56798564  0.54306329  1
  S  S167  1  0.17288628  0.56550306  0.87729780  1
  S  S168  1  0.66668367  0.05762580  0.21300632  1
  S  S169  1  0.66622679  0.06622633  0.54387477  1
  S  S170  1  0.66620064  0.06887305  0.87777656  1
  S  S171  1  0.66959542  0.57381693  0.20728180  1
  S  S172  1  0.68102899  0.56056900  0.54941212  1
  S  S173  1  0.66803504  0.57119330  0.87548476  1
  O  O174  1  0.36800698  0.22061574  0.07714553  1
  O  O175  1  0.37041988  0.21713661  0.41049026  1
  O  O176  1  0.36789870  0.21809424  0.74292619  1
  O  O177  1  0.36786718  0.72118752  0.07602950  1
  O  O178  1  0.36508139  0.72129218  0.41255016  1
  O  O179  1  0.37424178  0.71623838  0.73502248  1
  O  O180  1  0.85799167  0.21143561  0.08081398  1
  O  O181  1  0.86865441  0.21033383  0.40591851  1
  O  O182  1  0.86923978  0.22069992  0.74353171  1
  O  O183  1  0.86942899  0.72330414  0.07307485  1
  O  O184  1  0.87531292  0.72583946  0.40407269  1
  O  O185  1  0.86764510  0.72153397  0.74452708  1
  O  O186  1  0.26991492  0.13334061  0.07847431  1
  O  O187  1  0.28326150  0.12769131  0.42615509  1
  O  O188  1  0.27881492  0.12865645  0.75540061  1
  O  O189  1  0.27867289  0.63264482  0.08985451  1
  O  O190  1  0.27189720  0.63191534  0.41744501  1
  O  O191  1  0.28460828  0.63580989  0.75771482  1
  O  O192  1  0.78644652  0.11999614  0.11135796  1
  O  O193  1  0.78725607  0.11949657  0.42982064  1
  O  O194  1  0.78246494  0.13092586  0.75955891  1
  O  O195  1  0.77867607  0.63827484  0.08886851  1
  O  O196  1  0.78380429  0.64779542  0.42709243  1
  O  O197  1  0.78084275  0.63286220  0.75843848  1
  O  O198  1  0.13461376  0.27581677  0.25216471  1
  O  O199  1  0.13127667  0.27560706  0.58897258  1
  O  O200  1  0.13316327  0.27864111  0.92315028  1
  O  O201  1  0.13404422  0.77819163  0.25268756  1
  O  O202  1  0.13088527  0.77991361  0.59148618  1
  O  O203  1  0.13647954  0.77809711  0.91895865  1
  O  O204  1  0.62577896  0.26664616  0.22598756  1
  O  O205  1  0.62703322  0.28339507  0.60261049  1
  O  O206  1  0.62957001  0.28101688  0.92215711  1
  O  O207  1  0.62624274  0.78137158  0.26369256  1
  O  O208  1  0.63668062  0.78428538  0.58812662  1
  O  O209  1  0.62368686  0.78625998  0.93113041  1
  O  O210  1  0.23361771  0.36366824  0.25303494  1
  O  O211  1  0.22915568  0.36311841  0.58834378  1
  O  O212  1  0.22348100  0.36668535  0.91002445  1
  O  O213  1  0.21937005  0.86901605  0.23738379  1
  O  O214  1  0.21769533  0.86723827  0.57251845  1
  O  O215  1  0.21879771  0.86983723  0.90175352  1
  O  O216  1  0.70723474  0.36649751  0.21221264  1
  O  O217  1  0.72231348  0.36383237  0.58889669  1
  O  O218  1  0.71561379  0.37290919  0.90772974  1
  O  O219  1  0.71664693  0.86484026  0.24534705  1
  O  O220  1  0.71813472  0.87709255  0.57034158  1
  O  O221  1  0.70908072  0.86808400  0.90432382  1
  O  O222  1  0.40555759  0.12493225  0.14474207  1
  O  O223  1  0.42131863  0.12830059  0.48437561  1
  O  O224  1  0.41724928  0.12538421  0.81267752  1
  O  O225  1  0.41581624  0.63556861  0.15311467  1
  O  O226  1  0.40795089  0.63196361  0.48668383  1
  O  O227  1  0.42212104  0.63509174  0.81920831  1
  O  O228  1  0.92700627  0.13419150  0.16005653  1
  O  O229  1  0.92550587  0.13023733  0.48624047  1
  O  O230  1  0.92208999  0.12691871  0.81091679  1
  O  O231  1  0.91616002  0.64190192  0.15371003  1
  O  O232  1  0.92063120  0.64582232  0.48779568  1
  O  O233  1  0.91889447  0.63367693  0.82071275  1
  O  O234  1  0.36100654  0.08259823  0.00893736  1
  O  O235  1  0.36948734  0.07840551  0.34900550  1
  O  O236  1  0.36403520  0.08071743  0.67734907  1
  O  O237  1  0.36698794  0.58277261  0.01653114  1
  O  O238  1  0.36571988  0.58340766  0.35028590  1
  O  O239  1  0.37185441  0.57716108  0.68505253  1
  O  O240  1  0.86439077  0.07370487  0.02628396  1
  O  O241  1  0.87428909  0.07146547  0.35243453  1
  O  O242  1  0.86265071  0.08384928  0.67610927  1
  O  O243  1  0.86784340  0.58519514  0.01677232  1
  O  O244  1  0.86741025  0.58623670  0.35241323  1
  O  O245  1  0.87272397  0.58309352  0.68621196  1
  O  O246  1  0.09918731  0.37216840  0.18456979  1
  O  O247  1  0.09431655  0.36665476  0.51636353  1
  O  O248  1  0.08612282  0.36739900  0.84919450  1
  O  O249  1  0.08124045  0.86869804  0.18130067  1
  O  O250  1  0.08028188  0.86730131  0.51542812  1
  O  O251  1  0.08023515  0.86730207  0.84709907  1
  O  O252  1  0.56764091  0.37144419  0.17668533  1
  O  O253  1  0.58654788  0.36449492  0.51832630  1
  O  O254  1  0.57848653  0.36580061  0.84657712  1
  O  O255  1  0.57933447  0.86446667  0.18387427  1
  O  O256  1  0.57928809  0.87578992  0.51921053  1
  O  O257  1  0.57072957  0.87053301  0.85077958  1
  O  O258  1  0.14137040  0.41365450  0.32056049  1
  O  O259  1  0.13292175  0.41448585  0.65166626  1
  O  O260  1  0.13792423  0.41663026  0.98593146  1
  O  O261  1  0.13666279  0.91567059  0.31753219  1
  O  O262  1  0.13359322  0.91807940  0.65121023  1
  O  O263  1  0.13606951  0.91499285  0.98312695  1
  O  O264  1  0.64203397  0.40012565  0.30824488  1
  O  O265  1  0.62893596  0.42186166  0.65427429  1
  O  O266  1  0.62631994  0.41941453  0.98280077  1
  O  O267  1  0.63014139  0.92001472  0.32047491  1
  O  O268  1  0.63581250  0.92119627  0.65393956  1
  O  O269  1  0.62623132  0.92449866  0.98415025  1
  O  O270  1  0.03273367  0.19246315  0.10311642  1
  O  O271  1  0.03803328  0.18821370  0.43012469  1
  O  O272  1  0.03281447  0.20082472  0.76874526  1
  O  O273  1  0.03186040  0.70457192  0.10485687  1
  O  O274  1  0.03675676  0.70263284  0.43645054  1
  O  O275  1  0.02612095  0.70619624  0.77085340  1
  O  O276  1  0.51878818  0.19213160  0.09393807  1
  O  O277  1  0.53370082  0.20363781  0.44648428  1
  O  O278  1  0.52711485  0.19501052  0.76888290  1
  O  O279  1  0.52857648  0.70283596  0.10449384  1
  O  O280  1  0.52243836  0.70888386  0.43475643  1
  O  O281  1  0.53516891  0.70579819  0.77724979  1
  O  O282  1  0.30666860  0.46522395  0.06568267  1
  O  O283  1  0.30288455  0.47062162  0.40227298  1
  O  O284  1  0.31510398  0.46882405  0.73843756  1
  O  O285  1  0.29590676  0.97105621  0.05993263  1
  O  O286  1  0.29866758  0.96777797  0.39295367  1
  O  O287  1  0.29728384  0.96881607  0.72615975  1
  O  O288  1  0.78749392  0.47763064  0.05300569  1
  O  O289  1  0.80714774  0.45390815  0.40319910  1
  O  O290  1  0.79745811  0.47325305  0.73337626  1
  O  O291  1  0.78724949  0.95181926  0.06215922  1
  O  O292  1  0.79848534  0.96173213  0.39338014  1
  O  O293  1  0.79979093  0.96860604  0.72645171  1
  O  O294  1  0.46543122  0.30086752  0.22962185  1
  O  O295  1  0.46593199  0.29965949  0.56302182  1
  O  O296  1  0.46540276  0.28911561  0.89854238  1
  O  O297  1  0.46341752  0.80013261  0.22905697  1
  O  O298  1  0.46591396  0.81733625  0.56457886  1
  O  O299  1  0.46124717  0.79994844  0.89476933  1
  O  O300  1  0.98043338  0.30159188  0.22345980  1
  O  O301  1  0.96882194  0.30805584  0.57205610  1
  O  O302  1  0.97142139  0.29641423  0.89020508  1
  O  O303  1  0.97414704  0.80305248  0.23056584  1
  O  O304  1  0.96945423  0.80956635  0.56492603  1
  O  O305  1  0.97499209  0.79201757  0.89552080  1
  O  O306  1  0.19968564  0.03438591  0.26695975  1
  O  O307  1  0.19638907  0.02815045  0.59871327  1
  O  O308  1  0.19509228  0.02853424  0.93094632  1
  O  O309  1  0.20520358  0.52582163  0.26836776  1
  O  O310  1  0.20320258  0.52935047  0.60059698  1
  O  O311  1  0.20206640  0.53092270  0.94097823  1
  O  O312  1  0.70943401  0.02385941  0.27555605  1
  O  O313  1  0.69666132  0.03311651  0.60698676  1
  O  O314  1  0.68857534  0.04067009  0.94244789  1
  O  O315  1  0.69515434  0.54199370  0.26894009  1
  O  O316  1  0.72152296  0.52193250  0.61089100  1
  O  O317  1  0.69709843  0.53733327  0.93743428  1
  O  O318  1  0.08391413  0.08570319  0.02891376  1
  O  O319  1  0.08476873  0.08228665  0.35219197  1
  O  O320  1  0.08250687  0.08873608  0.69810670  1
  O  O321  1  0.09602279  0.59820934  0.04784961  1
  O  O322  1  0.09430522  0.59456991  0.36970913  1
  O  O323  1  0.06491020  0.58611902  0.70180024  1
  O  O324  1  0.57863630  0.07970445  0.04281511  1
  O  O325  1  0.58943154  0.09166519  0.38499286  1
  O  O326  1  0.58174494  0.08259779  0.70487430  1
  O  O327  1  0.58620450  0.59310141  0.03979626  1
  O  O328  1  0.58842336  0.60159238  0.38699221  1
  O  O329  1  0.59074398  0.59334775  0.71538490  1
  O  O330  1  0.40779144  0.39521731  0.12510596  1
  O  O331  1  0.41242870  0.41315288  0.46576668  1
  O  O332  1  0.41851991  0.40872768  0.80433548  1
  O  O333  1  0.40668298  0.91415578  0.12238725  1
  O  O334  1  0.41089043  0.91638398  0.46160548  1
  O  O335  1  0.40982906  0.91627905  0.79327135  1
  O  O336  1  0.91948423  0.45828388  0.11036055  1
  O  O337  1  0.92546156  0.41622620  0.47855409  1
  O  O338  1  0.90963234  0.42004873  0.79621671  1
  O  O339  1  0.90689602  0.90828821  0.12657156  1
  O  O340  1  0.91482254  0.91675651  0.46261931  1
  O  O341  1  0.91074993  0.91345317  0.79146973  1
  O  O342  1  0.41363436  0.40899835  0.30210287  1
  O  O343  1  0.40995248  0.40708647  0.63387165  1
  O  O344  1  0.41158578  0.39885435  0.96730126  1
  O  O345  1  0.40773229  0.91030698  0.29485083  1
  O  O346  1  0.41342963  0.92354376  0.63656878  1
  O  O347  1  0.41458765  0.91551535  0.96254307  1
  O  O348  1  0.95002183  0.42796921  0.28779111  1
  O  O349  1  0.90727195  0.41328302  0.63878214  1
  O  O350  1  0.91279376  0.40671476  0.94887785  1
  O  O351  1  0.91894610  0.91405569  0.29711852  1
  O  O352  1  0.91814679  0.92210376  0.63270623  1
  O  O353  1  0.90563801  0.89584606  0.94819249  1
  O  O354  1  0.09424277  0.10014069  0.20602056  1
  O  O355  1  0.08507881  0.08484592  0.53566926  1
  O  O356  1  0.08643417  0.08907517  0.86872475  1
  O  O357  1  0.09706216  0.58786021  0.20925350  1
  O  O358  1  0.09551912  0.59051877  0.54310464  1
  O  O359  1  0.09391720  0.59164101  0.87616701  1
  O  O360  1  0.58670145  0.06086018  0.21444896  1
  O  O361  1  0.58137921  0.07689271  0.53485298  1
  O  O362  1  0.58107126  0.08442449  0.86258427  1
  O  O363  1  0.58456146  0.58772020  0.19486155  1
  O  O364  1  0.60984346  0.58572948  0.56536978  1
  O  O365  1  0.58563789  0.58861128  0.86802492  1
  O  O366  1  0.13561167  0.22182659  0.05553177  1
  O  O367  1  0.14779650  0.21735302  0.38998279  1
  O  O368  1  0.13961487  0.22219679  0.72250120  1
  O  O369  1  0.13935916  0.73203550  0.06200891  1
  O  O370  1  0.14248020  0.73003640  0.39256763  1
  O  O371  1  0.13751149  0.71444420  0.72817434  1
  O  O372  1  0.62844938  0.20903250  0.04670922  1
  O  O373  1  0.63553751  0.22226499  0.39257594  1
  O  O374  1  0.63825655  0.21595355  0.72782331  1
  O  O375  1  0.63638735  0.72723716  0.06092923  1
  O  O376  1  0.63429715  0.73341149  0.39708453  1
  O  O377  1  0.63903299  0.72594704  0.72851773  1
  O  O378  1  0.27061422  0.35855854  0.10622880  1
  O  O379  1  0.27817371  0.35966387  0.44259333  1
  O  O380  1  0.28184074  0.35802996  0.77524408  1
  O  O381  1  0.27338939  0.86260821  0.10419236  1
  O  O382  1  0.27730709  0.86217994  0.44054489  1
  O  O383  1  0.27652246  0.85798627  0.76791665  1
  O  O384  1  0.81107738  0.36817596  0.09995911  1
  O  O385  1  0.79585845  0.37945407  0.48618630  1
  O  O386  1  0.77786610  0.36151053  0.77436555  1
  O  O387  1  0.77869774  0.85263247  0.11983659  1
  O  O388  1  0.78310179  0.86024028  0.44700114  1
  O  O389  1  0.77794810  0.86617684  0.77754395  1
  O  O390  1  0.36232885  0.27315338  0.27589180  1
  O  O391  1  0.36113058  0.27050888  0.60724721  1
  O  O392  1  0.35197487  0.26458636  0.93441366  1
  O  O393  1  0.35911514  0.77610518  0.27709015  1
  O  O394  1  0.36185911  0.78753479  0.61119919  1
  O  O395  1  0.35610107  0.78400175  0.94472737  1
  O  O396  1  0.86260696  0.31194579  0.25966097  1
  O  O397  1  0.86509095  0.27663759  0.61779802  1
  O  O398  1  0.86373374  0.27530284  0.93462096  1
  O  O399  1  0.86588407  0.78029297  0.27435459  1
  O  O400  1  0.86099879  0.78880022  0.61026250  1
  O  O401  1  0.86611937  0.76304245  0.93712005  1
  O  O402  1  0.23021358  0.13995510  0.22295117  1
  O  O403  1  0.21993198  0.13750460  0.55676700  1
  O  O404  1  0.22081205  0.13554383  0.88651513  1
  O  O405  1  0.23121289  0.63694744  0.22913132  1
  O  O406  1  0.22880302  0.63911270  0.55949924  1
  O  O407  1  0.22914583  0.63530337  0.89542529  1
  O  O408  1  0.70935087  0.13157712  0.22544014  1
  O  O409  1  0.71235055  0.14052889  0.56015240  1
  O  O410  1  0.71554707  0.13925867  0.88814955  1
  O  O411  1  0.71830147  0.64784707  0.22242013  1
  O  O412  1  0.73540998  0.63070667  0.56437764  1
  O  O413  1  0.71913584  0.64308997  0.89065547  1
  O  O414  1  0.48046503  0.31104004  0.02863392  1
  O  O415  1  0.49311775  0.32713406  0.36314131  1
  O  O416  1  0.49076431  0.32638324  0.69635221  1
  O  O417  1  0.48861574  0.83358701  0.02933214  1
  O  O418  1  0.48911670  0.83515718  0.36358659  1
  O  O419  1  0.49291563  0.84083373  0.69756635  1
  O  O420  1  0.99300472  0.33303708  0.02353475  1
  O  O421  1  0.99087323  0.33454846  0.35528584  1
  O  O422  1  0.99320569  0.34028315  0.70550883  1
  O  O423  1  0.99109740  0.83016585  0.02795751  1
  O  O424  1  0.99613719  0.83490965  0.36361733  1
  O  O425  1  0.99216882  0.84015120  0.69830468  1
  O  O426  1  0.16522577  0.01287642  0.13431160  1
  O  O427  1  0.16269281  0.00964891  0.46525668  1
  O  O428  1  0.15982926  0.00716964  0.79774178  1
  O  O429  1  0.17310131  0.50979192  0.13667892  1
  O  O430  1  0.16809287  0.51154854  0.46784083  1
  O  O431  1  0.16622701  0.50617872  0.80677941  1
  O  O432  1  0.66769105  -0.00045199  0.13991050  1
  O  O433  1  0.66947477  0.00770015  0.47330323  1
  O  O434  1  0.66718773  0.00560250  0.80766598  1
  O  O435  1  0.67030599  0.51559485  0.13506775  1
  O  O436  1  0.66909815  0.50124379  0.47737095  1
  O  O437  1  0.66679810  0.51077915  0.80403485  1
  O  O438  1  0.01708789  0.17585291  0.29926097  1
  O  O439  1  0.00772699  0.17159510  0.63462876  1
  O  O440  1  0.00349691  0.16769775  0.96992875  1
  O  O441  1  0.01342535  0.67270140  0.30327038  1
  O  O442  1  0.00732010  0.67751503  0.63777901  1
  O  O443  1  0.01276958  0.66800420  0.97202948  1
  O  O444  1  0.50316584  0.16051745  0.31166858  1
  O  O445  1  0.50882548  0.16270121  0.63594927  1
  O  O446  1  0.50084997  0.14553013  0.96076557  1
  O  O447  1  0.51092042  0.66722834  0.30260586  1
  O  O448  1  0.50797147  0.66639380  0.64256860  1
  O  O449  1  0.50708258  0.67131537  0.97174028  1
  O  O450  1  0.33782360  0.48396084  0.19740943  1
  O  O451  1  0.33252686  0.48847707  0.53451711  1
  O  O452  1  0.33595519  0.48525527  0.86872036  1
  O  O453  1  0.32947653  0.99169914  0.19306440  1
  O  O454  1  0.32954423  0.99309284  0.52671600  1
  O  O455  1  0.32618882  0.98849937  0.85817740  1
  O  O456  1  0.83624650  0.50087732  0.18812944  1
  O  O457  1  0.85293324  0.50900098  0.54212595  1
  O  O458  1  0.82765959  0.49123033  0.86546725  1
  O  O459  1  0.83464309  0.98682678  0.19831590  1
  O  O460  1  0.83613323  0.99385671  0.52885466  1
  O  O461  1  0.83880423  0.99932598  0.86118087  1
