# generated using pymatgen
data_Na31Fe20(SO4)36
_symmetry_space_group_name_H-M   'P 1'
_cell_length_a   18.07545553
_cell_length_b   18.07510319
_cell_length_c   19.70924221
_cell_angle_alpha   107.56622422
_cell_angle_beta   107.57476809
_cell_angle_gamma   90.72095872
_symmetry_Int_Tables_number   1
_chemical_formula_structural   Na31Fe20(SO4)36
_chemical_formula_sum   'Na62 Fe40 S72 O288'
_cell_volume   5814.26830289
_cell_formula_units_Z   2
loop_
 _symmetry_equiv_pos_site_id
 _symmetry_equiv_pos_as_xyz
  1  'x, y, z'
loop_
 _atom_site_type_symbol
 _atom_site_label
 _atom_site_symmetry_multiplicity
 _atom_site_fract_x
 _atom_site_fract_y
 _atom_site_fract_z
 _atom_site_occupancy
  Na  Na0  1  0.13418311  0.36622570  0.07861297  1
  Na  Na1  1  0.15186177  0.37067680  0.43716771  1
  Na  Na2  1  0.14541271  0.35598038  0.75646884  1
  Na  Na3  1  0.14232800  0.86615360  0.09204475  1
  Na  Na4  1  0.11938775  0.86757483  0.40334489  1
  Na  Na5  1  0.12507988  0.88496559  0.74864560  1
  Na  Na6  1  0.63579806  0.36429087  0.08730267  1
  Na  Na7  1  0.63377553  0.36036662  0.41691026  1
  Na  Na8  1  0.62270464  0.36576506  0.74644781  1
  Na  Na9  1  0.63791452  0.87006482  0.08257716  1
  Na  Na10  1  0.63661483  0.86213230  0.41362802  1
  Na  Na11  1  0.62915706  0.86300843  0.74111180  1
  Na  Na12  1  0.37284102  0.14177576  0.26298797  1
  Na  Na13  1  0.36932080  0.14998859  0.59612445  1
  Na  Na14  1  0.34557552  0.13340842  0.88988264  1
  Na  Na15  1  0.35997617  0.63522485  0.24767953  1
  Na  Na16  1  0.36349542  0.62954991  0.58298629  1
  Na  Na17  1  0.36386814  0.62375600  0.91740739  1
  Na  Na18  1  0.87296291  0.12427121  0.24906850  1
  Na  Na19  1  0.97911269  0.06231684  0.56641796  1
  Na  Na20  1  0.86903803  0.13636172  0.92033764  1
  Na  Na21  1  0.86464747  0.64165334  0.25466888  1
  Na  Na22  1  0.85665644  0.63724226  0.58082108  1
  Na  Na23  1  0.86269178  0.63485056  0.91456694  1
  Na  Na24  1  1.01500337  0.49477698  0.75039620  1
  Na  Na25  1  0.50124592  0.01097373  0.07531553  1
  Na  Na26  1  0.45541539  0.50339164  0.07424082  1
  Na  Na27  1  0.48222080  0.00933651  0.42911767  1
  Na  Na28  1  0.99666461  0.56083600  0.09843077  1
  Na  Na29  1  0.42820316  0.48959866  0.71885605  1
  Na  Na30  1  0.49555688  0.50015544  0.40263848  1
  Na  Na31  1  0.98982238  0.50640801  0.41501844  1
  Na  Na32  1  0.98276899  -0.00312288  0.10618115  1
  Na  Na33  1  0.01548865  0.48637557  0.58263311  1
  Na  Na34  1  0.53793697  0.99672940  0.90869702  1
  Na  Na35  1  0.51187781  0.99046266  0.24862330  1
  Na  Na36  1  0.00893395  0.99595707  0.90754744  1
  Na  Na37  1  0.01140290  0.49871643  0.24674988  1
  Na  Na38  1  0.50181167  0.44871562  0.89670159  1
  Na  Na39  1  0.49899637  0.44767783  0.55922775  1
  Na  Na40  1  0.01245194  0.48302810  0.92053427  1
  Na  Na41  1  0.48096919  1.00639212  0.62309465  1
  Na  Na42  1  0.75394580  0.24649861  0.66862035  1
  Na  Na43  1  0.24967856  0.75397672  0.32034409  1
  Na  Na44  1  0.74596665  0.23670783  0.34042814  1
  Na  Na45  1  0.24115923  0.22957110  0.69139076  1
  Na  Na46  1  0.74882586  0.75092686  -0.00328716  1
  Na  Na47  1  0.24663696  0.75290593  0.66731968  1
  Na  Na48  1  0.26041390  0.27223418  -0.02526366  1
  Na  Na49  1  0.74456895  0.23774101  0.00913232  1
  Na  Na50  1  0.25917185  0.25528169  0.34063806  1
  Na  Na51  1  0.24223890  0.74286547  0.01375096  1
  Na  Na52  1  0.24667977  0.75196450  0.83699859  1
  Na  Na53  1  0.75353521  0.75559855  0.49583453  1
  Na  Na54  1  0.75469519  0.76044876  0.82065825  1
  Na  Na55  1  0.26090086  0.25817534  0.16165753  1
  Na  Na56  1  0.75338354  0.24861209  0.83643008  1
  Na  Na57  1  0.75946689  0.24124257  0.51104322  1
  Na  Na58  1  0.24000068  0.74871306  0.49386162  1
  Na  Na59  1  0.74182819  0.23228992  0.17333277  1
  Na  Na60  1  0.24222522  0.24868284  0.51920388  1
  Na  Na61  1  0.74079638  0.74272282  0.17470563  1
  Fe  Fe62  1  0.96976445  0.80091010  0.12676995  1
  Fe  Fe63  1  0.96824447  0.30117404  0.77534474  1
  Fe  Fe64  1  0.46419290  0.80553771  0.78656928  1
  Fe  Fe65  1  0.96681943  0.30751958  0.11925140  1
  Fe  Fe66  1  0.96456797  0.80849727  0.45214760  1
  Fe  Fe67  1  0.96079727  0.80763358  0.78292219  1
  Fe  Fe68  1  0.46432452  0.80800294  0.11801454  1
  Fe  Fe69  1  0.46526985  0.30944489  0.11903530  1
  Fe  Fe70  1  0.46580668  0.80828099  0.45377907  1
  Fe  Fe71  1  0.97026267  0.29721773  0.45647575  1
  Fe  Fe72  1  0.19245169  0.53653987  0.38273527  1
  Fe  Fe73  1  0.69610930  0.03513731  0.71114354  1
  Fe  Fe74  1  0.68995563  0.53470350  0.71260976  1
  Fe  Fe75  1  0.19389831  0.03735082  0.04931351  1
  Fe  Fe76  1  0.19079665  0.03702514  0.38236771  1
  Fe  Fe77  1  0.68876095  0.53536259  0.37877193  1
  Fe  Fe78  1  0.68919433  0.53303820  0.04678945  1
  Fe  Fe79  1  0.20341663  0.52877509  0.71299298  1
  Fe  Fe80  1  0.20003022  0.53518462  0.04643196  1
  Fe  Fe81  1  0.69757326  0.03384184  0.38215340  1
  Fe  Fe82  1  0.03745703  0.19132263  0.88217484  1
  Fe  Fe83  1  0.53626057  0.69285001  0.54962887  1
  Fe  Fe84  1  0.53323236  0.19954802  0.54651710  1
  Fe  Fe85  1  0.53493458  0.19402934  0.21340775  1
  Fe  Fe86  1  0.03333868  0.69488241  0.54664024  1
  Fe  Fe87  1  0.53507761  0.69274979  0.21670460  1
  Fe  Fe88  1  0.53491011  0.19703238  0.87415522  1
  Fe  Fe89  1  0.03101758  0.69520090  0.87889477  1
  Fe  Fe90  1  0.03763175  0.19466465  0.21637601  1
  Fe  Fe91  1  0.53264351  0.68812215  0.87834689  1
  Fe  Fe92  1  0.30429709  0.96906450  0.94899702  1
  Fe  Fe93  1  0.79968452  0.96938079  0.95624063  1
  Fe  Fe94  1  0.30926714  0.46422616  0.28607871  1
  Fe  Fe95  1  0.80852940  0.46522481  0.95321911  1
  Fe  Fe96  1  0.81002267  0.96757923  0.61899056  1
  Fe  Fe97  1  0.30555798  0.96405931  0.28329649  1
  Fe  Fe98  1  0.80476230  0.46450827  0.28426092  1
  Fe  Fe99  1  0.80803124  0.46897179  0.61888714  1
  Fe  Fe100  1  0.81000618  0.96245100  0.28781705  1
  Fe  Fe101  1  0.29849384  0.96811934  0.62662200  1
  S  S102  1  0.36097764  0.14126661  0.08245977  1
  S  S103  1  0.36117641  0.13469782  0.41801268  1
  S  S104  1  0.36980735  0.13139660  0.74574075  1
  S  S105  1  0.36098192  0.64582972  0.08734547  1
  S  S106  1  0.36136107  0.64280674  0.41585192  1
  S  S107  1  0.35545418  0.64609524  0.75269162  1
  S  S108  1  0.86369395  0.13982733  0.08451676  1
  S  S109  1  0.86141392  0.13629235  0.41597417  1
  S  S110  1  0.86261728  0.13886135  0.75171739  1
  S  S111  1  0.85224086  0.64058434  0.08078291  1
  S  S112  1  0.85896674  0.63846390  0.41768450  1
  S  S113  1  0.85607734  0.64157386  0.74953022  1
  S  S114  1  0.14002151  0.36026674  0.25067108  1
  S  S115  1  0.13648287  0.36352107  0.58702928  1
  S  S116  1  0.13589361  0.36488117  0.91888941  1
  S  S117  1  0.14052552  0.86383534  0.24876256  1
  S  S118  1  0.13922455  0.85744958  0.58008958  1
  S  S119  1  0.13695999  0.86265756  0.91763060  1
  S  S120  1  0.64244098  0.35850531  0.25066650  1
  S  S121  1  0.64689881  0.36034608  0.58132222  1
  S  S122  1  0.64787233  0.35756699  0.91989448  1
  S  S123  1  0.63766690  0.86004232  0.24844818  1
  S  S124  1  0.63921367  0.86076177  0.58370031  1
  S  S125  1  0.63720706  0.85603161  0.91318456  1
  S  S126  1  0.06919899  0.17052050  0.04548003  1
  S  S127  1  0.07420770  0.17562190  0.37675780  1
  S  S128  1  0.06228841  0.17330266  0.71559032  1
  S  S129  1  0.06534510  0.66996326  0.03753218  1
  S  S130  1  0.06037180  0.66164364  0.37224979  1
  S  S131  1  0.06414454  0.67149545  0.70838167  1
  S  S132  1  0.56509553  0.16933890  0.03923289  1
  S  S133  1  0.57154257  0.16552318  0.37581960  1
  S  S134  1  0.57660066  0.17352733  0.71035406  1
  S  S135  1  0.56606537  0.67088865  0.04251620  1
  S  S136  1  0.56617636  0.67023769  0.37832836  1
  S  S137  1  0.56385828  0.66740314  0.70887478  1
  S  S138  1  0.32896371  0.43370304  0.12425282  1
  S  S139  1  0.33279698  0.44308232  0.45166816  1
  S  S140  1  0.32828065  0.43551639  0.79366000  1
  S  S141  1  0.33394947  0.93748973  0.12369505  1
  S  S142  1  0.32901868  0.92757250  0.46062850  1
  S  S143  1  0.33244328  0.92895878  0.79283189  1
  S  S144  1  0.83153203  0.43314703  0.12479881  1
  S  S145  1  0.83076547  0.43327246  0.45523128  1
  S  S146  1  0.83336058  0.43367342  0.79165933  1
  S  S147  1  0.83053516  0.92726259  0.12297846  1
  S  S148  1  0.82671621  0.92919240  0.45746214  1
  S  S149  1  0.82613858  0.93253311  0.79295411  1
  S  S150  1  0.43695569  0.32987728  0.28908573  1
  S  S151  1  0.43702963  0.32967600  0.61671121  1
  S  S152  1  0.44245997  0.32740439  0.95928537  1
  S  S153  1  0.43356478  0.83440439  0.29306251  1
  S  S154  1  0.42383085  0.82478712  0.62105250  1
  S  S155  1  0.43236231  0.83216039  0.95813696  1
  S  S156  1  0.93300599  0.33035130  0.29236169  1
  S  S157  1  0.93124927  0.34311225  0.62829312  1
  S  S158  1  0.93382401  0.33388987  0.96025107  1
  S  S159  1  0.92689320  0.82648301  0.28820073  1
  S  S160  1  0.93084935  0.82829384  0.62129627  1
  S  S161  1  0.93008905  0.82989245  0.95856901  1
  S  S162  1  0.17426109  0.07225589  0.21014536  1
  S  S163  1  0.17324454  0.06603169  0.54535431  1
  S  S164  1  0.16914084  0.06925289  0.88266962  1
  S  S165  1  0.17136714  0.56189211  0.20975525  1
  S  S166  1  0.16435853  0.56990764  0.54368713  1
  S  S167  1  0.16921694  0.57501264  0.87551999  1
  S  S168  1  0.66558657  0.06258385  0.20634455  1
  S  S169  1  0.66903481  0.06892046  0.54110173  1
  S  S170  1  0.67442483  0.07201288  0.87430238  1
  S  S171  1  0.66736195  0.56696331  0.20746066  1
  S  S172  1  0.66596337  0.56693657  0.53902450  1
  S  S173  1  0.66851190  0.56416771  0.87577932  1
  O  O174  1  0.36754732  0.22111970  0.07623653  1
  O  O175  1  0.36991548  0.20758572  0.40275721  1
  O  O176  1  0.37742318  0.20170556  0.72576157  1
  O  O177  1  0.36950536  0.72688588  0.08190413  1
  O  O178  1  0.37038212  0.72029422  0.40401077  1
  O  O179  1  0.36295562  0.72788566  0.74983388  1
  O  O180  1  0.87706368  0.21833878  0.07472647  1
  O  O181  1  0.87220040  0.21556887  0.40634975  1
  O  O182  1  0.87092678  0.21846963  0.74451398  1
  O  O183  1  0.86481332  0.71886095  0.07276400  1
  O  O184  1  0.86921389  0.71776992  0.41306519  1
  O  O185  1  0.86475162  0.72238045  0.74681675  1
  O  O186  1  0.28427449  0.13145266  0.09469951  1
  O  O187  1  0.28301108  0.12514079  0.42802230  1
  O  O188  1  0.29684605  0.11960655  0.75979858  1
  O  O189  1  0.28101295  0.63550034  0.09223422  1
  O  O190  1  0.28135425  0.63477511  0.42180124  1
  O  O191  1  0.27524581  0.63494783  0.75904331  1
  O  O192  1  0.78749615  0.13481870  0.09460612  1
  O  O193  1  0.77831341  0.13196938  0.41885099  1
  O  O194  1  0.78203358  0.13120162  0.75864359  1
  O  O195  1  0.76940720  0.63206828  0.08100243  1
  O  O196  1  0.78024194  0.62791764  0.42628097  1
  O  O197  1  0.77810265  0.63008453  0.75948095  1
  O  O198  1  0.13166073  0.28162815  0.25909235  1
  O  O199  1  0.12903278  0.29005231  0.60162438  1
  O  O200  1  0.12236865  0.29095233  0.93594556  1
  O  O201  1  0.13379706  0.78879110  0.26061036  1
  O  O202  1  0.13332504  0.77514791  0.58387139  1
  O  O203  1  0.12824669  0.78237868  0.92275680  1
  O  O204  1  0.63438827  0.27836853  0.25780897  1
  O  O205  1  0.64059700  0.28046012  0.58791808  1
  O  O206  1  0.63719500  0.27649098  0.92562947  1
  O  O207  1  0.62799156  0.78060071  0.25432192  1
  O  O208  1  0.62767181  0.78403867  0.59484378  1
  O  O209  1  0.62838556  0.77456625  0.91724665  1
  O  O210  1  0.21801012  0.36751933  0.24055001  1
  O  O211  1  0.20801008  0.37536100  0.56935926  1
  O  O212  1  0.21249516  0.36941563  0.91044314  1
  O  O213  1  0.21836006  0.87646446  0.23721275  1
  O  O214  1  0.22150206  0.86802891  0.57512384  1
  O  O215  1  0.21525878  0.87246163  0.90862493  1
  O  O216  1  0.72070352  0.36639425  0.23977571  1
  O  O217  1  0.72676240  0.37185083  0.57416823  1
  O  O218  1  0.72945761  0.36572248  0.91697906  1
  O  O219  1  0.71485880  0.86961734  0.23797510  1
  O  O220  1  0.71903616  0.87020683  0.57818510  1
  O  O221  1  0.71821647  0.86699951  0.90967123  1
  O  O222  1  0.42264135  0.13098297  0.14859238  1
  O  O223  1  0.42125187  0.12702332  0.48654156  1
  O  O224  1  0.43582824  0.12944888  0.81489074  1
  O  O225  1  0.41851124  0.63997548  0.15827935  1
  O  O226  1  0.41870631  0.63895857  0.48657155  1
  O  O227  1  0.41325371  0.63805425  0.82187856  1
  O  O228  1  0.92565388  0.12940459  0.15055204  1
  O  O229  1  0.91632921  0.12765992  0.48228457  1
  O  O230  1  0.91900355  0.13270655  0.82207405  1
  O  O231  1  0.90613854  0.63028205  0.14839371  1
  O  O232  1  0.91870067  0.62646385  0.48396149  1
  O  O233  1  0.91671730  0.62950909  0.81455788  1
  O  O234  1  0.36786311  0.08327509  0.01329274  1
  O  O235  1  0.37037743  0.06900416  0.35249984  1
  O  O236  1  0.37956302  0.06227986  0.68118226  1
  O  O237  1  0.37420218  0.58895405  0.02292845  1
  O  O238  1  0.37349809  0.58186618  0.35114209  1
  O  O239  1  0.36518906  0.59111183  0.68556612  1
  O  O240  1  0.86981605  0.08007634  0.01551071  1
  O  O241  1  0.86443088  0.07793800  0.34483245  1
  O  O242  1  0.86948590  0.07914677  0.68504005  1
  O  O243  1  0.86312135  0.58141174  0.01271607  1
  O  O244  1  0.86576880  0.57950216  0.34846175  1
  O  O245  1  0.86141796  0.58593636  0.67853761  1
  O  O246  1  0.07985049  0.36854428  0.18259492  1
  O  O247  1  0.06935181  0.37267070  0.52177076  1
  O  O248  1  0.07428595  0.37286602  0.85074457  1
  O  O249  1  0.08027061  0.86927659  0.17954192  1
  O  O250  1  0.08387726  0.86054929  0.50798802  1
  O  O251  1  0.07586130  0.87293321  0.85142510  1
  O  O252  1  0.58276206  0.36720371  0.18440906  1
  O  O253  1  0.58834645  0.37034535  0.51609909  1
  O  O254  1  0.59213956  0.36861037  0.85403504  1
  O  O255  1  0.57658273  0.87050333  0.18183161  1
  O  O256  1  0.58176433  0.86548102  0.51291648  1
  O  O257  1  0.58136903  0.86232239  0.84151132  1
  O  O258  1  0.13048368  0.41952924  0.31770021  1
  O  O259  1  0.12898386  0.42937552  0.65451881  1
  O  O260  1  0.12627959  0.42958273  0.98451283  1
  O  O261  1  0.13357507  0.92676907  0.31521556  1
  O  O262  1  0.12937093  0.91302959  0.64564663  1
  O  O263  1  0.13005322  0.91974757  0.98735052  1
  O  O264  1  0.63821322  0.41624252  0.32062113  1
  O  O265  1  0.64076930  0.41767995  0.65208795  1
  O  O266  1  0.63986541  0.41392549  0.98992248  1
  O  O267  1  0.63007153  0.91860044  0.31704549  1
  O  O268  1  0.62823342  0.92291394  0.64867747  1
  O  O269  1  0.62337829  0.91317685  0.97713089  1
  O  O270  1  0.03477091  0.20218616  0.10769107  1
  O  O271  1  0.03946599  0.20483428  0.43709626  1
  O  O272  1  0.03456246  0.20969088  0.78620863  1
  O  O273  1  0.02789334  0.69578104  0.09682703  1
  O  O274  1  0.02847001  0.69541856  0.43664289  1
  O  O275  1  0.02705126  0.70364012  0.76912337  1
  O  O276  1  0.52807832  0.20390183  0.09952331  1
  O  O277  1  0.53720976  0.18439257  0.43644463  1
  O  O278  1  0.54841727  0.19909940  0.77602622  1
  O  O279  1  0.52943538  0.70055585  0.10361887  1
  O  O280  1  0.53023569  0.70127009  0.43999820  1
  O  O281  1  0.52309668  0.69446233  0.76744811  1
  O  O282  1  0.30073209  0.47200083  0.06606896  1
  O  O283  1  0.28931573  0.47448028  0.38675285  1
  O  O284  1  0.29708143  0.47513871  0.73223119  1
  O  O285  1  0.30298037  0.97262734  0.06199831  1
  O  O286  1  0.30085058  0.96341514  0.39987077  1
  O  O287  1  0.30659170  0.95538559  0.72611385  1
  O  O288  1  0.80266222  0.47144997  0.06534365  1
  O  O289  1  0.79878264  0.46794190  0.39291813  1
  O  O290  1  0.80311097  0.47052843  0.73118023  1
  O  O291  1  0.81191693  0.96499468  0.06370647  1
  O  O292  1  0.79491385  0.96396079  0.39462765  1
  O  O293  1  0.79931156  0.96891576  0.73160171  1
  O  O294  1  0.46838525  0.29582847  0.22335920  1
  O  O295  1  0.47684532  0.29525339  0.55845010  1
  O  O296  1  0.48156681  0.29370669  0.90058692  1
  O  O297  1  0.47021726  0.80371280  0.23259310  1
  O  O298  1  0.46392744  0.80108604  0.56238375  1
  O  O299  1  0.46932089  0.80166672  0.89782778  1
  O  O300  1  0.96925320  0.30090322  0.23095280  1
  O  O301  1  0.95148523  0.30637721  0.56046241  1
  O  O302  1  0.96422093  0.30305901  0.89636905  1
  O  O303  1  0.96469032  0.80259910  0.22962225  1
  O  O304  1  0.97202819  0.80020624  0.56306382  1
  O  O305  1  0.96667094  0.80038572  0.89702868  1
  O  O306  1  0.20500393  0.03845050  0.27229659  1
  O  O307  1  0.21080406  0.02675906  0.60357725  1
  O  O308  1  0.20257810  0.03329283  0.94630799  1
  O  O309  1  0.20638665  0.52590321  0.27103267  1
  O  O310  1  0.18930539  0.54271658  0.60943789  1
  O  O311  1  0.19231139  0.54071828  0.93612403  1
  O  O312  1  0.69658881  0.02924821  0.26987893  1
  O  O313  1  0.70238318  0.03240858  0.60178804  1
  O  O314  1  0.69818149  0.03277205  0.93213272  1
  O  O315  1  0.69731111  0.53072982  0.26923605  1
  O  O316  1  0.69786751  0.53308796  0.60191025  1
  O  O317  1  0.69728660  0.52427563  0.93474214  1
  O  O318  1  0.08328957  0.08746329  0.03887705  1
  O  O319  1  0.09330742  0.09521602  0.37007658  1
  O  O320  1  0.06923704  0.09119338  0.70654185  1
  O  O321  1  0.08723344  0.58893336  0.03435291  1
  O  O322  1  0.08395104  0.58118402  0.37526660  1
  O  O323  1  0.08058023  0.58987864  0.70481180  1
  O  O324  1  0.57089923  0.08641898  0.03163221  1
  O  O325  1  0.59016250  0.08206117  0.36061457  1
  O  O326  1  0.59409583  0.09053792  0.69802966  1
  O  O327  1  0.58457674  0.58960893  0.03755425  1
  O  O328  1  0.58243815  0.58829750  0.37415782  1
  O  O329  1  0.58339140  0.58646428  0.70340592  1
  O  O330  1  0.40952935  0.41351279  0.12606683  1
  O  O331  1  0.41120975  0.43223898  0.44426966  1
  O  O332  1  0.40670805  0.41825860  0.78924875  1
  O  O333  1  0.41655707  0.92071461  0.12835549  1
  O  O334  1  0.41400526  0.91601133  0.47021232  1
  O  O335  1  0.41558357  0.91173179  0.80640717  1
  O  O336  1  0.91404087  0.41651107  0.13162483  1
  O  O337  1  0.91359754  0.41981889  0.46163388  1
  O  O338  1  0.91565499  0.41708334  0.79747944  1
  O  O339  1  0.91174403  0.90501286  0.13374977  1
  O  O340  1  0.90622919  0.90865199  0.45940347  1
  O  O341  1  0.90752061  0.91212551  0.79915128  1
  O  O342  1  0.41235625  0.40827722  0.28677944  1
  O  O343  1  0.41506535  0.40566907  0.60708667  1
  O  O344  1  0.42920505  0.40751494  0.96002447  1
  O  O345  1  0.41842279  0.91744830  0.29744165  1
  O  O346  1  0.39888207  0.90393919  0.62496460  1
  O  O347  1  0.41320962  0.91362036  0.96257686  1
  O  O348  1  0.91494451  0.41266032  0.29588316  1
  O  O349  1  0.91905940  0.42828685  0.63364545  1
  O  O350  1  0.91880356  0.41756466  0.96754559  1
  O  O351  1  0.90792785  0.90818952  0.29960090  1
  O  O352  1  0.90857183  0.90678001  0.62313800  1
  O  O353  1  0.91438264  0.91243085  0.96530413  1
  O  O354  1  0.09168299  0.08773858  0.20150893  1
  O  O355  1  0.09614105  0.08218624  0.54851466  1
  O  O356  1  0.08836441  0.08632431  0.88439646  1
  O  O357  1  0.08945441  0.57024078  0.20635381  1
  O  O358  1  0.07959557  0.58525712  0.53155274  1
  O  O359  1  0.08490316  0.59148834  0.86241627  1
  O  O360  1  0.58408777  0.08461920  0.20500763  1
  O  O361  1  0.58784365  0.08628848  0.53870971  1
  O  O362  1  0.59524523  0.09855544  0.87319729  1
  O  O363  1  0.58629375  0.58608898  0.20224034  1
  O  O364  1  0.58325914  0.58258212  0.53377006  1
  O  O365  1  0.58760422  0.58278948  0.87186541  1
  O  O366  1  0.14130706  0.22005763  0.06073789  1
  O  O367  1  0.14535589  0.22844625  0.39089944  1
  O  O368  1  0.13667637  0.22111642  0.73282415  1
  O  O369  1  0.13312382  0.72403508  0.05029227  1
  O  O370  1  0.13005606  0.71284110  0.38303862  1
  O  O371  1  0.13540973  0.72326262  0.72439029  1
  O  O372  1  0.64167570  0.21614827  0.06055375  1
  O  O373  1  0.64289862  0.21950974  0.39469149  1
  O  O374  1  0.64728084  0.22576632  0.72404131  1
  O  O375  1  0.63652667  0.72437911  0.05897256  1
  O  O376  1  0.63770919  0.72069060  0.39394460  1
  O  O377  1  0.63349840  0.72211619  0.72808072  1
  O  O378  1  0.27637535  0.36189377  0.10736236  1
  O  O379  1  0.28684028  0.36885061  0.43820987  1
  O  O380  1  0.27547211  0.36407268  0.77317496  1
  O  O381  1  0.28327828  0.86637879  0.10862775  1
  O  O382  1  0.28074194  0.85332835  0.44218517  1
  O  O383  1  0.27920331  0.86003471  0.78124397  1
  O  O384  1  0.78036043  0.36121085  0.10780986  1
  O  O385  1  0.78173179  0.36036641  0.44001182  1
  O  O386  1  0.78210540  0.36235493  0.77660028  1
  O  O387  1  0.77393418  0.85786203  0.10307875  1
  O  O388  1  0.77295240  0.86126129  0.44559669  1
  O  O389  1  0.77167070  0.86389371  0.77702854  1
  O  O390  1  0.36741051  0.27649086  0.27641143  1
  O  O391  1  0.36644512  0.27662111  0.60117322  1
  O  O392  1  0.37151483  0.27629776  0.94388018  1
  O  O393  1  0.36235181  0.78507005  0.27929106  1
  O  O394  1  0.35566821  0.76792613  0.60320667  1
  O  O395  1  0.36207447  0.78011073  0.94422575  1
  O  O396  1  0.86153367  0.27855496  0.27573340  1
  O  O397  1  0.86069766  0.30150598  0.62833845  1
  O  O398  1  0.86221011  0.28469515  0.94891923  1
  O  O399  1  0.85603851  0.77293359  0.26969949  1
  O  O400  1  0.86260959  0.77178760  0.60295213  1
  O  O401  1  0.85731346  0.77797338  0.93899824  1
  O  O402  1  0.22482482  0.14391879  0.22448209  1
  O  O403  1  0.22618016  0.13789887  0.56235226  1
  O  O404  1  0.21885463  0.14233179  0.90132337  1
  O  O405  1  0.21884578  0.63595340  0.22695723  1
  O  O406  1  0.21463638  0.64095468  0.55553153  1
  O  O407  1  0.22071439  0.64748581  0.89314680  1
  O  O408  1  0.71804816  0.13418561  0.22260438  1
  O  O409  1  0.71956636  0.13970347  0.55480444  1
  O  O410  1  0.73079159  0.14083467  0.89140196  1
  O  O411  1  0.72053227  0.63577631  0.22105414  1
  O  O412  1  0.71539849  0.63732202  0.55059852  1
  O  O413  1  0.72198916  0.63521112  0.89443099  1
  O  O414  1  0.49943938  0.33252199  0.03520654  1
  O  O415  1  0.50005352  0.33911990  0.35849244  1
  O  O416  1  0.49306592  0.34226654  0.69197850  1
  O  O417  1  0.49295688  0.83668700  0.03112727  1
  O  O418  1  0.49347310  0.83884184  0.36661062  1
  O  O419  1  0.48351485  0.82921332  0.69387779  1
  O  O420  1  0.99476824  0.33481370  0.03168469  1
  O  O421  1  0.99158281  0.33475979  0.36541720  1
  O  O422  1  0.99767456  0.35022680  0.69873759  1
  O  O423  1  0.98773402  0.82893704  0.03044386  1
  O  O424  1  0.98544377  0.82311178  0.35976908  1
  O  O425  1  0.98880017  0.83272511  0.69565294  1
  O  O426  1  0.17417903  0.01112332  0.13869074  1
  O  O427  1  0.16960259  0.00931325  0.47027072  1
  O  O428  1  0.16716323  0.01097210  0.81313744  1
  O  O429  1  0.17282508  0.50641296  0.13632058  1
  O  O430  1  0.16548716  0.50771191  0.47408992  1
  O  O431  1  0.16939074  0.51634475  0.80261019  1
  O  O432  1  0.65753126  0.00340541  0.13471125  1
  O  O433  1  0.66424887  0.00835040  0.46805188  1
  O  O434  1  0.66626199  0.01382599  0.79961644  1
  O  O435  1  0.66441956  0.50516733  0.13554097  1
  O  O436  1  0.66208866  0.50478951  0.46685118  1
  O  O437  1  0.66752720  0.50702725  0.80266094  1
  O  O438  1  0.01355134  0.17302099  0.30344259  1
  O  O439  1  -0.00067952  0.18611460  0.65393915  1
  O  O440  1  0.00887233  0.17037153  0.97412649  1
  O  O441  1  -0.00176530  0.64813135  0.30103917  1
  O  O442  1  0.00511883  0.66868897  0.63544874  1
  O  O443  1  0.00436697  0.66160001  0.96281669  1
  O  O444  1  0.51197275  0.16907904  0.30510721  1
  O  O445  1  0.51379276  0.17408664  0.64122772  1
  O  O446  1  0.51322982  0.17498811  0.96568656  1
  O  O447  1  0.50686347  0.66959227  0.30658420  1
  O  O448  1  0.50604586  0.66620362  0.63578535  1
  O  O449  1  0.50683139  0.66911115  0.97013237  1
  O  O450  1  0.33385266  0.49111034  0.19882446  1
  O  O451  1  0.33597966  0.50211285  0.52191395  1
  O  O452  1  0.33308969  0.49237560  0.86607279  1
  O  O453  1  0.33792681  0.99680188  0.19683912  1
  O  O454  1  0.32813808  0.98429715  0.53365176  1
  O  O455  1  0.33068382  0.99358213  0.86077914  1
  O  O456  1  0.83273985  0.49166207  0.19769389  1
  O  O457  1  0.82947253  0.49331270  0.52624109  1
  O  O458  1  0.83552414  0.49295425  0.86465061  1
  O  O459  1  0.82826515  0.98615674  0.19406700  1
  O  O460  1  0.83295524  0.99227892  0.52900457  1
  O  O461  1  0.83067341  0.99282946  0.86604651  1
