# generated using pymatgen
data_Na31Fe20(SO4)36
_symmetry_space_group_name_H-M   'P 1'
_cell_length_a   18.06981133
_cell_length_b   18.06539099
_cell_length_c   19.70298891
_cell_angle_alpha   107.56014998
_cell_angle_beta   107.57741845
_cell_angle_gamma   90.71451613
_symmetry_Int_Tables_number   1
_chemical_formula_structural   Na31Fe20(SO4)36
_chemical_formula_sum   'Na62 Fe40 S72 O288'
_cell_volume   5807.69335568
_cell_formula_units_Z   2
loop_
 _symmetry_equiv_pos_site_id
 _symmetry_equiv_pos_as_xyz
  1  'x, y, z'
loop_
 _atom_site_type_symbol
 _atom_site_label
 _atom_site_symmetry_multiplicity
 _atom_site_fract_x
 _atom_site_fract_y
 _atom_site_fract_z
 _atom_site_occupancy
  Na  Na0  1  0.13683550  0.36503302  0.08680202  1
  Na  Na1  1  0.15796787  0.36878872  0.44586895  1
  Na  Na2  1  0.13832443  0.35830547  0.73938779  1
  Na  Na3  1  0.14391226  0.86578846  0.08939884  1
  Na  Na4  1  0.13179156  0.86004813  0.41073328  1
  Na  Na5  1  0.12420971  0.86503669  0.74836609  1
  Na  Na6  1  0.63735364  0.36593009  0.08315885  1
  Na  Na7  1  0.64992185  0.35386300  0.41625931  1
  Na  Na8  1  0.63226575  0.37266531  0.74315219  1
  Na  Na9  1  0.63247124  0.86774913  0.08417404  1
  Na  Na10  1  0.63538716  0.87539319  0.43189483  1
  Na  Na11  1  0.62261265  0.85259524  0.73473096  1
  Na  Na12  1  0.36545035  0.12598757  0.25048280  1
  Na  Na13  1  0.35251540  0.17912110  0.60657814  1
  Na  Na14  1  0.35905361  0.13589252  0.91195213  1
  Na  Na15  1  0.36840941  0.63541355  0.25447502  1
  Na  Na16  1  0.37177094  0.62460430  0.58154578  1
  Na  Na17  1  0.36556355  0.63480174  0.91799841  1
  Na  Na18  1  0.86420889  0.14382842  0.26042024  1
  Na  Na19  1  0.85483615  0.13411519  0.57672185  1
  Na  Na20  1  0.86750533  0.13106409  0.91851299  1
  Na  Na21  1  0.87794234  0.63617370  0.25404549  1
  Na  Na22  1  0.87408311  0.64416242  0.59694625  1
  Na  Na23  1  0.85933830  0.62987347  0.90328293  1
  Na  Na24  1  0.47754783  0.00470732  0.10055710  1
  Na  Na25  1  0.45699148  0.50333830  0.72494972  1
  Na  Na26  1  0.98298447  0.52596234  0.11141985  1
  Na  Na27  1  0.99991685  0.50369022  0.41446008  1
  Na  Na28  1  0.98931276  0.01426853  0.41814529  1
  Na  Na29  1  0.49077113  0.50844493  0.08532928  1
  Na  Na30  1  1.00245522  0.51353039  0.71986365  1
  Na  Na31  1  0.94076669  -0.00580125  0.72800793  1
  Na  Na32  1  1.02120602  -0.00896599  0.07300549  1
  Na  Na33  1  0.50645931  0.99818071  0.57503629  1
  Na  Na34  1  0.51149822  1.00603301  0.89195879  1
  Na  Na35  1  0.01169211  0.49416784  0.91280970  1
  Na  Na36  1  0.02710096  0.97380923  0.90476140  1
  Na  Na37  1  -0.00062767  0.99218459  0.58279746  1
  Na  Na38  1  0.01426908  0.98753514  0.24844472  1
  Na  Na39  1  0.49710147  0.49566959  0.28390208  1
  Na  Na40  1  0.51166050  0.45462998  0.89270348  1
  Na  Na41  1  0.53494754  0.49779940  0.58848713  1
  Na  Na42  1  0.24870808  0.74927334  0.66687142  1
  Na  Na43  1  0.25114897  0.75184070  0.00084267  1
  Na  Na44  1  0.73638604  0.73551184  0.66879047  1
  Na  Na45  1  0.24273304  0.23714581  0.00637792  1
  Na  Na46  1  0.23564452  0.73322349  0.33573459  1
  Na  Na47  1  0.74771700  0.75187990  0.34114458  1
  Na  Na48  1  0.75257226  0.25365147  0.00197371  1
  Na  Na49  1  0.75074484  0.25584003  0.65958387  1
  Na  Na50  1  0.24243768  0.23966353  0.35119836  1
  Na  Na51  1  0.74987488  0.74893307  -0.00006987  1
  Na  Na52  1  0.74417227  0.74972434  0.50899938  1
  Na  Na53  1  0.23688151  0.22932813  0.17342448  1
  Na  Na54  1  0.24862531  0.75525885  0.83565860  1
  Na  Na55  1  0.26791714  0.26132417  0.81495241  1
  Na  Na56  1  0.75080407  0.74951629  0.16970874  1
  Na  Na57  1  0.74434228  0.73656383  0.83086751  1
  Na  Na58  1  0.25190988  0.74586032  0.50214500  1
  Na  Na59  1  0.23914002  0.74157375  0.17452027  1
  Na  Na60  1  0.75388111  0.25491472  0.83081959  1
  Na  Na61  1  0.73931956  0.24265822  0.18007451  1
  Fe  Fe62  1  0.96572375  0.31134037  0.12314358  1
  Fe  Fe63  1  0.46589039  0.30848884  0.45085857  1
  Fe  Fe64  1  0.97235924  0.79827632  0.12239170  1
  Fe  Fe65  1  0.95672770  0.31378421  0.45563576  1
  Fe  Fe66  1  0.46818157  0.30636477  0.11738405  1
  Fe  Fe67  1  0.46476155  0.81093941  0.12697543  1
  Fe  Fe68  1  0.96541026  0.80745517  0.44890773  1
  Fe  Fe69  1  0.46474124  0.79830453  0.45924571  1
  Fe  Fe70  1  0.96583871  0.30572919  0.78436962  1
  Fe  Fe71  1  0.46232127  0.80797132  0.78727993  1
  Fe  Fe72  1  0.69174209  0.53596057  0.04519610  1
  Fe  Fe73  1  0.69130087  0.03747933  0.38275300  1
  Fe  Fe74  1  0.19285443  0.53128099  0.37721978  1
  Fe  Fe75  1  0.19468514  0.53323529  0.04602679  1
  Fe  Fe76  1  0.69416109  0.03645517  0.04673399  1
  Fe  Fe77  1  0.19092456  0.03757447  0.71664898  1
  Fe  Fe78  1  0.19704928  0.52989835  0.70408091  1
  Fe  Fe79  1  0.19467640  0.03705689  0.38922606  1
  Fe  Fe80  1  0.69928646  0.02997157  0.70786043  1
  Fe  Fe81  1  0.69596968  0.53665258  0.38520491  1
  Fe  Fe82  1  0.03366246  0.19229967  0.21740142  1
  Fe  Fe83  1  0.03210058  0.69820628  0.87494829  1
  Fe  Fe84  1  0.03506722  0.69444498  0.54581327  1
  Fe  Fe85  1  0.53202987  0.19831013  0.87122706  1
  Fe  Fe86  1  0.03398955  0.19117492  0.88208166  1
  Fe  Fe87  1  0.53507134  0.68913671  0.87968154  1
  Fe  Fe88  1  0.53857830  0.19342888  0.22094089  1
  Fe  Fe89  1  0.53634823  0.19037562  0.54325406  1
  Fe  Fe90  1  0.53658075  0.69567980  0.21755645  1
  Fe  Fe91  1  0.03382908  0.19621201  0.55082955  1
  Fe  Fe92  1  0.31363817  0.96444403  0.29444529  1
  Fe  Fe93  1  0.80650913  0.96789531  0.28578885  1
  Fe  Fe94  1  0.80834591  0.96292905  0.95383668  1
  Fe  Fe95  1  0.30771057  0.46352349  0.94634479  1
  Fe  Fe96  1  0.30786417  0.96827162  0.62399240  1
  Fe  Fe97  1  0.80683613  0.46887473  0.94998894  1
  Fe  Fe98  1  0.80832645  0.46514992  0.28764469  1
  Fe  Fe99  1  0.30907169  0.46083272  0.28601933  1
  Fe  Fe100  1  0.80110948  0.46628025  0.61985623  1
  Fe  Fe101  1  0.29767617  0.97039311  0.95912946  1
  S  S102  1  0.36267768  0.14247410  0.08183090  1
  S  S103  1  0.35962082  0.13942903  0.42027128  1
  S  S104  1  0.35877663  0.13959470  0.75205934  1
  S  S105  1  0.36145694  0.63879177  0.08430799  1
  S  S106  1  0.35954943  0.63565681  0.41216779  1
  S  S107  1  0.35696034  0.64581908  0.75539508  1
  S  S108  1  0.85964527  0.14258735  0.08629602  1
  S  S109  1  0.86163545  0.14054662  0.41721818  1
  S  S110  1  0.85894858  0.14331884  0.75213705  1
  S  S111  1  0.85602137  0.64160504  0.08114044  1
  S  S112  1  0.85992734  0.64085013  0.41455173  1
  S  S113  1  0.86159101  0.63463703  0.74738455  1
  S  S114  1  0.14209141  0.35520380  0.25046394  1
  S  S115  1  0.13117199  0.36184259  0.58450760  1
  S  S116  1  0.14242345  0.35681398  0.91552480  1
  S  S117  1  0.14334095  0.86240889  0.25202495  1
  S  S118  1  0.13924388  0.86415578  0.58203672  1
  S  S119  1  0.14062796  0.85782392  0.92231447  1
  S  S120  1  0.63866849  0.36271886  0.24854680  1
  S  S121  1  0.64299511  0.35716134  0.57527467  1
  S  S122  1  0.64685567  0.35943228  0.91801764  1
  S  S123  1  0.64228235  0.86103902  0.25062625  1
  S  S124  1  0.63569616  0.86103150  0.58535752  1
  S  S125  1  0.63926998  0.86177551  0.91773834  1
  S  S126  1  0.05981332  0.16801208  0.04265521  1
  S  S127  1  0.06582561  0.16805468  0.37751747  1
  S  S128  1  0.06436934  0.16945604  0.71155039  1
  S  S129  1  0.06829662  0.66761763  0.03830717  1
  S  S130  1  0.06738043  0.66864957  0.37566946  1
  S  S131  1  0.07534973  0.66857027  0.70684944  1
  S  S132  1  0.57063802  0.17155216  0.03821345  1
  S  S133  1  0.56527023  0.16504070  0.37055217  1
  S  S134  1  0.57683222  0.16870399  0.70698884  1
  S  S135  1  0.56619036  0.67166176  0.04497575  1
  S  S136  1  0.57083609  0.67349693  0.37625268  1
  S  S137  1  0.55655558  0.66823524  0.71328075  1
  S  S138  1  0.33355039  0.43192051  0.12235165  1
  S  S139  1  0.33295300  0.43329083  0.45248687  1
  S  S140  1  0.32975199  0.43911615  0.78988460  1
  S  S141  1  0.33329849  0.93318323  0.12950694  1
  S  S142  1  0.32571928  0.92599738  0.45813411  1
  S  S143  1  0.32326668  0.93152187  0.79486519  1
  S  S144  1  0.83050488  0.43696926  0.12503403  1
  S  S145  1  0.83219930  0.43571083  0.45807510  1
  S  S146  1  0.83223506  0.42906422  0.79000893  1
  S  S147  1  0.83162318  0.93290633  0.12444936  1
  S  S148  1  0.83446553  0.93787859  0.45590017  1
  S  S149  1  0.82892583  0.93391488  0.79372859  1
  S  S150  1  0.43057481  0.32101431  0.28388779  1
  S  S151  1  0.44816105  0.33818029  0.61690117  1
  S  S152  1  0.43752957  0.33265827  0.95691394  1
  S  S153  1  0.43094619  0.82473434  0.29289954  1
  S  S154  1  0.42410044  0.83451655  0.62819786  1
  S  S155  1  0.43050806  0.83389940  0.96233474  1
  S  S156  1  0.93219530  0.33101414  0.29069139  1
  S  S157  1  0.92540845  0.32922479  0.62685042  1
  S  S158  1  0.93662898  0.33575868  0.96121265  1
  S  S159  1  0.93330409  0.83589554  0.29007361  1
  S  S160  1  0.93674766  0.83059095  0.61587515  1
  S  S161  1  0.93137323  0.82651188  0.96012420  1
  S  S162  1  0.16469760  0.06391682  0.21281163  1
  S  S163  1  0.16336997  0.06833618  0.54424835  1
  S  S164  1  0.16383482  0.06376520  0.87460410  1
  S  S165  1  0.17266021  0.56082144  0.20710381  1
  S  S166  1  0.17089327  0.57146457  0.53980337  1
  S  S167  1  0.17055562  0.56604585  0.87294363  1
  S  S168  1  0.67076775  0.06778641  0.20714764  1
  S  S169  1  0.67029631  0.06805103  0.54468880  1
  S  S170  1  0.67563734  0.07275187  0.87587430  1
  S  S171  1  0.67222465  0.56943359  0.20904972  1
  S  S172  1  0.67399633  0.56550454  0.54186214  1
  S  S173  1  0.66648211  0.56438149  0.87568385  1
  O  O174  1  0.37694316  0.21952942  0.06963544  1
  O  O175  1  0.36920567  0.21605857  0.40773621  1
  O  O176  1  0.36488532  0.21784633  0.74655149  1
  O  O177  1  0.37092092  0.71794770  0.07706004  1
  O  O178  1  0.36914993  0.71402415  0.40041669  1
  O  O179  1  0.36188906  0.72900768  0.75544822  1
  O  O180  1  0.86823985  0.22149308  0.07750174  1
  O  O181  1  0.87257394  0.21743714  0.40669926  1
  O  O182  1  0.86507339  0.22673187  0.75399648  1
  O  O183  1  0.86792076  0.72206012  0.07693661  1
  O  O184  1  0.87123445  0.71725061  0.40167697  1
  O  O185  1  0.86861593  0.70484165  0.72637927  1
  O  O186  1  0.28660336  0.13982592  0.09291451  1
  O  O187  1  0.27964769  0.13109254  0.42682823  1
  O  O188  1  0.28258812  0.12590509  0.76688608  1
  O  O189  1  0.28228173  0.62982801  0.09209328  1
  O  O190  1  0.27447971  0.62920629  0.40924149  1
  O  O191  1  0.27769141  0.63208867  0.76254550  1
  O  O192  1  0.77900085  0.13268366  0.09144745  1
  O  O193  1  0.78403265  0.12944507  0.42505351  1
  O  O194  1  0.77826288  0.12909706  0.75737950  1
  O  O195  1  0.77396001  0.63517132  0.08448839  1
  O  O196  1  0.77890106  0.63617064  0.41890613  1
  O  O197  1  0.78791220  0.62525663  0.76215720  1
  O  O198  1  0.13181744  0.27462042  0.25605453  1
  O  O199  1  0.11821193  0.28748605  0.60125519  1
  O  O200  1  0.13242415  0.27921038  0.92615759  1
  O  O201  1  0.13819624  0.78461890  0.25928706  1
  O  O202  1  0.13304599  0.78517980  0.59043822  1
  O  O203  1  0.13173690  0.77500019  0.92457210  1
  O  O204  1  0.63106190  0.28265033  0.25327545  1
  O  O205  1  0.63704866  0.27608816  0.57922206  1
  O  O206  1  0.63541498  0.28080086  0.92628843  1
  O  O207  1  0.63537146  0.77959165  0.25474562  1
  O  O208  1  0.62689715  0.78867255  0.60241819  1
  O  O209  1  0.62808122  0.78405186  0.92795933  1
  O  O210  1  0.21967042  0.36133407  0.23837864  1
  O  O211  1  0.20549741  0.36923650  0.57285209  1
  O  O212  1  0.22189472  0.36580356  0.90876123  1
  O  O213  1  0.22035666  0.87639645  0.24052170  1
  O  O214  1  0.21767217  0.87503911  0.57364705  1
  O  O215  1  0.22556535  0.86765414  0.92668307  1
  O  O216  1  0.71782642  0.37404229  0.24085683  1
  O  O217  1  0.72450654  0.37025240  0.56996518  1
  O  O218  1  0.73084417  0.36841011  0.92069388  1
  O  O219  1  0.71953858  0.87071240  0.23838800  1
  O  O220  1  0.70606634  0.86864915  0.56492229  1
  O  O221  1  0.71789262  0.86665045  0.90800325  1
  O  O222  1  0.42501615  0.13143141  0.14687468  1
  O  O223  1  0.41737712  0.13262242  0.48877602  1
  O  O224  1  0.42140521  0.12840311  0.81742873  1
  O  O225  1  0.42088733  0.62888968  0.15136613  1
  O  O226  1  0.41064731  0.63103512  0.48218333  1
  O  O227  1  0.41609511  0.63714507  0.82383607  1
  O  O228  1  0.91614798  0.13678368  0.15648083  1
  O  O229  1  0.92227536  0.13232058  0.48537021  1
  O  O230  1  0.91606985  0.13306159  0.82080865  1
  O  O231  1  0.91093300  0.62922825  0.14714131  1
  O  O232  1  0.91575460  0.63376126  0.48418578  1
  O  O233  1  0.92651922  0.63129966  0.81534725  1
  O  O234  1  0.36588547  0.08116173  0.01220956  1
  O  O235  1  0.36591448  0.07828897  0.35203167  1
  O  O236  1  0.36094112  0.08129640  0.68086177  1
  O  O237  1  0.36946389  0.57979297  0.01614930  1
  O  O238  1  0.37168652  0.57623642  0.34531337  1
  O  O239  1  0.36743858  0.59267086  0.68777251  1
  O  O240  1  0.86934261  0.08275607  0.01992712  1
  O  O241  1  0.87212339  0.07956017  0.35019751  1
  O  O242  1  0.87032659  0.09068150  0.68464954  1
  O  O243  1  0.86361597  0.58483381  0.01086658  1
  O  O244  1  0.86965264  0.57853115  0.34891286  1
  O  O245  1  0.87205345  0.56581413  0.68345665  1
  O  O246  1  0.08235539  0.36463008  0.18340733  1
  O  O247  1  0.06745625  0.36550656  0.51616694  1
  O  O248  1  0.08384735  0.36364819  0.84644202  1
  O  O249  1  0.08174602  0.87072936  0.18442160  1
  O  O250  1  0.07970635  0.87205877  0.51399994  1
  O  O251  1  0.09057119  0.86648238  0.85202137  1
  O  O252  1  0.58010569  0.37139912  0.18001981  1
  O  O253  1  0.58648902  0.36411899  0.50493340  1
  O  O254  1  0.59472648  0.36764137  0.84889324  1
  O  O255  1  0.58125359  0.86940874  0.18416448  1
  O  O256  1  0.56715498  0.87175123  0.52359342  1
  O  O257  1  0.57955012  0.87298676  0.85163511  1
  O  O258  1  0.13726271  0.41264782  0.32009009  1
  O  O259  1  0.12303920  0.42599561  0.65124370  1
  O  O260  1  0.13300722  0.41795363  0.98203187  1
  O  O261  1  0.13328379  0.92216752  0.31958208  1
  O  O262  1  0.12941064  0.92286988  0.64951530  1
  O  O263  1  0.12410732  0.91183198  0.98730373  1
  O  O264  1  0.62863573  0.42089271  0.31586330  1
  O  O265  1  0.63288684  0.41424200  0.64112412  1
  O  O266  1  0.63392203  0.41877959  0.98481367  1
  O  O267  1  0.63792962  0.91677542  0.32109816  1
  O  O268  1  0.63475160  0.92739055  0.65553150  1
  O  O269  1  0.63488855  0.92252639  0.98678833  1
  O  O270  1  0.02610459  0.20332568  0.10550421  1
  O  O271  1  0.03279640  0.19830505  0.44018820  1
  O  O272  1  0.02681506  0.19870425  0.77263131  1
  O  O273  1  0.03179024  0.69445855  0.09776098  1
  O  O274  1  0.03299785  0.70185129  0.43951571  1
  O  O275  1  0.04091881  0.69009971  0.76761424  1
  O  O276  1  0.53646532  0.19987361  0.10057614  1
  O  O277  1  0.52901730  0.19659658  0.43136084  1
  O  O278  1  0.54377104  0.18905115  0.76885233  1
  O  O279  1  0.53024073  0.70188917  0.10634228  1
  O  O280  1  0.53563709  0.70204729  0.43566431  1
  O  O281  1  0.52664560  0.71013206  0.78045133  1
  O  O282  1  0.30328153  0.46856614  0.06137754  1
  O  O283  1  0.29777452  0.46792022  0.38828371  1
  O  O284  1  0.29320174  0.47462747  0.73024095  1
  O  O285  1  0.31412414  0.97249765  0.07194305  1
  O  O286  1  0.29649369  0.96359087  0.39747469  1
  O  O287  1  0.29539393  0.96532588  0.73192377  1
  O  O288  1  0.80195206  0.47600696  0.06570151  1
  O  O289  1  0.79896188  0.47546310  0.39887470  1
  O  O290  1  0.80572933  0.45614532  0.72425060  1
  O  O291  1  0.80119418  0.96915759  0.06291410  1
  O  O292  1  0.79845609  0.96810394  0.38996052  1
  O  O293  1  0.79619525  0.97353758  0.73509722  1
  O  O294  1  0.47004340  0.29371902  0.22410169  1
  O  O295  1  0.47938844  0.29140445  0.55216778  1
  O  O296  1  0.47549075  0.30609118  0.89855571  1
  O  O297  1  0.47166385  0.79655030  0.23345246  1
  O  O298  1  0.45168742  0.80089651  0.56390876  1
  O  O299  1  0.46864795  0.80725799  0.90297967  1
  O  O300  1  0.97143107  0.30145928  0.23138449  1
  O  O301  1  0.95482334  0.29779726  0.56175253  1
  O  O302  1  0.97396509  0.30498861  0.90107361  1
  O  O303  1  0.96608616  0.80933051  0.22833477  1
  O  O304  1  0.97122197  0.79268972  0.55182585  1
  O  O305  1  0.96612922  0.79860243  0.89986002  1
  O  O306  1  0.19516955  0.03505686  0.27883925  1
  O  O307  1  0.19541177  0.03469631  0.60701240  1
  O  O308  1  0.19136291  0.02557676  0.93283097  1
  O  O309  1  0.20482901  0.52101204  0.26569080  1
  O  O310  1  0.19760019  0.54048393  0.60288515  1
  O  O311  1  0.20066276  0.52776171  0.93345684  1
  O  O312  1  0.69949241  0.03221168  0.26879606  1
  O  O313  1  0.69713632  0.03204705  0.60564663  1
  O  O314  1  0.70174037  0.03123892  0.93386449  1
  O  O315  1  0.70038776  0.53327796  0.26992530  1
  O  O316  1  0.71381517  0.52986041  0.60197289  1
  O  O317  1  0.70124286  0.53042265  0.94006397  1
  O  O318  1  0.06667557  0.08509553  0.03341606  1
  O  O319  1  0.08117660  0.08439203  0.37133462  1
  O  O320  1  0.07884240  0.08634061  0.70339832  1
  O  O321  1  0.08754828  0.58487452  0.03159887  1
  O  O322  1  0.08878548  0.58879964  0.37646595  1
  O  O323  1  0.09817230  0.58718394  0.69805615  1
  O  O324  1  0.58617209  0.08797629  0.02840805  1
  O  O325  1  0.58887312  0.08676957  0.37131416  1
  O  O326  1  0.60160607  0.08685403  0.69613052  1
  O  O327  1  0.58217620  0.58934518  0.03983280  1
  O  O328  1  0.59400275  0.59303921  0.37144438  1
  O  O329  1  0.56428907  0.58767999  0.71457979  1
  O  O330  1  0.41642476  0.41678312  0.12808862  1
  O  O331  1  0.41162610  0.41124395  0.44905462  1
  O  O332  1  0.40926240  0.42572181  0.78843105  1
  O  O333  1  0.41675673  0.91508942  0.14229112  1
  O  O334  1  0.40658037  0.90679304  0.46391423  1
  O  O335  1  0.40529071  0.91284134  0.80321944  1
  O  O336  1  0.91153193  0.41809822  0.12795771  1
  O  O337  1  0.91486557  0.42564549  0.46061800  1
  O  O338  1  0.91583115  0.41132395  0.80263535  1
  O  O339  1  0.91288785  0.91479557  0.12996177  1
  O  O340  1  0.91530284  0.91729695  0.45379202  1
  O  O341  1  0.91057821  0.92373094  0.79792628  1
  O  O342  1  0.41048832  0.40134971  0.28557724  1
  O  O343  1  0.44676490  0.41829667  0.61179237  1
  O  O344  1  0.41921252  0.41578568  0.96317900  1
  O  O345  1  0.41204690  0.90451265  0.29653227  1
  O  O346  1  0.41082119  0.91782978  0.63508032  1
  O  O347  1  0.40865543  0.91448488  0.96839670  1
  O  O348  1  0.91453278  0.41281733  0.29525485  1
  O  O349  1  0.90185261  0.40936214  0.62885986  1
  O  O350  1  0.91913706  0.41781852  0.96514289  1
  O  O351  1  0.91769819  0.92016159  0.30005992  1
  O  O352  1  0.92161207  0.90952490  0.61139635  1
  O  O353  1  0.91476042  0.91004965  0.96879255  1
  O  O354  1  0.08167227  0.08364955  0.20787126  1
  O  O355  1  0.07974130  0.08280533  0.53982587  1
  O  O356  1  0.08114585  0.08165707  0.86944116  1
  O  O357  1  0.09409952  0.57853321  0.20474346  1
  O  O358  1  0.08852475  0.59111850  0.52918485  1
  O  O359  1  0.08791971  0.58048552  0.86671313  1
  O  O360  1  0.58898567  0.08642934  0.19969353  1
  O  O361  1  0.58733100  0.08407531  0.53546645  1
  O  O362  1  0.59532402  0.09273089  0.87230227  1
  O  O363  1  0.59009829  0.58771098  0.20183650  1
  O  O364  1  0.59669877  0.58062975  0.54584652  1
  O  O365  1  0.58611850  0.58323061  0.87852927  1
  O  O366  1  0.13528834  0.21500032  0.05977724  1
  O  O367  1  0.13637092  0.21730849  0.38920451  1
  O  O368  1  0.13674489  0.21976913  0.73043656  1
  O  O369  1  0.14108307  0.71935851  0.05606222  1
  O  O370  1  0.13945104  0.72179596  0.39368681  1
  O  O371  1  0.14430709  0.72395859  0.72217962  1
  O  O372  1  0.64378576  0.22252909  0.05648650  1
  O  O373  1  0.63060959  0.21851905  0.37745700  1
  O  O374  1  0.64505848  0.22480659  0.72233899  1
  O  O375  1  0.63842934  0.72302706  0.06185919  1
  O  O376  1  0.63976267  0.72744258  0.38776234  1
  O  O377  1  0.63307600  0.71377015  0.72989892  1
  O  O378  1  0.28274314  0.35986681  0.10580387  1
  O  O379  1  0.28037144  0.36261079  0.43672444  1
  O  O380  1  0.28032136  0.36874711  0.78002867  1
  O  O381  1  0.28100224  0.86014256  0.10788594  1
  O  O382  1  0.27219452  0.85466532  0.43981692  1
  O  O383  1  0.26995616  0.86115304  0.77914454  1
  O  O384  1  0.77806567  0.36538863  0.10729827  1
  O  O385  1  0.78582816  0.36168550  0.43906016  1
  O  O386  1  0.78036287  0.35968547  0.77957874  1
  O  O387  1  0.77823926  0.86232694  0.10830578  1
  O  O388  1  0.78470289  0.86690753  0.44474582  1
  O  O389  1  0.77924266  0.86074923  0.77626245  1
  O  O390  1  0.36031176  0.26740577  0.26583659  1
  O  O391  1  0.37068276  0.30005618  0.60208502  1
  O  O392  1  0.36551534  0.28150284  0.94049273  1
  O  O393  1  0.35940446  0.77021279  0.27078412  1
  O  O394  1  0.35157201  0.78746404  0.61956693  1
  O  O395  1  0.36153445  0.77789591  0.94574863  1
  O  O396  1  0.86040148  0.27902939  0.27130593  1
  O  O397  1  0.86067953  0.27625010  0.62199490  1
  O  O398  1  0.86538724  0.28371052  0.94525920  1
  O  O399  1  0.86097014  0.78608939  0.27592362  1
  O  O400  1  0.86415944  0.78075132  0.60045945  1
  O  O401  1  0.85856938  0.77632099  0.94518320  1
  O  O402  1  0.21578949  0.13533456  0.22628952  1
  O  O403  1  0.21073090  0.13904888  0.55499939  1
  O  O404  1  0.21495900  0.13626042  0.89186148  1
  O  O405  1  0.22695932  0.63184222  0.22459991  1
  O  O406  1  0.22391199  0.64152060  0.55285252  1
  O  O407  1  0.22188608  0.63911755  0.89346503  1
  O  O408  1  0.72346343  0.13731893  0.22158123  1
  O  O409  1  0.72189565  0.13939230  0.56239255  1
  O  O410  1  0.73072633  0.14347002  0.89687051  1
  O  O411  1  0.72502468  0.64038178  0.22521457  1
  O  O412  1  0.72471412  0.63740771  0.55371947  1
  O  O413  1  0.71675803  0.63796488  0.89272869  1
  O  O414  1  0.49529095  0.33744472  0.03186306  1
  O  O415  1  0.48953320  0.32359623  0.35573274  1
  O  O416  1  0.50438651  0.33708164  0.68784404  1
  O  O417  1  0.48976008  0.83787356  0.03623606  1
  O  O418  1  0.48748461  0.82413838  0.36512369  1
  O  O419  1  0.48560555  0.83593589  0.69989339  1
  O  O420  1  0.99487516  0.33926326  0.03489425  1
  O  O421  1  0.98935765  0.33319956  0.36383991  1
  O  O422  1  0.99213060  0.33990097  0.69792434  1
  O  O423  1  0.99070696  0.82928209  0.03397804  1
  O  O424  1  0.99331770  0.83472371  0.36128519  1
  O  O425  1  0.99502453  0.83497713  0.68719685  1
  O  O426  1  0.15877077  0.00220132  0.14283270  1
  O  O427  1  0.15851847  0.00584599  0.47167243  1
  O  O428  1  0.16086979  0.00734517  0.79992723  1
  O  O429  1  0.17249715  0.50347738  0.13310583  1
  O  O430  1  0.16923003  0.50860742  0.46911337  1
  O  O431  1  0.17101819  0.50973730  0.80019468  1
  O  O432  1  0.66777194  0.00687876  0.13470723  1
  O  O433  1  0.67277792  0.00924767  0.47355885  1
  O  O434  1  0.67433727  0.01698613  0.80197703  1
  O  O435  1  0.66958052  0.50982914  0.13613123  1
  O  O436  1  0.67009982  0.50627338  0.46763819  1
  O  O437  1  0.66317588  0.50547632  0.80619226  1
  O  O438  1  0.00413303  0.16505158  0.30548403  1
  O  O439  1  0.00529682  0.17085712  0.64025793  1
  O  O440  1  0.00340995  0.17563180  0.97190931  1
  O  O441  1  0.00889453  0.66528966  0.30546212  1
  O  O442  1  0.01459583  0.66653364  0.63505634  1
  O  O443  1  0.01090558  0.66420678  0.96422929  1
  O  O444  1  0.50175100  0.15479439  0.29671267  1
  O  O445  1  0.51442468  0.16495067  0.63604284  1
  O  O446  1  0.51202608  0.17255322  0.96648059  1
  O  O447  1  0.51031925  0.66367296  0.30059542  1
  O  O448  1  0.49929821  0.67196116  0.64478912  1
  O  O449  1  0.50798913  0.67205913  0.97317394  1
  O  O450  1  0.33630491  0.49000890  0.19576230  1
  O  O451  1  0.33833678  0.49384530  0.52217797  1
  O  O452  1  0.33582607  0.49813810  0.86590028  1
  O  O453  1  0.32852125  0.98920964  0.20075362  1
  O  O454  1  0.32598106  0.98601954  0.52904823  1
  O  O455  1  0.32418051  0.99221073  0.86588680  1
  O  O456  1  0.83261545  0.49422878  0.19821190  1
  O  O457  1  0.83255453  0.49139248  0.53240274  1
  O  O458  1  0.83295437  0.49287336  0.85985171  1
  O  O459  1  0.83311262  0.99315068  0.19640358  1
  O  O460  1  0.84398394  1.00098146  0.52551068  1
  O  O461  1  0.82933597  0.99073718  0.86829250  1
