# generated using pymatgen
data_Na31Fe20(SO4)36
_symmetry_space_group_name_H-M   'P 1'
_cell_length_a   18.07228372
_cell_length_b   18.07394990
_cell_length_c   19.70123192
_cell_angle_alpha   107.57563161
_cell_angle_beta   107.57300119
_cell_angle_gamma   90.75537476
_symmetry_Int_Tables_number   1
_chemical_formula_structural   Na31Fe20(SO4)36
_chemical_formula_sum   'Na62 Fe40 S72 O288'
_cell_volume   5809.79221995
_cell_formula_units_Z   2
loop_
 _symmetry_equiv_pos_site_id
 _symmetry_equiv_pos_as_xyz
  1  'x, y, z'
loop_
 _atom_site_type_symbol
 _atom_site_label
 _atom_site_symmetry_multiplicity
 _atom_site_fract_x
 _atom_site_fract_y
 _atom_site_fract_z
 _atom_site_occupancy
  Na  Na0  1  0.13462641  0.36114022  0.07710066  1
  Na  Na1  1  0.14465711  0.37566892  0.42918399  1
  Na  Na2  1  0.13940693  0.36445415  0.74776514  1
  Na  Na3  1  0.12855146  0.86467829  0.07858045  1
  Na  Na4  1  0.13697530  0.87870515  0.42241680  1
  Na  Na5  1  0.13180762  0.86509437  0.74629987  1
  Na  Na6  1  0.63020492  0.36313307  0.07848257  1
  Na  Na7  1  0.62887474  0.36027678  0.42509077  1
  Na  Na8  1  0.65648435  0.36666756  0.77468825  1
  Na  Na9  1  0.62852144  0.86398586  0.07294502  1
  Na  Na10  1  0.63232128  0.86813177  0.42165058  1
  Na  Na11  1  0.62977321  0.82991150  0.72610884  1
  Na  Na12  1  0.36797731  0.13746016  0.25924171  1
  Na  Na13  1  0.35986258  0.13246015  0.57263285  1
  Na  Na14  1  0.36426031  0.13461855  0.91743526  1
  Na  Na15  1  0.36467824  0.63545615  0.24913678  1
  Na  Na16  1  0.37843386  0.63540612  0.59527881  1
  Na  Na17  1  0.38441698  0.62816184  0.91942011  1
  Na  Na18  1  0.87163038  0.13561708  0.25419579  1
  Na  Na19  1  0.85739428  0.14242633  0.58045212  1
  Na  Na20  1  0.84860232  0.13021266  0.89212048  1
  Na  Na21  1  0.86670949  0.63646614  0.25488448  1
  Na  Na22  1  0.86466824  0.64007721  0.59201024  1
  Na  Na23  1  0.85553780  0.62762861  0.91146795  1
  Na  Na24  1  0.52551110  -0.01979033  0.74293157  1
  Na  Na25  1  0.49118875  0.02342306  0.39967379  1
  Na  Na26  1  0.97639986  0.00231523  0.76292662  1
  Na  Na27  1  0.99543770  0.50782395  0.74483025  1
  Na  Na28  1  0.47831764  0.53600746  0.75876794  1
  Na  Na29  1  0.48717008  0.55254036  0.44634903  1
  Na  Na30  1  0.98771250  0.01102358  0.07296195  1
  Na  Na31  1  0.48288544  0.00571608  0.10791528  1
  Na  Na32  1  0.94929708  0.50552957  0.07091466  1
  Na  Na33  1  0.04371650  0.99610294  0.28066211  1
  Na  Na34  1  0.00716431  0.99925108  0.57473189  1
  Na  Na35  1  0.50996814  0.46909698  0.57433756  1
  Na  Na36  1  0.51283269  0.49014241  0.24194628  1
  Na  Na37  1  0.00226463  0.49034696  0.91738459  1
  Na  Na38  1  0.01502305  0.49620476  0.56539061  1
  Na  Na39  1  0.00905907  0.48711631  0.26132009  1
  Na  Na40  1  0.54008118  0.99344532  0.58587537  1
  Na  Na41  1  0.50777548  0.94550919  0.89812991  1
  Na  Na42  1  0.26028566  0.26415955  0.65937680  1
  Na  Na43  1  0.75984876  0.26367729  -0.02256663  1
  Na  Na44  1  0.26278560  0.75486133  0.66455240  1
  Na  Na45  1  0.24767553  0.75323891  0.33139240  1
  Na  Na46  1  0.26531432  0.26171556  0.32934922  1
  Na  Na47  1  0.74364614  0.23936554  0.68241395  1
  Na  Na48  1  0.73423748  0.74264981  0.00063218  1
  Na  Na49  1  0.74146175  0.24191764  0.34639612  1
  Na  Na50  1  0.25962091  0.75605431  -0.00763479  1
  Na  Na51  1  0.73905501  0.74312678  0.34452936  1
  Na  Na52  1  0.74535910  0.74459595  0.17280715  1
  Na  Na53  1  0.25215611  0.75595171  0.16031208  1
  Na  Na54  1  0.24718373  0.24901977  0.84091315  1
  Na  Na55  1  0.25693848  0.75650068  0.50167522  1
  Na  Na56  1  0.27211190  0.26994139  0.49539943  1
  Na  Na57  1  0.75198164  0.25124587  0.16463307  1
  Na  Na58  1  0.73131598  0.73447903  0.82960420  1
  Na  Na59  1  0.26833259  0.76164356  0.82743232  1
  Na  Na60  1  0.72759585  0.73711844  0.52630764  1
  Na  Na61  1  0.25853861  0.25961958  0.15334214  1
  Fe  Fe62  1  0.46158584  0.30518890  0.11581379  1
  Fe  Fe63  1  0.96852105  0.30627740  0.78123368  1
  Fe  Fe64  1  0.46675636  0.31282795  0.78954448  1
  Fe  Fe65  1  0.96061846  0.80699640  0.78529211  1
  Fe  Fe66  1  0.96083906  0.81014580  0.11964315  1
  Fe  Fe67  1  0.46762395  0.80826361  0.12451338  1
  Fe  Fe68  1  0.46782953  0.80205533  0.45714769  1
  Fe  Fe69  1  0.96128178  0.80931469  0.45127526  1
  Fe  Fe70  1  0.96481030  0.30495965  0.44905584  1
  Fe  Fe71  1  0.96489301  0.30517523  0.11439679  1
  Fe  Fe72  1  0.69562626  0.53223730  0.38354308  1
  Fe  Fe73  1  0.18645937  0.03606535  0.04568703  1
  Fe  Fe74  1  0.19286738  0.53745547  0.38325099  1
  Fe  Fe75  1  0.19264440  0.53542594  0.04741270  1
  Fe  Fe76  1  0.68911028  0.03488068  0.04322472  1
  Fe  Fe77  1  0.69091372  0.03677386  0.37833798  1
  Fe  Fe78  1  0.69874894  0.52489664  0.71455531  1
  Fe  Fe79  1  0.19894885  0.53185883  0.70994339  1
  Fe  Fe80  1  0.19191201  0.03961666  0.71718946  1
  Fe  Fe81  1  0.69414360  0.53128421  0.03917275  1
  Fe  Fe82  1  0.03663543  0.18914205  0.54426771  1
  Fe  Fe83  1  0.53522797  0.19052675  0.87867830  1
  Fe  Fe84  1  0.03550164  0.69294766  0.88143900  1
  Fe  Fe85  1  0.03201460  0.69638965  0.54754544  1
  Fe  Fe86  1  0.53820974  0.68659612  0.20928921  1
  Fe  Fe87  1  0.03739456  0.19344380  0.88296308  1
  Fe  Fe88  1  0.53191314  0.20081279  0.54611733  1
  Fe  Fe89  1  0.53226716  0.19651577  0.21704251  1
  Fe  Fe90  1  0.03260063  0.68995796  0.21165650  1
  Fe  Fe91  1  0.03601950  0.19282037  0.21612525  1
  Fe  Fe92  1  0.29804470  0.96832811  0.29310122  1
  Fe  Fe93  1  0.81204262  0.46468395  0.28979758  1
  Fe  Fe94  1  0.80283530  0.96659297  0.94612020  1
  Fe  Fe95  1  0.31225541  0.46477509  0.95584329  1
  Fe  Fe96  1  0.79442791  0.97063958  0.62048167  1
  Fe  Fe97  1  0.30931145  0.46491157  0.28594152  1
  Fe  Fe98  1  0.30749955  0.97092630  0.62188103  1
  Fe  Fe99  1  0.81062380  0.96439258  0.28645442  1
  Fe  Fe100  1  0.81236059  0.45338438  0.61511336  1
  Fe  Fe101  1  0.30274150  0.96776083  0.95346722  1
  S  S102  1  0.35616946  0.13948587  0.08647365  1
  S  S103  1  0.36126091  0.14145467  0.41773005  1
  S  S104  1  0.35879999  0.14613838  0.75185391  1
  S  S105  1  0.35871697  0.64158887  0.08481388  1
  S  S106  1  0.35066504  0.64448917  0.40993684  1
  S  S107  1  0.34940735  0.64229430  0.75257535  1
  S  S108  1  0.85873893  0.14069459  0.08200177  1
  S  S109  1  0.86057618  0.13793733  0.41505114  1
  S  S110  1  0.86453486  0.13864745  0.74670226  1
  S  S111  1  0.85772993  0.64480687  0.08615871  1
  S  S112  1  0.85808957  0.64271154  0.41818662  1
  S  S113  1  0.86450198  0.63525102  0.74843895  1
  S  S114  1  0.13946617  0.35933990  0.24922309  1
  S  S115  1  0.13731300  0.36128994  0.58199584  1
  S  S116  1  0.14079234  0.36128340  0.91683863  1
  S  S117  1  0.13762622  0.85353608  0.24611054  1
  S  S118  1  0.13606457  0.86417206  0.58370472  1
  S  S119  1  0.13743457  0.85914867  0.91532952  1
  S  S120  1  0.64180258  0.35931700  0.24874233  1
  S  S121  1  0.65047875  0.35163608  0.58923592  1
  S  S122  1  0.64035225  0.35777155  0.92125317  1
  S  S123  1  0.64296848  0.86028062  0.25198168  1
  S  S124  1  0.63667293  0.85863694  0.58279548  1
  S  S125  1  0.64458747  0.85871788  0.91374729  1
  S  S126  1  0.06356995  0.16846661  0.04228642  1
  S  S127  1  0.07371790  0.17771783  0.38181785  1
  S  S128  1  0.06854703  0.17041115  0.70857117  1
  S  S129  1  0.06345590  0.66779309  0.04126774  1
  S  S130  1  0.06750510  0.67606422  0.37688299  1
  S  S131  1  0.06967772  0.66953385  0.70971890  1
  S  S132  1  0.56363852  0.16839783  0.04431787  1
  S  S133  1  0.56876583  0.16945080  0.37479518  1
  S  S134  1  0.56269169  0.16995619  0.70817159  1
  S  S135  1  0.57378970  0.67434336  0.04804725  1
  S  S136  1  0.56569415  0.66527256  0.37300767  1
  S  S137  1  0.56329634  0.64103517  0.69587230  1
  S  S138  1  0.32817569  0.43382818  0.12416537  1
  S  S139  1  0.33266281  0.44655957  0.45503037  1
  S  S140  1  0.32623290  0.43131098  0.79281001  1
  S  S141  1  0.32238295  0.93074182  0.12648791  1
  S  S142  1  0.33511433  0.92990475  0.46073333  1
  S  S143  1  0.32677948  0.93864653  0.78972652  1
  S  S144  1  0.83235714  0.43480666  0.12758848  1
  S  S145  1  0.83356251  0.43168498  0.45617913  1
  S  S146  1  0.84588701  0.43501759  0.79110510  1
  S  S147  1  0.83093720  0.93632465  0.12399299  1
  S  S148  1  0.82525946  0.93329023  0.45669169  1
  S  S149  1  0.83140648  0.92895097  0.79000462  1
  S  S150  1  0.43647429  0.33454920  0.28876085  1
  S  S151  1  0.44152999  0.33443234  0.62944465  1
  S  S152  1  0.42998486  0.32680114  0.95740857  1
  S  S153  1  0.42975938  0.82816365  0.29089172  1
  S  S154  1  0.42877657  0.83356466  0.62525811  1
  S  S155  1  0.43079222  0.84206994  0.96697940  1
  S  S156  1  0.93595810  0.33006237  0.28936327  1
  S  S157  1  0.93901590  0.32855497  0.62321465  1
  S  S158  1  0.93952344  0.32909192  0.95563114  1
  S  S159  1  0.93424245  0.83122403  0.29023995  1
  S  S160  1  0.92958496  0.83295044  0.62226879  1
  S  S161  1  0.92826959  0.82642593  0.95527913  1
  S  S162  1  0.16543023  0.06453787  0.20736165  1
  S  S163  1  0.17090321  0.06898603  0.54778075  1
  S  S164  1  0.16741115  0.06751120  0.87487013  1
  S  S165  1  0.16393300  0.56319972  0.20611553  1
  S  S166  1  0.16071988  0.57288898  0.53995890  1
  S  S167  1  0.16886593  0.56773283  0.87545296  1
  S  S168  1  0.67213814  0.07013036  0.20917045  1
  S  S169  1  0.66635373  0.07109016  0.53952723  1
  S  S170  1  0.66773952  0.06634566  0.87581537  1
  S  S171  1  0.67612141  0.56609005  0.21018682  1
  S  S172  1  0.67783266  0.55252540  0.54156097  1
  S  S173  1  0.67278334  0.56231084  0.87741973  1
  O  O174  1  0.36437059  0.22000046  0.08331297  1
  O  O175  1  0.36923261  0.21501053  0.40225955  1
  O  O176  1  0.36662510  0.22603009  0.74578283  1
  O  O177  1  0.36713777  0.72225722  0.07998211  1
  O  O178  1  0.36539463  0.72096012  0.39846979  1
  O  O179  1  0.35439873  0.72475700  0.75565679  1
  O  O180  1  0.86681358  0.22002977  0.07404649  1
  O  O181  1  0.87003176  0.21570493  0.40391703  1
  O  O182  1  0.87907753  0.21570694  0.73534629  1
  O  O183  1  0.86400521  0.72747410  0.08519568  1
  O  O184  1  0.86720170  0.72055957  0.40678136  1
  O  O185  1  0.87400778  0.71236027  0.73736131  1
  O  O186  1  0.27789203  0.12811770  0.09549838  1
  O  O187  1  0.29087164  0.13265545  0.43752349  1
  O  O188  1  0.28123946  0.13626324  0.76313683  1
  O  O189  1  0.27954624  0.63177527  0.09389945  1
  O  O190  1  0.26651208  0.64000599  0.40728280  1
  O  O191  1  0.26760629  0.62909318  0.76205251  1
  O  O192  1  0.78046648  0.13134977  0.09112597  1
  O  O193  1  0.78095297  0.12953521  0.42107611  1
  O  O194  1  0.79018891  0.13444046  0.75979428  1
  O  O195  1  0.77838812  0.63116313  0.09249624  1
  O  O196  1  0.77697779  0.63373545  0.42192025  1
  O  O197  1  0.78665185  0.62526872  0.75724605  1
  O  O198  1  0.13157722  0.28053981  0.25783059  1
  O  O199  1  0.12502827  0.28506504  0.59498019  1
  O  O200  1  0.13190435  0.28340889  0.92593253  1
  O  O201  1  0.13004375  0.77079692  0.24691617  1
  O  O202  1  0.12754291  0.78597336  0.59380146  1
  O  O203  1  0.13014146  0.78193070  0.92850779  1
  O  O204  1  0.63281526  0.28005789  0.25612297  1
  O  O205  1  0.63344486  0.26852647  0.58935641  1
  O  O206  1  0.62324861  0.28154241  0.93429229  1
  O  O207  1  0.63417940  0.78047769  0.25910188  1
  O  O208  1  0.63072055  0.77853696  0.58408888  1
  O  O209  1  0.63315009  0.78285334  0.92321105  1
  O  O210  1  0.21889307  0.36829274  0.24195540  1
  O  O211  1  0.21194267  0.36613850  0.56848586  1
  O  O212  1  0.22007754  0.37181349  0.91077912  1
  O  O213  1  0.21705401  0.86521819  0.23963297  1
  O  O214  1  0.21456801  0.87283089  0.57512201  1
  O  O215  1  0.21740042  0.86814793  0.90878684  1
  O  O216  1  0.72135757  0.36860669  0.24173476  1
  O  O217  1  0.72883071  0.35500425  0.57942840  1
  O  O218  1  0.71675363  0.35868515  0.91108922  1
  O  O219  1  0.72246486  0.86977556  0.24421474  1
  O  O220  1  0.71446287  0.87411770  0.57148229  1
  O  O221  1  0.72860472  0.86924935  0.91496069  1
  O  O222  1  0.41671618  0.12719285  0.15235874  1
  O  O223  1  0.43018034  0.13385792  0.48275741  1
  O  O224  1  0.41909621  0.13630505  0.81845050  1
  O  O225  1  0.41806882  0.63254767  0.15168773  1
  O  O226  1  0.40103062  0.63800369  0.48049569  1
  O  O227  1  0.40660566  0.62700350  0.81609638  1
  O  O228  1  0.91864813  0.13351856  0.15055487  1
  O  O229  1  0.91861996  0.13199552  0.48441500  1
  O  O230  1  0.92867891  0.12739850  0.81145311  1
  O  O231  1  0.91574626  0.63577920  0.15566438  1
  O  O232  1  0.91395587  0.63969597  0.48958605  1
  O  O233  1  0.92456882  0.62993539  0.81804717  1
  O  O234  1  0.36285432  0.08313248  0.01652854  1
  O  O235  1  0.36663414  0.07601876  0.35042157  1
  O  O236  1  0.36415616  0.08894139  0.68193186  1
  O  O237  1  0.36339113  0.58470047  0.01489989  1
  O  O238  1  0.36309707  0.58288173  0.34465397  1
  O  O239  1  0.35030205  0.58849995  0.68050665  1
  O  O240  1  0.86825493  0.08130604  0.01484697  1
  O  O241  1  0.86981437  0.07804678  0.34792308  1
  O  O242  1  0.86842094  0.07731629  0.67678273  1
  O  O243  1  0.87116683  0.59122490  0.02022387  1
  O  O244  1  0.86967972  0.58266296  0.35287759  1
  O  O245  1  0.87590442  0.57417234  0.68289498  1
  O  O246  1  0.08091208  0.36652435  0.18027902  1
  O  O247  1  0.07352856  0.37267546  0.51760390  1
  O  O248  1  0.08270345  0.36898971  0.84762293  1
  O  O249  1  0.07920065  0.86342306  0.17786169  1
  O  O250  1  0.07608986  0.87096051  0.51515306  1
  O  O251  1  0.07974108  0.86129971  0.84456513  1
  O  O252  1  0.58278251  0.36773635  0.18058388  1
  O  O253  1  0.59128574  0.36989927  0.52916812  1
  O  O254  1  0.57984368  0.36774911  0.85549392  1
  O  O255  1  0.58443319  0.86873502  0.18432337  1
  O  O256  1  0.57673514  0.86906496  0.51368999  1
  O  O257  1  0.59257380  0.86895830  0.84478407  1
  O  O258  1  0.12847766  0.41891439  0.31576438  1
  O  O259  1  0.13292787  0.42339630  0.65145503  1
  O  O260  1  0.12959852  0.42184558  0.98300811  1
  O  O261  1  0.12794489  0.90730144  0.31403546  1
  O  O262  1  0.12618851  0.92425636  0.65023608  1
  O  O263  1  0.12783485  0.92012978  0.98105036  1
  O  O264  1  0.63287365  0.41874690  0.31598537  1
  O  O265  1  0.65133707  0.40329305  0.66439279  1
  O  O266  1  0.63747926  0.42011784  0.99122577  1
  O  O267  1  0.63621826  0.91805908  0.32092028  1
  O  O268  1  0.62662232  0.91582863  0.64943487  1
  O  O269  1  0.63291857  0.92117290  0.98099564  1
  O  O270  1  0.02719374  0.20000208  0.10381275  1
  O  O271  1  0.03262056  0.20865750  0.44064034  1
  O  O272  1  0.03802586  0.20448717  0.77292144  1
  O  O273  1  0.02452163  0.69632373  0.10029224  1
  O  O274  1  0.02914986  0.70303939  0.43667340  1
  O  O275  1  0.03456036  0.69741676  0.77181720  1
  O  O276  1  0.52447726  0.19807591  0.10422956  1
  O  O277  1  0.53756847  0.19367390  0.43850864  1
  O  O278  1  0.52594472  0.20629732  0.76873318  1
  O  O279  1  0.53553854  0.70355297  0.11054935  1
  O  O280  1  0.52395168  0.69011192  0.42827238  1
  O  O281  1  0.52548127  0.65577512  0.75374465  1
  O  O282  1  0.29848734  0.47023005  0.06273605  1
  O  O283  1  0.29029815  0.47548347  0.38739492  1
  O  O284  1  0.29240480  0.46602201  0.73254359  1
  O  O285  1  0.29417548  0.96877687  0.06625059  1
  O  O286  1  0.30544442  0.95942784  0.39671312  1
  O  O287  1  0.29172456  0.97657419  0.72985357  1
  O  O288  1  0.80422099  0.47362019  0.07006463  1
  O  O289  1  0.80307309  0.47108229  0.39689807  1
  O  O290  1  0.80974479  0.46552544  0.72621327  1
  O  O291  1  0.80118059  0.97363916  0.06412312  1
  O  O292  1  0.79907775  0.96998872  0.39534491  1
  O  O293  1  0.81044461  0.96328685  0.72863292  1
  O  O294  1  0.46996332  0.30037532  0.22391064  1
  O  O295  1  0.47640798  0.29470923  0.56848453  1
  O  O296  1  0.46646898  0.29808100  0.89678634  1
  O  O297  1  0.46939251  0.80200628  0.23157757  1
  O  O298  1  0.44999112  0.80686592  0.55556137  1
  O  O299  1  0.46530508  0.82733773  0.90778570  1
  O  O300  1  0.97089356  0.29912502  0.22697955  1
  O  O301  1  0.96679874  0.29300281  0.55717113  1
  O  O302  1  0.97407638  0.29350712  0.89331766  1
  O  O303  1  0.97265099  0.79924222  0.23066738  1
  O  O304  1  0.96798121  0.80268047  0.56203494  1
  O  O305  1  0.96766520  0.79846612  0.89598357  1
  O  O306  1  0.19150463  0.02630843  0.26556437  1
  O  O307  1  0.20360529  0.03529806  0.61253841  1
  O  O308  1  0.19786239  0.03199830  0.93709020  1
  O  O309  1  0.19381607  0.52625592  0.26615510  1
  O  O310  1  0.18137097  0.53745244  0.60053953  1
  O  O311  1  0.19793504  0.53069466  0.93610437  1
  O  O312  1  0.70023810  0.03139498  0.26855607  1
  O  O313  1  0.68868119  0.03235645  0.59765193  1
  O  O314  1  0.70228268  0.03500238  0.94183631  1
  O  O315  1  0.70572816  0.52832453  0.27060191  1
  O  O316  1  0.71385318  0.51632185  0.60243261  1
  O  O317  1  0.70536448  0.53147784  0.94240119  1
  O  O318  1  0.07956369  0.08691571  0.04007290  1
  O  O319  1  0.09415040  0.10055695  0.38193326  1
  O  O320  1  0.08235880  0.08742399  0.70396451  1
  O  O321  1  0.08252915  0.58623586  0.03662835  1
  O  O322  1  0.08892848  0.59547516  0.37047486  1
  O  O323  1  0.08769233  0.58711116  0.70272142  1
  O  O324  1  0.58041128  0.08671873  0.03976511  1
  O  O325  1  0.58517915  0.08589448  0.36209313  1
  O  O326  1  0.56720345  0.08731330  0.70223099  1
  O  O327  1  0.60409800  0.59922010  0.05356500  1
  O  O328  1  0.58632652  0.58336362  0.36781426  1
  O  O329  1  0.59249593  0.55935776  0.68699282  1
  O  O330  1  0.40901479  0.41410535  0.12893139  1
  O  O331  1  0.41355288  0.44026925  0.45380585  1
  O  O332  1  0.40608905  0.41297376  0.79333743  1
  O  O333  1  0.40395087  0.91278409  0.13296629  1
  O  O334  1  0.41802032  0.91362063  0.46999128  1
  O  O335  1  0.40656117  0.92548502  0.79153948  1
  O  O336  1  0.91502552  0.41609427  0.13103094  1
  O  O337  1  0.91345874  0.41121060  0.45627453  1
  O  O338  1  0.92737315  0.41562014  0.78774601  1
  O  O339  1  0.91330767  0.91951906  0.12826442  1
  O  O340  1  0.90759543  0.91499192  0.46501238  1
  O  O341  1  0.91550278  0.91137067  0.80185683  1
  O  O342  1  0.41601137  0.41448447  0.28607731  1
  O  O343  1  0.43205730  0.41454100  0.62917561  1
  O  O344  1  0.40990543  0.40680017  0.96253853  1
  O  O345  1  0.41020843  0.90931142  0.29904740  1
  O  O346  1  0.40694112  0.91669994  0.63611935  1
  O  O347  1  0.40899466  0.92568850  0.98469814  1
  O  O348  1  0.91826980  0.41129378  0.29238258  1
  O  O349  1  0.92449702  0.41144910  0.62564521  1
  O  O350  1  0.93021823  0.41073671  0.95950312  1
  O  O351  1  0.91689842  0.91158351  0.29079788  1
  O  O352  1  0.91330151  0.91473384  0.62711376  1
  O  O353  1  0.90903306  0.90746525  0.96155070  1
  O  O354  1  0.08232573  0.08276727  0.20109739  1
  O  O355  1  0.08983871  0.08809326  0.54887355  1
  O  O356  1  0.08620034  0.08598343  0.87097771  1
  O  O357  1  0.08072780  0.57835989  0.20008650  1
  O  O358  1  0.07715908  0.59072358  0.52810810  1
  O  O359  1  0.08498141  0.58181349  0.86909526  1
  O  O360  1  0.59166826  0.09147227  0.20462245  1
  O  O361  1  0.58413242  0.09408912  0.53319145  1
  O  O362  1  0.58620125  0.08500542  0.87543007  1
  O  O363  1  0.59387744  0.58069921  0.20519040  1
  O  O364  1  0.59724694  0.56295507  0.53754742  1
  O  O365  1  0.59033273  0.56917589  0.86427609  1
  O  O366  1  0.13562037  0.21879214  0.05864239  1
  O  O367  1  0.14129141  0.23468846  0.39765509  1
  O  O368  1  0.14118052  0.21817642  0.72094720  1
  O  O369  1  0.13441469  0.72058481  0.05828370  1
  O  O370  1  0.13581245  0.73214147  0.39345180  1
  O  O371  1  0.13888385  0.72326703  0.72444694  1
  O  O372  1  0.63583807  0.22062891  0.06442216  1
  O  O373  1  0.63873116  0.22096909  0.38782622  1
  O  O374  1  0.63733391  0.21589799  0.72518880  1
  O  O375  1  0.64133144  0.73363085  0.06669509  1
  O  O376  1  0.63699841  0.71956088  0.39312221  1
  O  O377  1  0.63262167  0.69894929  0.71795141  1
  O  O378  1  0.27458735  0.36505248  0.10986436  1
  O  O379  1  0.28854989  0.36913721  0.43804083  1
  O  O380  1  0.27521383  0.35956073  0.77994609  1
  O  O381  1  0.26946276  0.85794893  0.10554476  1
  O  O382  1  0.28352992  0.85848993  0.44790268  1
  O  O383  1  0.27415570  0.86671216  0.77211671  1
  O  O384  1  0.78145916  0.36280062  0.11169839  1
  O  O385  1  0.78003353  0.36262571  0.44057361  1
  O  O386  1  0.79843612  0.36419350  0.78209105  1
  O  O387  1  0.77973835  0.86482657  0.10857232  1
  O  O388  1  0.77253774  0.86204935  0.43818601  1
  O  O389  1  0.78022873  0.85904694  0.77657768  1
  O  O390  1  0.36371469  0.28286364  0.27150795  1
  O  O391  1  0.36617019  0.28692759  0.61309971  1
  O  O392  1  0.36106545  0.27251037  0.94290145  1
  O  O393  1  0.35803906  0.77359461  0.26908034  1
  O  O394  1  0.35914209  0.78115603  0.61537695  1
  O  O395  1  0.36074593  0.78665410  0.94906627  1
  O  O396  1  0.86426103  0.27884232  0.27403392  1
  O  O397  1  0.86929550  0.28236862  0.61746046  1
  O  O398  1  0.86764414  0.28067452  0.94223657  1
  O  O399  1  0.86287628  0.77928068  0.27440606  1
  O  O400  1  0.85933660  0.78019148  0.60527301  1
  O  O401  1  0.85942787  0.77141993  0.93865514  1
  O  O402  1  0.21717414  0.13602371  0.22343867  1
  O  O403  1  0.22104086  0.14151556  0.56417498  1
  O  O404  1  0.21943120  0.13671096  0.88780415  1
  O  O405  1  0.21418127  0.63586910  0.22262022  1
  O  O406  1  0.21270327  0.64396134  0.55563423  1
  O  O407  1  0.21791955  0.64091826  0.89380312  1
  O  O408  1  0.72686634  0.14026996  0.22707640  1
  O  O409  1  0.72176022  0.13901239  0.55614007  1
  O  O410  1  0.71797083  0.13795431  0.89044109  1
  O  O411  1  0.72634266  0.64067916  0.23143041  1
  O  O412  1  0.72719106  0.62491691  0.55633649  1
  O  O413  1  0.72133386  0.63781557  0.89519320  1
  O  O414  1  0.49021112  0.32982854  0.03055698  1
  O  O415  1  0.49588962  0.33929425  0.35858268  1
  O  O416  1  0.49714757  0.33453712  0.70319414  1
  O  O417  1  0.48990997  0.84059662  0.03983554  1
  O  O418  1  0.48718759  0.82534411  0.36234851  1
  O  O419  1  0.49524202  0.83734629  0.69103684  1
  O  O420  1  0.99834900  0.32919582  0.02904374  1
  O  O421  1  0.99532326  0.33257910  0.36119253  1
  O  O422  1  1.00399721  0.33401113  0.69361426  1
  O  O423  1  0.98828514  0.82961726  0.02859745  1
  O  O424  1  0.99153662  0.83515358  0.36422249  1
  O  O425  1  0.98883142  0.83481189  0.69533910  1
  O  O426  1  0.16019306  0.00676708  0.13203525  1
  O  O427  1  0.16648532  0.00891429  0.47834889  1
  O  O428  1  0.16209296  0.00573102  0.80243375  1
  O  O429  1  0.16361772  0.50549813  0.13329499  1
  O  O430  1  0.16176966  0.51276125  0.46863407  1
  O  O431  1  0.16732835  0.51044924  0.80199319  1
  O  O432  1  0.66837232  0.01111143  0.13591859  1
  O  O433  1  0.65872053  0.01173138  0.46439248  1
  O  O434  1  0.66201966  0.00420092  0.80665256  1
  O  O435  1  0.67925907  0.51102507  0.13820666  1
  O  O436  1  0.67872733  0.49490552  0.46790841  1
  O  O437  1  0.68786315  0.50457554  0.81133760  1
  O  O438  1  0.01347534  0.17299166  0.30735625  1
  O  O439  1  0.00715454  0.16790647  0.63728907  1
  O  O440  1  0.00515259  0.16599543  0.96975980  1
  O  O441  1  0.00723040  0.67124618  0.30370770  1
  O  O442  1  0.00832706  0.66743174  0.63799864  1
  O  O443  1  0.00551236  0.66408196  0.96764409  1
  O  O444  1  0.50611858  0.17105285  0.30470596  1
  O  O445  1  0.50748116  0.17299823  0.63324942  1
  O  O446  1  0.50672295  0.16829356  0.97178010  1
  O  O447  1  0.51126742  0.66030645  0.29629345  1
  O  O448  1  0.50790620  0.63533762  0.62165293  1
  O  O449  1  0.51465869  0.66655685  0.97742457  1
  O  O450  1  0.33167473  0.49551754  0.19617459  1
  O  O451  1  0.32767147  0.50353609  0.52299149  1
  O  O452  1  0.33113940  0.49027970  0.86695169  1
  O  O453  1  0.32122663  0.98728892  0.19862115  1
  O  O454  1  0.33391183  0.99181485  0.53088279  1
  O  O455  1  0.32714775  0.99469701  0.86405137  1
  O  O456  1  0.83992778  0.49230775  0.20351846  1
  O  O457  1  0.84223031  0.49062731  0.53068433  1
  O  O458  1  0.85914585  0.49788853  0.86202428  1
  O  O459  1  0.83380178  0.99452756  0.19752478  1
  O  O460  1  0.82477045  0.99235715  0.52801457  1
  O  O461  1  0.83246289  0.99198217  0.86099915  1
