# generated using pymatgen
data_Na31Fe20(SO4)36
_symmetry_space_group_name_H-M   'P 1'
_cell_length_a   18.07765533
_cell_length_b   18.07909851
_cell_length_c   19.71733364
_cell_angle_alpha   107.58129861
_cell_angle_beta   107.58710297
_cell_angle_gamma   90.71809481
_symmetry_Int_Tables_number   1
_chemical_formula_structural   Na31Fe20(SO4)36
_chemical_formula_sum   'Na62 Fe40 S72 O288'
_cell_volume   5817.69074183
_cell_formula_units_Z   2
loop_
 _symmetry_equiv_pos_site_id
 _symmetry_equiv_pos_as_xyz
  1  'x, y, z'
loop_
 _atom_site_type_symbol
 _atom_site_label
 _atom_site_symmetry_multiplicity
 _atom_site_fract_x
 _atom_site_fract_y
 _atom_site_fract_z
 _atom_site_occupancy
  Na  Na0  1  0.13218286  0.37413306  0.08620387  1
  Na  Na1  1  0.13376596  0.36885285  0.41405544  1
  Na  Na2  1  0.13585317  0.36467542  0.74733893  1
  Na  Na3  1  0.16366821  0.84013998  0.09900941  1
  Na  Na4  1  0.13485347  0.85426883  0.40621011  1
  Na  Na5  1  0.14425494  0.85660474  0.75790657  1
  Na  Na6  1  0.62672748  0.36290158  0.07965547  1
  Na  Na7  1  0.62886685  0.37257445  0.41866578  1
  Na  Na8  1  0.64098916  0.37227205  0.75422240  1
  Na  Na9  1  0.62882243  0.86548441  0.08025564  1
  Na  Na10  1  0.63279784  0.86463096  0.41617321  1
  Na  Na11  1  0.62740698  0.85553476  0.73913801  1
  Na  Na12  1  0.35707875  0.13407574  0.24652750  1
  Na  Na13  1  0.36287570  0.12626700  0.58279413  1
  Na  Na14  1  0.37273406  0.13280722  0.92529772  1
  Na  Na15  1  0.36642929  0.63644911  0.24396865  1
  Na  Na16  1  0.36808219  0.64407479  0.58782135  1
  Na  Na17  1  0.32809501  0.64840578  0.89917868  1
  Na  Na18  1  0.86832150  0.12816641  0.24400429  1
  Na  Na19  1  0.86773067  0.13300162  0.58448227  1
  Na  Na20  1  0.86855960  0.13236883  0.92021729  1
  Na  Na21  1  0.87255723  0.63718102  0.25225854  1
  Na  Na22  1  0.86751691  0.63488163  0.58950408  1
  Na  Na23  1  0.86359517  0.63289395  0.91877147  1
  Na  Na24  1  1.02788634  -0.01141768  0.37633605  1
  Na  Na25  1  1.00633277  -0.01802562  0.77711951  1
  Na  Na26  1  0.99235994  0.51786485  0.40103310  1
  Na  Na27  1  0.46517089  0.00926320  0.76255735  1
  Na  Na28  1  0.49512634  0.51095191  0.75160067  1
  Na  Na29  1  1.00650861  0.57118350  0.12184332  1
  Na  Na30  1  0.99252989  0.51435193  0.74771868  1
  Na  Na31  1  0.43884178  -0.00201299  0.39881054  1
  Na  Na32  1  0.49442744  0.01737790  0.07033859  1
  Na  Na33  1  0.49694812  0.97652371  0.59132858  1
  Na  Na34  1  0.49334403  1.00056943  0.24996244  1
  Na  Na35  1  0.02168670  0.94365345  0.13325177  1
  Na  Na36  1  0.50514177  0.46508414  0.22893500  1
  Na  Na37  1  0.47747408  0.51457566  0.93818635  1
  Na  Na38  1  0.00698772  0.48868614  0.92009199  1
  Na  Na39  1  0.52098893  0.52029346  0.57725635  1
  Na  Na40  1  0.04551406  0.49272772  0.59074571  1
  Na  Na41  1  0.02368987  0.98742052  0.57873095  1
  Na  Na42  1  0.26066284  0.76690654  0.31231213  1
  Na  Na43  1  0.24299906  0.73753092  0.67997189  1
  Na  Na44  1  0.74716287  0.24931832  0.67007950  1
  Na  Na45  1  0.75535260  0.25666871  0.32606664  1
  Na  Na46  1  0.25314352  0.25671582  0.32862856  1
  Na  Na47  1  0.26663402  0.26255431  -0.00237903  1
  Na  Na48  1  0.25259169  0.25121850  0.66487580  1
  Na  Na49  1  0.75074484  0.75064605  0.33358928  1
  Na  Na50  1  0.76136556  0.75955235  -0.00297636  1
  Na  Na51  1  0.72864623  0.72514610  0.67014424  1
  Na  Na52  1  0.75706266  0.25871989  0.15390843  1
  Na  Na53  1  0.73529458  0.74027859  0.50662620  1
  Na  Na54  1  0.26131862  0.25891040  0.15754102  1
  Na  Na55  1  0.25733787  0.25278894  0.83134164  1
  Na  Na56  1  0.74178881  0.24176079  0.84895514  1
  Na  Na57  1  0.74850471  0.25326177  0.49853095  1
  Na  Na58  1  0.26161909  0.76428995  0.49683867  1
  Na  Na59  1  0.73987138  0.73368484  0.83403711  1
  Na  Na60  1  0.25319632  0.25323631  0.49694940  1
  Na  Na61  1  0.76939106  0.76332957  0.16172290  1
  Fe  Fe62  1  0.46595563  0.31264903  0.79158656  1
  Fe  Fe63  1  0.46907075  0.79770894  0.45300614  1
  Fe  Fe64  1  0.46605677  0.80553050  0.78558294  1
  Fe  Fe65  1  0.46166410  0.80944410  0.11826907  1
  Fe  Fe66  1  0.96641091  0.80496814  0.44993841  1
  Fe  Fe67  1  0.96702629  0.30338805  0.78530827  1
  Fe  Fe68  1  0.96580839  0.30576408  0.45146940  1
  Fe  Fe69  1  0.96479453  0.80532055  0.78876910  1
  Fe  Fe70  1  0.96521231  0.30888494  0.11852005  1
  Fe  Fe71  1  0.46326110  0.31424261  0.45863881  1
  Fe  Fe72  1  0.69001528  0.53489800  0.37893087  1
  Fe  Fe73  1  0.19317351  0.02833250  0.04771256  1
  Fe  Fe74  1  0.69253554  0.03474273  0.71574320  1
  Fe  Fe75  1  0.20683440  0.02443113  0.37362695  1
  Fe  Fe76  1  0.69180285  0.53282845  0.04800838  1
  Fe  Fe77  1  0.69053624  0.03559635  0.38065313  1
  Fe  Fe78  1  0.20454283  0.02836019  0.71113105  1
  Fe  Fe79  1  0.18617519  0.54076016  0.37392819  1
  Fe  Fe80  1  0.68908189  0.03668560  0.04346037  1
  Fe  Fe81  1  0.19069510  0.54401883  0.05136473  1
  Fe  Fe82  1  0.03360199  0.69378902  0.55158546  1
  Fe  Fe83  1  0.53372702  0.19515624  0.54773590  1
  Fe  Fe84  1  0.53570051  0.19736420  0.88593456  1
  Fe  Fe85  1  0.03470205  0.18623644  0.53980329  1
  Fe  Fe86  1  0.53468168  0.68669457  0.20809783  1
  Fe  Fe87  1  0.03745457  0.69330537  0.89078829  1
  Fe  Fe88  1  0.52855572  0.19973592  0.21158893  1
  Fe  Fe89  1  0.03699108  0.18631399  0.20734036  1
  Fe  Fe90  1  0.03853227  0.19193160  0.88218322  1
  Fe  Fe91  1  0.53535216  0.69258395  0.88280627  1
  Fe  Fe92  1  0.80575279  0.46409538  0.28371879  1
  Fe  Fe93  1  0.80223421  0.46797228  0.62243433  1
  Fe  Fe94  1  0.30243357  0.47024301  0.95447422  1
  Fe  Fe95  1  0.30898628  0.95566337  0.95301811  1
  Fe  Fe96  1  0.80853199  0.96546206  0.62063126  1
  Fe  Fe97  1  0.80478631  0.96804780  0.28629932  1
  Fe  Fe98  1  0.31319127  0.46969607  0.29066491  1
  Fe  Fe99  1  0.81042637  0.96264255  0.95516100  1
  Fe  Fe100  1  0.29847413  0.47179421  0.62341426  1
  Fe  Fe101  1  0.80833143  0.46745410  0.95528557  1
  S  S102  1  0.35725129  0.13597948  0.08363976  1
  S  S103  1  0.36001152  0.14673545  0.41968915  1
  S  S104  1  0.36286652  0.14410850  0.75165652  1
  S  S105  1  0.35960112  0.64154810  0.07878573  1
  S  S106  1  0.35601730  0.64222483  0.41652567  1
  S  S107  1  0.36084019  0.63850452  0.75215319  1
  S  S108  1  0.85919150  0.14094061  0.08175325  1
  S  S109  1  0.85694670  0.14258291  0.41546960  1
  S  S110  1  0.86180333  0.13861080  0.75119910  1
  S  S111  1  0.85296271  0.64099693  0.08607101  1
  S  S112  1  0.85895364  0.63953862  0.41735543  1
  S  S113  1  0.86277208  0.63918822  0.75021252  1
  S  S114  1  0.14036711  0.35865532  0.25037548  1
  S  S115  1  0.13898998  0.35462618  0.58052406  1
  S  S116  1  0.14058644  0.35720566  0.91639591  1
  S  S117  1  0.14517413  0.86452950  0.25895450  1
  S  S118  1  0.14021717  0.85834578  0.58631044  1
  S  S119  1  0.13720068  0.86054823  0.91595354  1
  S  S120  1  0.64300008  0.35790340  0.25077168  1
  S  S121  1  0.63933414  0.35939146  0.58523552  1
  S  S122  1  0.64150169  0.36076347  0.91657209  1
  S  S123  1  0.64014580  0.86002610  0.24915321  1
  S  S124  1  0.64237242  0.86145612  0.58224569  1
  S  S125  1  0.64092101  0.85946253  0.91696587  1
  S  S126  1  0.07298218  0.17265890  0.04429524  1
  S  S127  1  0.07240778  0.17223629  0.37452672  1
  S  S128  1  0.07170937  0.16663320  0.70635373  1
  S  S129  1  0.06262818  0.66297671  0.03955887  1
  S  S130  1  0.06363376  0.67304756  0.38096833  1
  S  S131  1  0.06285596  0.66825586  0.70945664  1
  S  S132  1  0.56698177  0.16843072  0.04394757  1
  S  S133  1  0.56491694  0.17273238  0.37574172  1
  S  S134  1  0.56830414  0.17178265  0.71046252  1
  S  S135  1  0.57096455  0.67213384  0.04530060  1
  S  S136  1  0.56670443  0.66739353  0.36953294  1
  S  S137  1  0.56048311  0.66291622  0.71209930  1
  S  S138  1  0.32506484  0.43584881  0.12113171  1
  S  S139  1  0.32834982  0.43645629  0.46190342  1
  S  S140  1  0.32946576  0.43229311  0.79139564  1
  S  S141  1  0.33965649  0.93724296  0.12678247  1
  S  S142  1  0.33683725  0.93555167  0.46568096  1
  S  S143  1  0.33132752  0.93115820  0.79353991  1
  S  S144  1  0.82818225  0.43043040  0.12497841  1
  S  S145  1  0.83397402  0.43262945  0.46006176  1
  S  S146  1  0.83593768  0.42948526  0.79250635  1
  S  S147  1  0.82118834  0.93477225  0.12039000  1
  S  S148  1  0.82920826  0.93471874  0.45908667  1
  S  S149  1  0.82387522  0.92806282  0.78752537  1
  S  S150  1  0.43129473  0.33064165  0.29328102  1
  S  S151  1  0.42972307  0.33241577  0.62711461  1
  S  S152  1  0.43360070  0.33355837  0.95850261  1
  S  S153  1  0.44141101  0.82724966  0.28826641  1
  S  S154  1  0.43728308  0.83376319  0.62785244  1
  S  S155  1  0.43487724  0.82933923  0.95699224  1
  S  S156  1  0.93144394  0.32770452  0.28919314  1
  S  S157  1  0.93176539  0.32705474  0.62257748  1
  S  S158  1  0.93402638  0.32788306  0.95520698  1
  S  S159  1  0.92572902  0.83708063  0.29558760  1
  S  S160  1  0.93159812  0.83381257  0.62529731  1
  S  S161  1  0.93006873  0.82584065  0.95543971  1
  S  S162  1  0.17163586  0.07032227  0.20997116  1
  S  S163  1  0.16950127  0.06675015  0.53783619  1
  S  S164  1  0.17570511  0.06977090  0.87585131  1
  S  S165  1  0.17693207  0.56906394  0.21731675  1
  S  S166  1  0.16627463  0.56616140  0.53830400  1
  S  S167  1  0.15498965  0.55743575  0.87264097  1
  S  S168  1  0.66545190  0.06884883  0.20893603  1
  S  S169  1  0.66941834  0.07113706  0.54295500  1
  S  S170  1  0.66755050  0.06620852  0.87202871  1
  S  S171  1  0.67176562  0.56456547  0.21069515  1
  S  S172  1  0.67475598  0.56632616  0.54083284  1
  S  S173  1  0.66813512  0.56456741  0.87795244  1
  O  O174  1  0.36055071  0.21201634  0.07230605  1
  O  O175  1  0.36542694  0.22959565  0.41898886  1
  O  O176  1  0.37005934  0.22559886  0.74734377  1
  O  O177  1  0.37295934  0.71955636  0.07177284  1
  O  O178  1  0.36559750  0.72297855  0.40992879  1
  O  O179  1  0.37261164  0.71603672  0.74071063  1
  O  O180  1  0.87037410  0.21946861  0.07423965  1
  O  O181  1  0.86676740  0.22280897  0.40977946  1
  O  O182  1  0.87113756  0.21660231  0.74067572  1
  O  O183  1  0.85575880  0.71675410  0.07420172  1
  O  O184  1  0.86890447  0.71814742  0.40910948  1
  O  O185  1  0.87245713  0.71536031  0.73523170  1
  O  O186  1  0.27963608  0.12196107  0.09394128  1
  O  O187  1  0.28062833  0.13198796  0.42557224  1
  O  O188  1  0.28140876  0.13269020  0.75439396  1
  O  O189  1  0.28287920  0.63376733  0.08994859  1
  O  O190  1  0.27247315  0.63316827  0.41669388  1
  O  O191  1  0.28438623  0.62969069  0.76010541  1
  O  O192  1  0.78117506  0.13325336  0.09237993  1
  O  O193  1  0.77756366  0.13352215  0.42302191  1
  O  O194  1  0.78302805  0.13115766  0.75992144  1
  O  O195  1  0.77332192  0.62680352  0.09394542  1
  O  O196  1  0.77845358  0.63056473  0.42136631  1
  O  O197  1  0.78558955  0.63202000  0.75820699  1
  O  O198  1  0.12705822  0.28130129  0.26115852  1
  O  O199  1  0.12985956  0.27258624  0.58275916  1
  O  O200  1  0.13436464  0.27742972  0.92400885  1
  O  O201  1  0.13059200  0.79476710  0.27860559  1
  O  O202  1  0.12669780  0.78179809  0.59888953  1
  O  O203  1  0.12630398  0.78166905  0.92137979  1
  O  O204  1  0.63060286  0.27829246  0.25704541  1
  O  O205  1  0.63024884  0.27674046  0.58799509  1
  O  O206  1  0.63306421  0.28053589  0.92144146  1
  O  O207  1  0.63365735  0.78110917  0.25700499  1
  O  O208  1  0.64157806  0.78600170  0.59470052  1
  O  O209  1  0.63257264  0.78077350  0.92687129  1
  O  O210  1  0.22064568  0.36333742  0.24432864  1
  O  O211  1  0.21872795  0.36541183  0.57457642  1
  O  O212  1  0.22077382  0.36805860  0.91106605  1
  O  O213  1  0.22810442  0.87890754  0.26685402  1
  O  O214  1  0.21538340  0.86450630  0.57545313  1
  O  O215  1  0.21309185  0.87041521  0.90270307  1
  O  O216  1  0.72611828  0.36380852  0.24967960  1
  O  O217  1  0.71845668  0.36665058  0.57577259  1
  O  O218  1  0.72074823  0.37172929  0.90919517  1
  O  O219  1  0.71832475  0.87140296  0.23989191  1
  O  O220  1  0.71957712  0.87735820  0.57117903  1
  O  O221  1  0.72197046  0.86727818  0.91213943  1
  O  O222  1  0.41793699  0.13291496  0.15363999  1
  O  O223  1  0.41840612  0.13827924  0.48878007  1
  O  O224  1  0.41868120  0.13813571  0.82325704  1
  O  O225  1  0.42019420  0.62862391  0.14358581  1
  O  O226  1  0.40890515  0.63407811  0.48489075  1
  O  O227  1  0.42269875  0.63023486  0.81979305  1
  O  O228  1  0.91932559  0.13242190  0.14915142  1
  O  O229  1  0.91542186  0.13434399  0.48348158  1
  O  O230  1  0.92165696  0.13156916  0.81902302  1
  O  O231  1  0.91133615  0.63563812  0.15378919  1
  O  O232  1  0.91547553  0.63173041  0.48662000  1
  O  O233  1  0.92410340  0.63270821  0.81798375  1
  O  O234  1  0.36932230  0.07389558  0.01886991  1
  O  O235  1  0.37255741  0.09366562  0.35285621  1
  O  O236  1  0.37712864  0.08783238  0.68778856  1
  O  O237  1  0.36334193  0.58257680  0.00742888  1
  O  O238  1  0.36608901  0.58602944  0.34766357  1
  O  O239  1  0.37080534  0.57787659  0.68444015  1
  O  O240  1  0.86342437  0.08080500  0.01282767  1
  O  O241  1  0.86395707  0.08565050  0.34648721  1
  O  O242  1  0.86882460  0.07879979  0.68326801  1
  O  O243  1  0.86314818  0.57922637  0.01848340  1
  O  O244  1  0.87004822  0.57944588  0.35091894  1
  O  O245  1  0.87305423  0.57667093  0.68411716  1
  O  O246  1  0.08279224  0.36449252  0.18080685  1
  O  O247  1  0.08111008  0.36393100  0.51128733  1
  O  O248  1  0.08289120  0.36089416  0.84555237  1
  O  O249  1  0.09487422  0.86511541  0.18520875  1
  O  O250  1  0.07685939  0.86783203  0.52004292  1
  O  O251  1  0.07548918  0.87266167  0.85006039  1
  O  O252  1  0.58881685  0.36946997  0.18423940  1
  O  O253  1  0.58060950  0.36693218  0.51600446  1
  O  O254  1  0.58314187  0.36917351  0.84824714  1
  O  O255  1  0.57969407  0.86943767  0.18284319  1
  O  O256  1  0.58148892  0.86476951  0.51295583  1
  O  O257  1  0.58505945  0.86506374  0.84702136  1
  O  O258  1  0.13339317  0.42031945  0.31716122  1
  O  O259  1  0.12771409  0.40991164  0.64674876  1
  O  O260  1  0.12749468  0.41539920  0.98142742  1
  O  O261  1  0.12534848  0.93347533  0.31976274  1
  O  O262  1  0.13303829  0.92036209  0.65455303  1
  O  O263  1  0.13368312  0.91860985  0.98642430  1
  O  O264  1  0.63538219  0.41600889  0.31995625  1
  O  O265  1  0.63174364  0.41497913  0.65239262  1
  O  O266  1  0.63219621  0.41789114  0.98469072  1
  O  O267  1  0.63408316  0.91905109  0.31865899  1
  O  O268  1  0.63074750  0.92373051  0.64736096  1
  O  O269  1  0.63094388  0.91885586  0.98339976  1
  O  O270  1  0.03282704  0.20276580  0.10317596  1
  O  O271  1  0.02919953  0.19795909  0.43164570  1
  O  O272  1  0.03317608  0.19504120  0.76592659  1
  O  O273  1  0.03613618  0.68881091  0.10408907  1
  O  O274  1  0.02898549  0.70086397  0.44616552  1
  O  O275  1  0.03187000  0.70584478  0.77298327  1
  O  O276  1  0.52876677  0.18652620  0.10228160  1
  O  O277  1  0.52778397  0.20091519  0.43627538  1
  O  O278  1  0.53259927  0.20034253  0.77170014  1
  O  O279  1  0.53549448  0.70421760  0.10646100  1
  O  O280  1  0.53109964  0.69677712  0.42895708  1
  O  O281  1  0.53113370  0.70399027  0.77801679  1
  O  O282  1  0.28848988  0.47396975  0.06150019  1
  O  O283  1  0.30253597  0.47097415  0.39977623  1
  O  O284  1  0.30234824  0.46044350  0.72678644  1
  O  O285  1  0.29873970  0.96188981  0.05814420  1
  O  O286  1  0.31090101  0.97733205  0.40787851  1
  O  O287  1  0.30738952  0.97371970  0.73805598  1
  O  O288  1  0.79709531  0.46545362  0.06314783  1
  O  O289  1  0.80542868  0.46880465  0.39894204  1
  O  O290  1  0.81217421  0.46197838  0.73057509  1
  O  O291  1  0.78876394  0.97502234  0.06133771  1
  O  O292  1  0.79938730  0.97295224  0.39928468  1
  O  O293  1  0.79512930  0.96738377  0.72773993  1
  O  O294  1  0.47014752  0.30216835  0.23585781  1
  O  O295  1  0.46888217  0.30413289  0.56790648  1
  O  O296  1  0.46984041  0.30206317  0.89526305  1
  O  O297  1  0.47617312  0.79036397  0.22596403  1
  O  O298  1  0.47097967  0.81086759  0.56565291  1
  O  O299  1  0.47254307  0.79979726  0.89652369  1
  O  O300  1  0.96712197  0.30113043  0.22811013  1
  O  O301  1  0.96852286  0.29850385  0.56161665  1
  O  O302  1  0.97388025  0.29789030  0.89593943  1
  O  O303  1  0.95162660  0.81445676  0.23123831  1
  O  O304  1  0.96583068  0.80122247  0.56351944  1
  O  O305  1  0.96372881  0.79334436  0.89158701  1
  O  O306  1  0.20155957  0.04457795  0.27632128  1
  O  O307  1  0.18675703  0.03205575  0.59854976  1
  O  O308  1  0.20193663  0.03455482  0.93726233  1
  O  O309  1  0.20984644  0.52212214  0.27071332  1
  O  O310  1  0.19166518  0.52617351  0.59558451  1
  O  O311  1  0.19378589  0.52859639  0.93935698  1
  O  O312  1  0.69590913  0.03193207  0.26993845  1
  O  O313  1  0.70045701  0.03779947  0.60576673  1
  O  O314  1  0.69700555  0.03045550  0.93332143  1
  O  O315  1  0.70187638  0.52552710  0.27080863  1
  O  O316  1  0.70585521  0.52809678  0.59917600  1
  O  O317  1  0.70143979  0.53279045  0.94293197  1
  O  O318  1  0.09596959  0.09508040  0.04425896  1
  O  O319  1  0.09915369  0.09521012  0.37417026  1
  O  O320  1  0.09331349  0.08670060  0.70237660  1
  O  O321  1  0.08004399  0.57735763  0.02974560  1
  O  O322  1  0.08175949  0.59084928  0.37630943  1
  O  O323  1  0.06859453  0.58557015  0.70355100  1
  O  O324  1  0.58618419  0.08524999  0.03105202  1
  O  O325  1  0.58363242  0.09063041  0.36938304  1
  O  O326  1  0.58524594  0.08919715  0.70199222  1
  O  O327  1  0.58826241  0.59091116  0.04234970  1
  O  O328  1  0.58540007  0.58545756  0.36216437  1
  O  O329  1  0.57531531  0.58356571  0.71476705  1
  O  O330  1  0.40196763  0.41612986  0.11825226  1
  O  O331  1  0.41157647  0.42012600  0.47414108  1
  O  O332  1  0.41506116  0.42059241  0.80617977  1
  O  O333  1  0.42113158  0.91967976  0.12285890  1
  O  O334  1  0.41474427  0.90823396  0.46005192  1
  O  O335  1  0.41252641  0.91111722  0.79859470  1
  O  O336  1  0.90709903  0.40840664  0.12564438  1
  O  O337  1  0.91656479  0.41519789  0.46626974  1
  O  O338  1  0.91969378  0.41089997  0.80325581  1
  O  O339  1  0.89713296  0.91300045  0.11814285  1
  O  O340  1  0.91055857  0.91598160  0.46642694  1
  O  O341  1  0.90444833  0.90924057  0.78999728  1
  O  O342  1  0.41114695  0.41086735  0.29400547  1
  O  O343  1  0.40797191  0.41218118  0.63077613  1
  O  O344  1  0.40657906  0.41075369  0.95434967  1
  O  O345  1  0.43424160  0.90897074  0.28998074  1
  O  O346  1  0.42845233  0.91794428  0.64704780  1
  O  O347  1  0.42069744  0.91245826  0.96469661  1
  O  O348  1  0.91096678  0.40900008  0.29751281  1
  O  O349  1  0.91309180  0.40836581  0.62948575  1
  O  O350  1  0.91475563  0.40820718  0.95733384  1
  O  O351  1  0.90558572  0.92106477  0.31137083  1
  O  O352  1  0.91848719  0.91734210  0.63095286  1
  O  O353  1  0.90512433  0.90392450  0.95329528  1
  O  O354  1  0.08682837  0.08229958  0.19684950  1
  O  O355  1  0.08363154  0.08005039  0.51820169  1
  O  O356  1  0.09338253  0.08926826  0.86772277  1
  O  O357  1  0.10320392  0.59082876  0.22793149  1
  O  O358  1  0.08263302  0.58255918  0.53221502  1
  O  O359  1  0.07362098  0.57594611  0.87499626  1
  O  O360  1  0.58451115  0.08799939  0.20644733  1
  O  O361  1  0.58810904  0.08920685  0.53758675  1
  O  O362  1  0.58777087  0.08950126  0.86823513  1
  O  O363  1  0.59082365  0.58139132  0.20689341  1
  O  O364  1  0.59708930  0.58728175  0.53894656  1
  O  O365  1  0.58704683  0.58469843  0.87727764  1
  O  O366  1  0.14058521  0.22939534  0.05967212  1
  O  O367  1  0.13942092  0.23113142  0.39384244  1
  O  O368  1  0.14050343  0.22237323  0.72248288  1
  O  O369  1  0.13212685  0.70839605  0.04256372  1
  O  O370  1  0.13618407  0.72424746  0.40173242  1
  O  O371  1  0.13619603  0.71273822  0.71988907  1
  O  O372  1  0.63706325  0.22263401  0.06355451  1
  O  O373  1  0.63619670  0.22535174  0.39291182  1
  O  O374  1  0.64092662  0.22323541  0.72798379  1
  O  O375  1  0.64119479  0.72412098  0.05915948  1
  O  O376  1  0.63930355  0.71917706  0.38540989  1
  O  O377  1  0.63362604  0.71201469  0.72485438  1
  O  O378  1  0.27052899  0.36563714  0.10606457  1
  O  O379  1  0.27631644  0.36351840  0.44244599  1
  O  O380  1  0.28144735  0.35828087  0.77716441  1
  O  O381  1  0.29556941  0.86797640  0.12361513  1
  O  O382  1  0.27940977  0.86759299  0.44638843  1
  O  O383  1  0.27723710  0.86064216  0.77327855  1
  O  O384  1  0.77353724  0.36339657  0.11369504  1
  O  O385  1  0.78204807  0.36031081  0.44234893  1
  O  O386  1  0.78428583  0.35811296  0.77782148  1
  O  O387  1  0.76464448  0.86610144  0.10375397  1
  O  O388  1  0.77614384  0.86381614  0.44174448  1
  O  O389  1  0.77105416  0.85699059  0.76961462  1
  O  O390  1  0.35985099  0.27760271  0.27679166  1
  O  O391  1  0.36075599  0.27638238  0.60982971  1
  O  O392  1  0.36428497  0.27717803  0.94117083  1
  O  O393  1  0.36793014  0.78055334  0.27295053  1
  O  O394  1  0.36312114  0.78420450  0.60887297  1
  O  O395  1  0.36272573  0.78088753  0.94026594  1
  O  O396  1  0.86153842  0.27294226  0.27239432  1
  O  O397  1  0.86094404  0.27351787  0.60561519  1
  O  O398  1  0.86440992  0.27386633  0.93741298  1
  O  O399  1  0.85632934  0.78533041  0.28800231  1
  O  O400  1  0.85872143  0.78560655  0.61070338  1
  O  O401  1  0.85983982  0.77128666  0.93988752  1
  O  O402  1  0.21808321  0.14418115  0.22169546  1
  O  O403  1  0.22059517  0.14050251  0.55954486  1
  O  O404  1  0.22870558  0.14043791  0.89173766  1
  O  O405  1  0.23406001  0.63550105  0.23297430  1
  O  O406  1  0.21715657  0.63892273  0.55779523  1
  O  O407  1  0.20026451  0.62786200  0.87977563  1
  O  O408  1  0.71912007  0.13850943  0.22437036  1
  O  O409  1  0.72209255  0.14181351  0.55707451  1
  O  O410  1  0.72295296  0.13300708  0.88412945  1
  O  O411  1  0.72442151  0.63594998  0.22981033  1
  O  O412  1  0.73022753  0.63640842  0.55630792  1
  O  O413  1  0.71920738  0.63653193  0.89248514  1
  O  O414  1  0.49342966  0.34097662  0.02877263  1
  O  O415  1  0.48720057  0.33635623  0.36888588  1
  O  O416  1  0.48896104  0.33723597  0.70076443  1
  O  O417  1  0.49471233  0.82903233  0.02886956  1
  O  O418  1  0.49791655  0.82706966  0.36183443  1
  O  O419  1  0.49487194  0.82207567  0.69657941  1
  O  O420  1  0.99239274  0.33149464  0.02852659  1
  O  O421  1  0.99124550  0.32965936  0.36146157  1
  O  O422  1  0.99117814  0.32728683  0.69449361  1
  O  O423  1  0.99148346  0.83357809  0.02555641  1
  O  O424  1  0.99033067  0.84074617  0.36780331  1
  O  O425  1  0.99105567  0.83706007  0.69854984  1
  O  O426  1  0.17592387  0.00743789  0.14238728  1
  O  O427  1  0.17851429  0.01001001  0.46835538  1
  O  O428  1  0.17243115  0.00964607  0.80339450  1
  O  O429  1  0.16427395  0.51377894  0.13908743  1
  O  O430  1  0.16340460  0.51038126  0.46350582  1
  O  O431  1  0.14421234  0.49253550  0.80347857  1
  O  O432  1  0.65983160  0.00975679  0.13533414  1
  O  O433  1  0.66757886  0.01077890  0.47102592  1
  O  O434  1  0.66059117  0.00405542  0.79893180  1
  O  O435  1  0.67081007  0.50619649  0.13867025  1
  O  O436  1  0.67247959  0.50805618  0.46630107  1
  O  O437  1  0.66336542  0.50338457  0.80874729  1
  O  O438  1  0.01383170  0.16663491  0.30059835  1
  O  O439  1  0.01234558  0.16137333  0.63215246  1
  O  O440  1  0.01306884  0.16674742  0.97051859  1
  O  O441  1  0.00353687  0.67392884  0.31344903  1
  O  O442  1  0.00281186  0.67081067  0.63720975  1
  O  O443  1  -0.00226312  0.65826250  0.96789833  1
  O  O444  1  0.50619931  0.17055318  0.30321402  1
  O  O445  1  0.50950798  0.17243623  0.63881908  1
  O  O446  1  0.50875323  0.17096201  0.97228876  1
  O  O447  1  0.50861234  0.66445711  0.29549886  1
  O  O448  1  0.50091223  0.65758869  0.64090251  1
  O  O449  1  0.51004699  0.66635762  0.97243811  1
  O  O450  1  0.33077369  0.49353091  0.19582697  1
  O  O451  1  0.32436806  0.49441971  0.53248454  1
  O  O452  1  0.32416486  0.49283673  0.86038426  1
  O  O453  1  0.35223583  1.00435964  0.19484132  1
  O  O454  1  0.35149354  0.99199421  0.54056823  1
  O  O455  1  0.33391673  0.98720507  0.86851892  1
  O  O456  1  0.83543925  0.49237222  0.19818691  1
  O  O457  1  0.83491835  0.49022878  0.53245290  1
  O  O458  1  0.83614423  0.48981881  0.86405799  1
  O  O459  1  0.82519144  0.99292656  0.19454998  1
  O  O460  1  0.83060567  0.99427448  0.53152444  1
  O  O461  1  0.82611240  0.98695568  0.85975245  1
