# generated using pymatgen
data_Na31Fe20(SO4)36
_symmetry_space_group_name_H-M   'P 1'
_cell_length_a   18.07802818
_cell_length_b   18.07609569
_cell_length_c   19.70743998
_cell_angle_alpha   107.57956178
_cell_angle_beta   107.57812521
_cell_angle_gamma   90.72740706
_symmetry_Int_Tables_number   1
_chemical_formula_structural   Na31Fe20(SO4)36
_chemical_formula_sum   'Na62 Fe40 S72 O288'
_cell_volume   5814.19426607
_cell_formula_units_Z   2
loop_
 _symmetry_equiv_pos_site_id
 _symmetry_equiv_pos_as_xyz
  1  'x, y, z'
loop_
 _atom_site_type_symbol
 _atom_site_label
 _atom_site_symmetry_multiplicity
 _atom_site_fract_x
 _atom_site_fract_y
 _atom_site_fract_z
 _atom_site_occupancy
  Na  Na0  1  0.15383278  0.35667286  0.10749786  1
  Na  Na1  1  0.12159896  0.35139272  0.39474916  1
  Na  Na2  1  0.13356240  0.37462344  0.74983387  1
  Na  Na3  1  0.13561686  0.86838389  0.08394612  1
  Na  Na4  1  0.13725702  0.86588953  0.41586179  1
  Na  Na5  1  0.13542086  0.86004599  0.74447069  1
  Na  Na6  1  0.63272172  0.37680178  0.08842069  1
  Na  Na7  1  0.63338517  0.37892450  0.41843344  1
  Na  Na8  1  0.62443101  0.35685857  0.73282494  1
  Na  Na9  1  0.62641526  0.85846814  0.08046261  1
  Na  Na10  1  0.64263227  0.87079560  0.43142168  1
  Na  Na11  1  0.64426690  0.86538312  0.75747529  1
  Na  Na12  1  0.36699704  0.13981632  0.24745818  1
  Na  Na13  1  0.36903406  0.13711531  0.58132149  1
  Na  Na14  1  0.36888165  0.13172552  0.91688575  1
  Na  Na15  1  0.36928348  0.62365694  0.24793311  1
  Na  Na16  1  0.36637470  0.62758628  0.58537296  1
  Na  Na17  1  0.36134576  0.63078603  0.90868119  1
  Na  Na18  1  0.86494440  0.14508321  0.26108610  1
  Na  Na19  1  0.84851010  0.12847631  0.57756836  1
  Na  Na20  1  0.87342649  0.14793514  0.93758980  1
  Na  Na21  1  0.87080216  0.63370056  0.25248162  1
  Na  Na22  1  0.86693786  0.63493951  0.58182315  1
  Na  Na23  1  0.85831729  0.63666880  0.91029202  1
  Na  Na24  1  0.97862046  0.50444401  0.42821542  1
  Na  Na25  1  0.48966078  0.05009231  0.42394750  1
  Na  Na26  1  0.49296638  -0.00060299  0.06976270  1
  Na  Na27  1  0.99893309  0.09005851  0.14293036  1
  Na  Na28  1  1.01392267  0.47380792  0.09355722  1
  Na  Na29  1  0.99074469  0.01013480  0.40495700  1
  Na  Na30  1  0.49205035  0.51876618  0.73434382  1
  Na  Na31  1  0.49668361  -0.00085724  0.76355398  1
  Na  Na32  1  0.95174916  0.00536969  0.74107701  1
  Na  Na33  1  0.49791423  0.48677757  0.92951626  1
  Na  Na34  1  -0.01110378  1.00209654  0.58364714  1
  Na  Na35  1  0.51538861  0.99609685  0.58300404  1
  Na  Na36  1  -0.00760962  0.44215801  0.23913727  1
  Na  Na37  1  0.00606850  0.98179933  0.92459492  1
  Na  Na38  1  0.52259566  0.48636106  0.27700911  1
  Na  Na39  1  0.50976462  0.96247183  0.23980276  1
  Na  Na40  1  0.01698388  0.48398733  0.61607726  1
  Na  Na41  1  0.01240511  0.49617710  0.90853874  1
  Na  Na42  1  0.25175148  0.74897545  0.33343090  1
  Na  Na43  1  0.74156493  0.74378491  0.67800265  1
  Na  Na44  1  0.74455738  0.25202389  0.00748424  1
  Na  Na45  1  0.74031965  0.73827161  0.34287194  1
  Na  Na46  1  0.25643264  0.25797569  0.65979616  1
  Na  Na47  1  0.26384083  0.75620957  -0.00759043  1
  Na  Na48  1  0.73985650  0.24459507  0.66441671  1
  Na  Na49  1  0.75624251  0.75841237  -0.01155490  1
  Na  Na50  1  0.25440104  0.26967427  0.30284990  1
  Na  Na51  1  0.24350473  0.24180516  0.01142054  1
  Na  Na52  1  0.74987346  0.24960470  0.83541037  1
  Na  Na53  1  0.24711415  0.73989405  0.51307107  1
  Na  Na54  1  0.74927961  0.25947438  0.48714763  1
  Na  Na55  1  0.25126834  0.25861131  0.48530054  1
  Na  Na56  1  0.74509187  0.74651661  0.16822380  1
  Na  Na57  1  0.26635644  0.75645819  0.16044352  1
  Na  Na58  1  0.24803358  0.25026415  0.83332666  1
  Na  Na59  1  0.74471688  0.74157053  0.50826405  1
  Na  Na60  1  0.74159184  0.24140046  0.18036347  1
  Na  Na61  1  0.25732693  0.75043390  0.81554497  1
  Fe  Fe62  1  0.96904629  0.80746508  0.45170022  1
  Fe  Fe63  1  0.46355026  0.80882855  0.78400030  1
  Fe  Fe64  1  0.96399306  0.80428696  0.78265226  1
  Fe  Fe65  1  0.96395957  0.30757413  0.78587546  1
  Fe  Fe66  1  0.46663766  0.30443115  0.45262604  1
  Fe  Fe67  1  0.46312195  0.30833419  0.12134706  1
  Fe  Fe68  1  0.46238217  0.80882916  0.45442416  1
  Fe  Fe69  1  0.96211505  0.30452609  0.44965732  1
  Fe  Fe70  1  0.96819524  0.81197595  0.12004009  1
  Fe  Fe71  1  0.46876167  0.30159388  0.78326817  1
  Fe  Fe72  1  0.19225524  0.03375795  0.71236488  1
  Fe  Fe73  1  0.18492195  0.03794233  0.37375040  1
  Fe  Fe74  1  0.68903268  0.03219941  0.04626132  1
  Fe  Fe75  1  0.68878586  0.53965633  0.71114907  1
  Fe  Fe76  1  0.69064589  0.54017452  0.04514907  1
  Fe  Fe77  1  0.69182924  0.03259308  0.38325194  1
  Fe  Fe78  1  0.70172172  0.02893696  0.71048277  1
  Fe  Fe79  1  0.19414802  0.03677319  0.05161284  1
  Fe  Fe80  1  0.19807325  0.53076528  0.05184260  1
  Fe  Fe81  1  0.19922138  0.52693625  0.37428232  1
  Fe  Fe82  1  0.03593852  0.69173702  0.21148283  1
  Fe  Fe83  1  0.53259323  0.68590952  0.54167701  1
  Fe  Fe84  1  0.04138548  0.69137928  0.55092990  1
  Fe  Fe85  1  0.03364172  0.19387444  0.88309756  1
  Fe  Fe86  1  0.53914966  0.19057275  0.21437829  1
  Fe  Fe87  1  0.53552995  0.69636512  0.88193444  1
  Fe  Fe88  1  0.52970915  0.69867602  0.20982652  1
  Fe  Fe89  1  0.53759498  0.19119635  0.88100672  1
  Fe  Fe90  1  0.03867833  0.68590072  0.87698621  1
  Fe  Fe91  1  0.03245114  0.19092588  0.54668556  1
  Fe  Fe92  1  0.30978805  0.46633879  0.95594615  1
  Fe  Fe93  1  0.80612365  0.96324344  0.28508975  1
  Fe  Fe94  1  0.30735039  0.96428651  0.61690194  1
  Fe  Fe95  1  0.29790558  0.46605969  0.62256151  1
  Fe  Fe96  1  0.80596669  0.46798498  0.62056960  1
  Fe  Fe97  1  0.79673349  0.47183776  0.29052971  1
  Fe  Fe98  1  0.81052484  0.96380508  0.95752822  1
  Fe  Fe99  1  0.31273224  0.96561173  0.28588193  1
  Fe  Fe100  1  0.30346374  0.96393387  0.94744424  1
  Fe  Fe101  1  0.81124157  0.46646046  0.95566216  1
  S  S102  1  0.36180482  0.13686474  0.07966311  1
  S  S103  1  0.35430512  0.14301381  0.41383921  1
  S  S104  1  0.35966629  0.13755468  0.74929420  1
  S  S105  1  0.35898520  0.64089785  0.08403286  1
  S  S106  1  0.35790012  0.64430415  0.41954646  1
  S  S107  1  0.36424041  0.63769905  0.75031612  1
  S  S108  1  0.84730213  0.14289970  0.08271246  1
  S  S109  1  0.85789622  0.13779463  0.41942384  1
  S  S110  1  0.85917204  0.14457847  0.75033510  1
  S  S111  1  0.86000172  0.64488303  0.08101862  1
  S  S112  1  0.86467438  0.64346662  0.41710382  1
  S  S113  1  0.86066930  0.64009941  0.75225260  1
  S  S114  1  0.13447010  0.36273020  0.24860342  1
  S  S115  1  0.13635193  0.35422964  0.58126326  1
  S  S116  1  0.13997937  0.35988208  0.91645357  1
  S  S117  1  0.14431050  0.85787002  0.24963633  1
  S  S118  1  0.14160853  0.85953003  0.58102374  1
  S  S119  1  0.13920820  0.85807137  0.91601296  1
  S  S120  1  0.63908337  0.35702538  0.24522455  1
  S  S121  1  0.63941495  0.36296869  0.58422841  1
  S  S122  1  0.64071242  0.35999700  0.91550170  1
  S  S123  1  0.64383229  0.85809343  0.25236452  1
  S  S124  1  0.63873620  0.85724722  0.58491555  1
  S  S125  1  0.63881112  0.86254475  0.91650247  1
  S  S126  1  0.07002668  0.16361782  0.03820751  1
  S  S127  1  0.05913208  0.16561941  0.37539544  1
  S  S128  1  0.06568264  0.16812796  0.70901670  1
  S  S129  1  0.07057050  0.66892543  0.04328027  1
  S  S130  1  0.07673974  0.67170111  0.37604465  1
  S  S131  1  0.06642353  0.66923377  0.71161280  1
  S  S132  1  0.56656202  0.16963984  0.04229207  1
  S  S133  1  0.56481569  0.16527148  0.37105833  1
  S  S134  1  0.56573307  0.16206419  0.70904019  1
  S  S135  1  0.56620874  0.66966468  0.03953679  1
  S  S136  1  0.56423275  0.67637566  0.37734220  1
  S  S137  1  0.56883409  0.67603056  0.71082472  1
  S  S138  1  0.33385925  0.43161044  0.12250814  1
  S  S139  1  0.32176901  0.42644239  0.45531175  1
  S  S140  1  0.33429690  0.42689240  0.79351346  1
  S  S141  1  0.33265679  0.93777958  0.12101475  1
  S  S142  1  0.32999197  0.93662037  0.45758552  1
  S  S143  1  0.32797740  0.93268257  0.78775822  1
  S  S144  1  0.82628659  0.44109458  0.12117202  1
  S  S145  1  0.83688130  0.43554772  0.46565455  1
  S  S146  1  0.82685743  0.43157075  0.79097771  1
  S  S147  1  0.82532946  0.92862195  0.12335147  1
  S  S148  1  0.83657584  0.93394142  0.45621309  1
  S  S149  1  0.83521908  0.93558210  0.79681650  1
  S  S150  1  0.43899821  0.32682546  0.28852226  1
  S  S151  1  0.42585149  0.33025953  0.62240151  1
  S  S152  1  0.43299813  0.32408035  0.95431855  1
  S  S153  1  0.43716793  0.83599428  0.29738305  1
  S  S154  1  0.43456314  0.83724750  0.62709981  1
  S  S155  1  0.43160926  0.83097129  0.95308602  1
  S  S156  1  0.92048913  0.33598608  0.29334809  1
  S  S157  1  0.92855456  0.32559814  0.62256866  1
  S  S158  1  0.93803657  0.33443028  0.95699799  1
  S  S159  1  0.93523708  0.82927326  0.28833561  1
  S  S160  1  0.94047132  0.83098164  0.62248105  1
  S  S161  1  0.93462428  0.82903611  0.95792177  1
  S  S162  1  0.17807809  0.06608701  0.21642004  1
  S  S163  1  0.16731933  0.06576257  0.54104907  1
  S  S164  1  0.16677047  0.06514488  0.87191855  1
  S  S165  1  0.16958486  0.56949022  0.21017555  1
  S  S166  1  0.17195333  0.56599854  0.53741024  1
  S  S167  1  0.17260254  0.56421868  0.87996622  1
  S  S168  1  0.66783588  0.06094548  0.20648584  1
  S  S169  1  0.66680869  0.06266553  0.54384164  1
  S  S170  1  0.67585209  0.06798855  0.87583153  1
  S  S171  1  0.67144674  0.57465813  0.20867344  1
  S  S172  1  0.67541979  0.57214237  0.54590305  1
  S  S173  1  0.66729709  0.56678122  0.87418640  1
  O  O174  1  0.37170065  0.21426411  0.06880866  1
  O  O175  1  0.36274015  0.22237561  0.40642895  1
  O  O176  1  0.36937419  0.21698486  0.74271573  1
  O  O177  1  0.36185001  0.71909992  0.07720528  1
  O  O178  1  0.36172245  0.72842759  0.42086997  1
  O  O179  1  0.37484255  0.71507852  0.73952039  1
  O  O180  1  0.85746779  0.21290901  0.06262386  1
  O  O181  1  0.86638041  0.21735307  0.41431330  1
  O  O182  1  0.86521617  0.22554067  0.74473070  1
  O  O183  1  0.87172963  0.72337181  0.07260933  1
  O  O184  1  0.88028409  0.71995387  0.40445100  1
  O  O185  1  0.86752829  0.71847625  0.74142927  1
  O  O186  1  0.28301685  0.12980210  0.08722121  1
  O  O187  1  0.27235861  0.13146343  0.41588285  1
  O  O188  1  0.28134598  0.12974336  0.75950709  1
  O  O189  1  0.28185731  0.62533433  0.09570645  1
  O  O190  1  0.27698283  0.62851295  0.42481014  1
  O  O191  1  0.29141977  0.62939844  0.76583382  1
  O  O192  1  0.76264517  0.13093207  0.07953801  1
  O  O193  1  0.77965611  0.12719925  0.42866000  1
  O  O194  1  0.77921325  0.13333135  0.75590308  1
  O  O195  1  0.78010707  0.63798252  0.08721356  1
  O  O196  1  0.78824751  0.64246840  0.42748390  1
  O  O197  1  0.78261107  0.62982273  0.76110158  1
  O  O198  1  0.12026361  0.29262412  0.26768734  1
  O  O199  1  0.12841114  0.27448991  0.59026395  1
  O  O200  1  0.13076460  0.27915729  0.92099393  1
  O  O201  1  0.13265896  0.77975317  0.25903371  1
  O  O202  1  0.13499996  0.78074924  0.58836977  1
  O  O203  1  0.13063646  0.77965741  0.92512622  1
  O  O204  1  0.63535260  0.27369125  0.24367195  1
  O  O205  1  0.63295860  0.29054927  0.60158552  1
  O  O206  1  0.63271829  0.28132716  0.92491334  1
  O  O207  1  0.63349545  0.77816742  0.25809616  1
  O  O208  1  0.62429935  0.77816572  0.59206367  1
  O  O209  1  0.62926571  0.78383780  0.92569359  1
  O  O210  1  0.21291115  0.36984871  0.24231945  1
  O  O211  1  0.21807342  0.36323125  0.57895153  1
  O  O212  1  0.21832143  0.36895636  0.90761038  1
  O  O213  1  0.22364909  0.86404383  0.24149990  1
  O  O214  1  0.21932389  0.87079866  0.57081332  1
  O  O215  1  0.21836691  0.86621900  0.90754874  1
  O  O216  1  0.71611463  0.37257498  0.23454770  1
  O  O217  1  0.71920260  0.37400843  0.57596811  1
  O  O218  1  0.72199110  0.37096270  0.91348157  1
  O  O219  1  0.72482235  0.86544549  0.24702207  1
  O  O220  1  0.71286472  0.86202383  0.57057002  1
  O  O221  1  0.71876896  0.87146981  0.91112980  1
  O  O222  1  0.42139223  0.12773427  0.14650237  1
  O  O223  1  0.40973767  0.13464926  0.48189999  1
  O  O224  1  0.41990393  0.12617391  0.81500174  1
  O  O225  1  0.41977397  0.63458211  0.15211020  1
  O  O226  1  0.41456560  0.63810836  0.49014513  1
  O  O227  1  0.43044503  0.62735230  0.81438526  1
  O  O228  1  0.89543001  0.14598060  0.15802986  1
  O  O229  1  0.91789607  0.12656960  0.48585007  1
  O  O230  1  0.91652449  0.13779964  0.82062429  1
  O  O231  1  0.91737292  0.63718626  0.15013441  1
  O  O232  1  0.92580169  0.63319200  0.48357099  1
  O  O233  1  0.92021716  0.63601676  0.82182550  1
  O  O234  1  0.36937177  0.07586910  0.01151000  1
  O  O235  1  0.36733240  0.08484740  0.34676818  1
  O  O236  1  0.36450908  0.07961625  0.67942306  1
  O  O237  1  0.36737888  0.58236660  0.01543826  1
  O  O238  1  0.36905109  0.59310010  0.35241832  1
  O  O239  1  0.36905514  0.57611598  0.68112591  1
  O  O240  1  0.86633449  0.07526979  0.02531876  1
  O  O241  1  0.86551391  0.07968146  0.35023101  1
  O  O242  1  0.87222343  0.08839744  0.68502264  1
  O  O243  1  0.86757086  0.58494500  0.01325488  1
  O  O244  1  0.86934028  0.58111436  0.34903448  1
  O  O245  1  0.87078457  0.58056554  0.68592716  1
  O  O246  1  0.07493605  0.37218945  0.18234753  1
  O  O247  1  0.08146315  0.35734007  0.50889187  1
  O  O248  1  0.08018554  0.36970791  0.84903921  1
  O  O249  1  0.08603050  0.86494810  0.18105516  1
  O  O250  1  0.08153106  0.86835207  0.51345679  1
  O  O251  1  0.08021471  0.86686760  0.84839774  1
  O  O252  1  0.57773863  0.36762158  0.17861922  1
  O  O253  1  0.58162695  0.36249192  0.51216467  1
  O  O254  1  0.58508113  0.36353050  0.84369113  1
  O  O255  1  0.58725305  0.87004079  0.18688202  1
  O  O256  1  0.57499100  0.87261222  0.52292335  1
  O  O257  1  0.58114330  0.86996175  0.84776368  1
  O  O258  1  0.12629919  0.43194173  0.31652352  1
  O  O259  1  0.12279723  0.41270950  0.64473187  1
  O  O260  1  0.13144534  0.41733457  0.98496737  1
  O  O261  1  0.13768521  0.91780067  0.31773508  1
  O  O262  1  0.13335314  0.91825115  0.64908946  1
  O  O263  1  0.13136311  0.91806399  0.98367749  1
  O  O264  1  0.63074383  0.41016576  0.31397110  1
  O  O265  1  0.62920126  0.42878900  0.64749234  1
  O  O266  1  0.62554352  0.41951917  0.97945403  1
  O  O267  1  0.63688441  0.91554768  0.32263595  1
  O  O268  1  0.63749724  0.91591148  0.65712235  1
  O  O269  1  0.62884773  0.92098660  0.98394245  1
  O  O270  1  0.03808729  0.18191305  0.09931942  1
  O  O271  1  0.02395668  0.19658831  0.43933045  1
  O  O272  1  0.02985930  0.19800221  0.77026051  1
  O  O273  1  0.03326340  0.69978547  0.10368196  1
  O  O274  1  0.04025563  0.69799198  0.43713680  1
  O  O275  1  0.02716156  0.70402806  0.77142838  1
  O  O276  1  0.52724393  0.19966544  0.10046545  1
  O  O277  1  0.52583019  0.19373389  0.42857896  1
  O  O278  1  0.53325577  0.19606455  0.77435976  1
  O  O279  1  0.53468948  0.69312644  0.10192821  1
  O  O280  1  0.52484587  0.70813881  0.43765640  1
  O  O281  1  0.53490364  0.70867447  0.77343931  1
  O  O282  1  0.30045492  0.46433876  0.05708587  1
  O  O283  1  0.29408102  0.47097451  0.40057356  1
  O  O284  1  0.30782584  0.46023687  0.73255938  1
  O  O285  1  0.29264446  0.97143450  0.05885449  1
  O  O286  1  0.30355884  0.97266897  0.39653535  1
  O  O287  1  0.29634369  0.96753383  0.72507548  1
  O  O288  1  0.79157396  0.47991965  0.06089978  1
  O  O289  1  0.81352903  0.47013338  0.40493901  1
  O  O290  1  0.79806324  0.46719630  0.72992990  1
  O  O291  1  0.79271059  0.96559572  0.06296593  1
  O  O292  1  0.80111683  0.96623251  0.39209191  1
  O  O293  1  0.81000907  0.97392345  0.73844332  1
  O  O294  1  0.47602615  0.28853020  0.22686281  1
  O  O295  1  0.45951408  0.31255601  0.56128378  1
  O  O296  1  0.47100636  0.29496059  0.89357465  1
  O  O297  1  0.47255677  0.80625078  0.23756894  1
  O  O298  1  0.46825451  0.80498271  0.56560612  1
  O  O299  1  0.46510092  0.79949003  0.88901478  1
  O  O300  1  0.94871957  0.31603335  0.23041553  1
  O  O301  1  0.96694778  0.29688938  0.56282250  1
  O  O302  1  0.96922606  0.30049256  0.89137998  1
  O  O303  1  0.97224475  0.80138299  0.22730557  1
  O  O304  1  0.97689916  0.79398489  0.56183542  1
  O  O305  1  0.97040744  0.79959175  0.89660431  1
  O  O306  1  0.21231838  0.02145869  0.27147832  1
  O  O307  1  0.19886069  0.03039669  0.60284849  1
  O  O308  1  0.19817826  0.02848548  0.93248781  1
  O  O309  1  0.19679331  0.53993868  0.27456679  1
  O  O310  1  0.19711709  0.52561571  0.59380918  1
  O  O311  1  0.20399837  0.53138298  0.94497443  1
  O  O312  1  0.69745215  0.02685960  0.26947485  1
  O  O313  1  0.70173001  0.03170074  0.60655338  1
  O  O314  1  0.70239375  0.02988094  0.93537494  1
  O  O315  1  0.70019215  0.53544725  0.26619993  1
  O  O316  1  0.70808552  0.53904427  0.61085806  1
  O  O317  1  0.69778092  0.52869158  0.93398595  1
  O  O318  1  0.09041600  0.07959858  0.02165331  1
  O  O319  1  0.08048271  0.08525548  0.37722423  1
  O  O320  1  0.08350364  0.08597757  0.70334332  1
  O  O321  1  0.08817438  0.58717512  0.03888588  1
  O  O322  1  0.09924144  0.59153053  0.36977472  1
  O  O323  1  0.08322752  0.59119885  0.71236062  1
  O  O324  1  0.58518203  0.08932321  0.04178127  1
  O  O325  1  0.58287639  0.08229287  0.36762665  1
  O  O326  1  0.58899945  0.08273533  0.71056148  1
  O  O327  1  0.58507016  0.58633681  0.02508260  1
  O  O328  1  0.57976382  0.59697229  0.37332043  1
  O  O329  1  0.58464957  0.59449102  0.70892348  1
  O  O330  1  0.41425134  0.41123132  0.12313096  1
  O  O331  1  0.39794589  0.40093679  0.45208429  1
  O  O332  1  0.41724432  0.40741457  0.80402012  1
  O  O333  1  0.41340396  0.92949455  0.12155263  1
  O  O334  1  0.41248575  0.91907176  0.46698664  1
  O  O335  1  0.40930954  0.91598206  0.79066995  1
  O  O336  1  0.90607049  0.42835552  0.12064939  1
  O  O337  1  0.92103962  0.41690535  0.47794153  1
  O  O338  1  0.90855424  0.41308619  0.79745447  1
  O  O339  1  0.90468865  0.90932200  0.12350315  1
  O  O340  1  0.91786127  0.91476697  0.45444049  1
  O  O341  1  0.91777387  0.91544164  0.80079062  1
  O  O342  1  0.43060956  0.40682573  0.28930509  1
  O  O343  1  0.40560247  0.41215180  0.64181621  1
  O  O344  1  0.41425391  0.40479538  0.95804981  1
  O  O345  1  0.42018202  0.91927578  0.30042717  1
  O  O346  1  0.41989512  0.92091124  0.63179181  1
  O  O347  1  0.40583403  0.90963365  0.95199652  1
  O  O348  1  0.90233634  0.42098276  0.30888619  1
  O  O349  1  0.91126420  0.40703539  0.62857812  1
  O  O350  1  0.92006362  0.41683551  0.95893633  1
  O  O351  1  0.91472918  0.91009635  0.29412688  1
  O  O352  1  0.93243344  0.91266449  0.62548078  1
  O  O353  1  0.91711890  0.91078875  0.96256241  1
  O  O354  1  0.10461496  0.08729882  0.22818867  1
  O  O355  1  0.08431038  0.08029869  0.53650791  1
  O  O356  1  0.08429528  0.08058645  0.86510315  1
  O  O357  1  0.08591672  0.58612140  0.19805653  1
  O  O358  1  0.08899876  0.58418268  0.53050406  1
  O  O359  1  0.09157959  0.58467084  0.87999883  1
  O  O360  1  0.58552863  0.07849212  0.20028632  1
  O  O361  1  0.58301548  0.06785881  0.53353710  1
  O  O362  1  0.59356552  0.08574849  0.86830883  1
  O  O363  1  0.59396975  0.59931636  0.20961345  1
  O  O364  1  0.59728813  0.59531324  0.54838362  1
  O  O365  1  0.58549147  0.58454059  0.86972782  1
  O  O366  1  0.13907648  0.21641594  0.05061706  1
  O  O367  1  0.13012349  0.21758323  0.39248418  1
  O  O368  1  0.13665228  0.21987503  0.72408972  1
  O  O369  1  0.14156628  0.72138798  0.05947024  1
  O  O370  1  0.14576796  0.72759341  0.39295128  1
  O  O371  1  0.13564257  0.72359890  0.72723384  1
  O  O372  1  0.63651768  0.22357668  0.05866054  1
  O  O373  1  0.63602441  0.21561258  0.38539331  1
  O  O374  1  0.63515933  0.21601800  0.72288412  1
  O  O375  1  0.63774366  0.72144707  0.05432228  1
  O  O376  1  0.63670294  0.73018657  0.39849724  1
  O  O377  1  0.64060016  0.72511910  0.72468865  1
  O  O378  1  0.28219098  0.36016080  0.10597993  1
  O  O379  1  0.26288009  0.35836500  0.43485092  1
  O  O380  1  0.28139080  0.35627454  0.77937818  1
  O  O381  1  0.28552029  0.86340873  0.10638981  1
  O  O382  1  0.27732495  0.86579104  0.44061486  1
  O  O383  1  0.27750227  0.86217387  0.77464618  1
  O  O384  1  0.77470333  0.36897841  0.10259489  1
  O  O385  1  0.78456633  0.36598096  0.45171930  1
  O  O386  1  0.77394610  0.36104010  0.77594669  1
  O  O387  1  0.77255045  0.85786171  0.10817829  1
  O  O388  1  0.78726046  0.86257055  0.44450760  1
  O  O389  1  0.78324246  0.86504224  0.78087699  1
  O  O390  1  0.36585635  0.27774345  0.27101204  1
  O  O391  1  0.35553790  0.27425392  0.60330053  1
  O  O392  1  0.36146608  0.27106973  0.93564712  1
  O  O393  1  0.36411940  0.78696008  0.28308792  1
  O  O394  1  0.36304475  0.78953929  0.61568269  1
  O  O395  1  0.36255660  0.77587481  0.93831318  1
  O  O396  1  0.85168242  0.28431047  0.28476565  1
  O  O397  1  0.85703110  0.27298180  0.60452365  1
  O  O398  1  0.86525308  0.28533547  0.94248529  1
  O  O399  1  0.86583850  0.77498232  0.27175178  1
  O  O400  1  0.86640126  0.78396916  0.60698718  1
  O  O401  1  0.86405985  0.77815732  0.94408088  1
  O  O402  1  0.23330572  0.13324642  0.23000755  1
  O  O403  1  0.21706929  0.13806143  0.55689946  1
  O  O404  1  0.21757986  0.13782044  0.88899050  1
  O  O405  1  0.22060986  0.63994062  0.22224171  1
  O  O406  1  0.22422237  0.63725439  0.55596735  1
  O  O407  1  0.22327319  0.63645560  0.89550436  1
  O  O408  1  0.71989778  0.13015138  0.21959180  1
  O  O409  1  0.71077905  0.13857120  0.55735896  1
  O  O410  1  0.72744178  0.14059045  0.89443820  1
  O  O411  1  0.72838440  0.64305883  0.22373271  1
  O  O412  1  0.72955661  0.64353211  0.56316870  1
  O  O413  1  0.71926751  0.63793110  0.89147048  1
  O  O414  1  0.49109051  0.32460205  0.02608554  1
  O  O415  1  0.49549061  0.32414103  0.36142662  1
  O  O416  1  0.48676900  0.32331103  0.69155024  1
  O  O417  1  0.49330692  0.84124734  0.02372576  1
  O  O418  1  0.49412292  0.84172037  0.37213901  1
  O  O419  1  0.49538179  0.84250254  0.70048365  1
  O  O420  1  0.99985718  0.33865377  0.02592188  1
  O  O421  1  0.98426249  0.33717587  0.36520241  1
  O  O422  1  0.98754504  0.32617967  0.69499583  1
  O  O423  1  0.99549211  0.83205885  0.03039003  1
  O  O424  1  0.99596588  0.83212973  0.36036817  1
  O  O425  1  0.99642793  0.83050888  0.69641789  1
  O  O426  1  0.16531818  0.00931532  0.13890300  1
  O  O427  1  0.16564651  0.00714599  0.46856701  1
  O  O428  1  0.16703491  0.00639695  0.79974450  1
  O  O429  1  0.16833460  0.50611814  0.13958146  1
  O  O430  1  0.16829689  0.50982555  0.46153931  1
  O  O431  1  0.16879335  0.50411534  0.81071941  1
  O  O432  1  0.66329458  -0.00079490  0.13425597  1
  O  O433  1  0.67464345  0.00560473  0.47295240  1
  O  O434  1  0.67648099  0.00967753  0.80393365  1
  O  O435  1  0.66326821  0.51686264  0.13272927  1
  O  O436  1  0.67103421  0.51247671  0.47633223  1
  O  O437  1  0.66355560  0.50857321  0.80043383  1
  O  O438  1  -0.00085861  0.15998692  0.30524254  1
  O  O439  1  0.00573253  0.16388916  0.63597323  1
  O  O440  1  0.00763304  0.16292636  0.96597018  1
  O  O441  1  0.01581329  0.66939057  0.30405199  1
  O  O442  1  0.00819006  0.66583127  0.63695666  1
  O  O443  1  0.01115571  0.66587895  0.97042930  1
  O  O444  1  0.50737074  0.15787007  0.29529479  1
  O  O445  1  0.50328366  0.15311351  0.63910024  1
  O  O446  1  0.50972095  0.16351375  0.96691962  1
  O  O447  1  0.50790959  0.67982467  0.30517436  1
  O  O448  1  0.50801024  0.67346840  0.63934225  1
  O  O449  1  0.50526139  0.67126985  0.96885921  1
  O  O450  1  0.33792184  0.49245327  0.19156308  1
  O  O451  1  0.32958821  0.48125480  0.53192171  1
  O  O452  1  0.33738930  0.48778110  0.86649741  1
  O  O453  1  0.33284838  0.99441316  0.19438740  1
  O  O454  1  0.32999435  0.99608230  0.52960057  1
  O  O455  1  0.32998293  0.99412242  0.85891084  1
  O  O456  1  0.82836401  0.49615527  0.19561770  1
  O  O457  1  0.83937630  0.49713298  0.53798357  1
  O  O458  1  0.82936016  0.49196722  0.86339213  1
  O  O459  1  0.82986247  0.98812066  0.19642831  1
  O  O460  1  0.84635662  0.99570660  0.52715550  1
  O  O461  1  0.84220169  0.99369867  0.87205247  1
