# generated using pymatgen
data_Na31Fe20(SO4)36
_symmetry_space_group_name_H-M   'P 1'
_cell_length_a   18.07163442
_cell_length_b   18.06504906
_cell_length_c   19.70111951
_cell_angle_alpha   107.59909030
_cell_angle_beta   107.59661176
_cell_angle_gamma   90.69993909
_symmetry_Int_Tables_number   1
_chemical_formula_structural   Na31Fe20(SO4)36
_chemical_formula_sum   'Na62 Fe40 S72 O288'
_cell_volume   5805.69891007
_cell_formula_units_Z   2
loop_
 _symmetry_equiv_pos_site_id
 _symmetry_equiv_pos_as_xyz
  1  'x, y, z'
loop_
 _atom_site_type_symbol
 _atom_site_label
 _atom_site_symmetry_multiplicity
 _atom_site_fract_x
 _atom_site_fract_y
 _atom_site_fract_z
 _atom_site_occupancy
  Na  Na0  1  0.14797800  0.36953004  0.08488907  1
  Na  Na1  1  0.13891365  0.36592693  0.42162352  1
  Na  Na2  1  0.19175438  0.34814559  0.78390197  1
  Na  Na3  1  0.13744806  0.87628196  0.09374930  1
  Na  Na4  1  0.13205746  0.85737610  0.40065016  1
  Na  Na5  1  0.13343764  0.86848230  0.75116587  1
  Na  Na6  1  0.62757670  0.36988962  0.08459919  1
  Na  Na7  1  0.62924457  0.36140389  0.40819028  1
  Na  Na8  1  0.63666495  0.36540054  0.75124438  1
  Na  Na9  1  0.63370584  0.86459853  0.08343342  1
  Na  Na10  1  0.62500307  0.85497220  0.41019843  1
  Na  Na11  1  0.63737141  0.86136267  0.75456902  1
  Na  Na12  1  0.36377350  0.13435317  0.24940721  1
  Na  Na13  1  0.37108486  0.15453884  0.60971566  1
  Na  Na14  1  0.35222385  0.13777851  0.90603506  1
  Na  Na15  1  0.35905784  0.63341638  0.23682906  1
  Na  Na16  1  0.36340255  0.63402362  0.58004193  1
  Na  Na17  1  0.36138027  0.64166475  0.92205490  1
  Na  Na18  1  0.86443558  0.13040719  0.24988869  1
  Na  Na19  1  0.86956552  0.12823815  0.58451582  1
  Na  Na20  1  0.87345303  0.12700742  0.91897488  1
  Na  Na21  1  0.86459655  0.65505684  0.26308221  1
  Na  Na22  1  0.86300166  0.63676317  0.58528518  1
  Na  Na23  1  0.85919950  0.62705192  0.90148835  1
  Na  Na24  1  0.48657975  0.52035352  0.41060207  1
  Na  Na25  1  1.04318868  0.49413731  0.04297272  1
  Na  Na26  1  0.99701498  -0.00315979  0.43729647  1
  Na  Na27  1  0.99372574  0.00620624  0.74814964  1
  Na  Na28  1  0.99461482  0.50785544  0.41064849  1
  Na  Na29  1  0.51772680  0.49186090  0.75250929  1
  Na  Na30  1  1.02242941  0.47009990  0.79504226  1
  Na  Na31  1  0.44497982  -0.00531628  0.40096655  1
  Na  Na32  1  0.48915958  0.03576652  0.08731989  1
  Na  Na33  1  0.00459030  0.48898359  0.59584702  1
  Na  Na34  1  0.02305702  0.99098638  0.23599731  1
  Na  Na35  1  0.48775645  1.00668598  0.24840249  1
  Na  Na36  1  0.46252550  0.50772691  0.94469752  1
  Na  Na37  1  0.49789098  0.51305965  0.21797511  1
  Na  Na38  1  0.50649847  0.95666372  0.58118810  1
  Na  Na39  1  0.54048643  0.49150423  0.59281678  1
  Na  Na40  1  0.50422196  1.01241300  0.88993007  1
  Na  Na41  1  -0.02050294  0.54525664  0.20908479  1
  Na  Na42  1  0.74571826  0.24450979  0.66962744  1
  Na  Na43  1  0.75554509  0.74856790  -0.01202586  1
  Na  Na44  1  0.26431689  0.28636207  -0.01891373  1
  Na  Na45  1  0.73674750  0.23809402  0.33861865  1
  Na  Na46  1  0.24009911  0.73281815  0.00842139  1
  Na  Na47  1  0.26435686  0.76381160  0.32787170  1
  Na  Na48  1  0.24910347  0.24933216  0.33616803  1
  Na  Na49  1  0.25007869  0.75286416  0.66348178  1
  Na  Na50  1  0.74897817  0.25172297  0.00354232  1
  Na  Na51  1  0.73881483  0.72916299  0.68518174  1
  Na  Na52  1  0.25877033  0.75908018  0.49092847  1
  Na  Na53  1  0.75091089  0.75221026  0.49188539  1
  Na  Na54  1  0.24599840  0.74812677  0.83649072  1
  Na  Na55  1  0.25173282  0.25000835  0.16435297  1
  Na  Na56  1  0.73864365  0.23962485  0.50349227  1
  Na  Na57  1  0.73721489  0.24230231  0.17387242  1
  Na  Na58  1  0.74689786  0.74682668  0.16917559  1
  Na  Na59  1  0.24793036  0.24524413  0.51696281  1
  Na  Na60  1  0.23888242  0.74255493  0.16677413  1
  Na  Na61  1  0.74960167  0.24612076  0.83812907  1
  Fe  Fe62  1  0.96503192  0.30864836  0.12054389  1
  Fe  Fe63  1  0.96402465  0.30578570  0.45318088  1
  Fe  Fe64  1  0.46526423  0.80926067  0.78802391  1
  Fe  Fe65  1  0.96414103  0.80869014  0.78913793  1
  Fe  Fe66  1  0.46249291  0.81118924  0.11816144  1
  Fe  Fe67  1  0.46920419  0.29761498  0.12371991  1
  Fe  Fe68  1  0.96749052  0.79993577  0.12148428  1
  Fe  Fe69  1  0.96409102  0.30157203  0.78672285  1
  Fe  Fe70  1  0.46643381  0.30814626  0.45215092  1
  Fe  Fe71  1  0.96566899  0.80714786  0.45244792  1
  Fe  Fe72  1  0.68743920  0.53242805  0.04290370  1
  Fe  Fe73  1  0.69103161  0.03231590  0.38065715  1
  Fe  Fe74  1  0.18938876  0.03513334  0.04550615  1
  Fe  Fe75  1  0.69351441  0.02987488  0.71305654  1
  Fe  Fe76  1  0.19006543  0.04108508  0.71372242  1
  Fe  Fe77  1  0.69063036  0.53664243  0.37700087  1
  Fe  Fe78  1  0.69366954  0.03315553  0.04859283  1
  Fe  Fe79  1  0.19940120  0.03440822  0.37979574  1
  Fe  Fe80  1  0.19856368  0.53254391  0.71965108  1
  Fe  Fe81  1  0.18873676  0.53614468  0.37878400  1
  Fe  Fe82  1  0.03300636  0.19136014  0.21180948  1
  Fe  Fe83  1  0.52917326  0.69700136  0.54587739  1
  Fe  Fe84  1  0.03790674  0.19526148  0.55338077  1
  Fe  Fe85  1  0.53065646  0.19762507  0.87236167  1
  Fe  Fe86  1  0.53396342  0.69591880  0.21284711  1
  Fe  Fe87  1  0.53323189  0.19273534  0.54774106  1
  Fe  Fe88  1  0.53698949  0.69066804  0.87792806  1
  Fe  Fe89  1  0.03465262  0.69372508  0.88073443  1
  Fe  Fe90  1  0.03608074  0.19344929  0.88367247  1
  Fe  Fe91  1  0.03708456  0.69385606  0.54993634  1
  Fe  Fe92  1  0.80502939  0.46716190  0.28395947  1
  Fe  Fe93  1  0.81280215  0.96186705  0.95439188  1
  Fe  Fe94  1  0.80610213  0.95998210  0.61727419  1
  Fe  Fe95  1  0.30525109  0.96673948  0.95129987  1
  Fe  Fe96  1  0.80665900  0.46714179  0.95353824  1
  Fe  Fe97  1  0.30437087  0.46517684  0.28138218  1
  Fe  Fe98  1  0.80712698  0.96244083  0.28679835  1
  Fe  Fe99  1  0.80154248  0.46982830  0.62404201  1
  Fe  Fe100  1  0.30741167  0.96603599  0.62172196  1
  Fe  Fe101  1  0.31492763  0.46526521  0.62084450  1
  S  S102  1  0.35549056  0.14019078  0.07941371  1
  S  S103  1  0.35967187  0.14538264  0.41988952  1
  S  S104  1  0.36315079  0.13615604  0.75245478  1
  S  S105  1  0.36546602  0.63966846  0.08029744  1
  S  S106  1  0.35646027  0.63967130  0.41712233  1
  S  S107  1  0.35885919  0.64509894  0.74910246  1
  S  S108  1  0.85751487  0.13994610  0.08589071  1
  S  S109  1  0.86088350  0.13824649  0.41777207  1
  S  S110  1  0.86078635  0.13556385  0.74942685  1
  S  S111  1  0.85527770  0.63939810  0.08437276  1
  S  S112  1  0.86230741  0.63829322  0.41849154  1
  S  S113  1  0.86333022  0.63840883  0.74639591  1
  S  S114  1  0.13708847  0.36024499  0.25408121  1
  S  S115  1  0.13818041  0.36224237  0.58238468  1
  S  S116  1  0.13144384  0.36258468  0.91666726  1
  S  S117  1  0.13904002  0.86422115  0.24911640  1
  S  S118  1  0.13933706  0.86333976  0.58306816  1
  S  S119  1  0.13925147  0.86048111  0.91648307  1
  S  S120  1  0.64258336  0.35993357  0.24985597  1
  S  S121  1  0.64252582  0.35617438  0.58118007  1
  S  S122  1  0.64404578  0.35669169  0.91638271  1
  S  S123  1  0.63906006  0.85974870  0.24903297  1
  S  S124  1  0.64363423  0.85454755  0.58534587  1
  S  S125  1  0.64086568  0.86299915  0.91656430  1
  S  S126  1  0.06762671  0.17481212  0.04624391  1
  S  S127  1  0.06774338  0.17078031  0.37740912  1
  S  S128  1  0.06549008  0.16804862  0.70995775  1
  S  S129  1  0.06840506  0.67826640  0.04359815  1
  S  S130  1  0.06394540  0.66893792  0.37958448  1
  S  S131  1  0.07113720  0.67174026  0.70838396  1
  S  S132  1  0.56784270  0.16710504  0.03765330  1
  S  S133  1  0.56264821  0.16478623  0.37481960  1
  S  S134  1  0.57241418  0.16402081  0.70775917  1
  S  S135  1  0.56932053  0.67362690  0.04043579  1
  S  S136  1  0.56303259  0.66053975  0.37128317  1
  S  S137  1  0.56058079  0.66963879  0.70915650  1
  S  S138  1  0.33555049  0.42144751  0.13032316  1
  S  S139  1  0.33162371  0.43418224  0.45777918  1
  S  S140  1  0.34639151  0.44965370  0.79051521  1
  S  S141  1  0.33145505  0.93768293  0.12010420  1
  S  S142  1  0.32781985  0.93687528  0.46102876  1
  S  S143  1  0.32589532  0.92999000  0.79027902  1
  S  S144  1  0.82928717  0.43374996  0.12437691  1
  S  S145  1  0.82871804  0.43142409  0.45726865  1
  S  S146  1  0.83016593  0.42627092  0.79078331  1
  S  S147  1  0.83047466  0.92838732  0.12371153  1
  S  S148  1  0.82700870  0.92944779  0.45743079  1
  S  S149  1  0.83056460  0.93084577  0.78909964  1
  S  S150  1  0.43038034  0.32953151  0.29135817  1
  S  S151  1  0.44172774  0.33661159  0.62334059  1
  S  S152  1  0.43925631  0.32309658  0.96113225  1
  S  S153  1  0.43503664  0.83279781  0.28528574  1
  S  S154  1  0.43155463  0.82848375  0.62581376  1
  S  S155  1  0.43416980  0.83679184  0.95769198  1
  S  S156  1  0.92881314  0.32868705  0.29077887  1
  S  S157  1  0.92758187  0.32744419  0.62143561  1
  S  S158  1  0.93007413  0.32785966  0.96009921  1
  S  S159  1  0.93210308  0.83819690  0.29331509  1
  S  S160  1  0.93340435  0.82855590  0.62316476  1
  S  S161  1  0.92852522  0.82362181  0.95710590  1
  S  S162  1  0.16814623  0.07440804  0.20889497  1
  S  S163  1  0.17175504  0.07023473  0.54248624  1
  S  S164  1  0.16590974  0.06834878  0.87561417  1
  S  S165  1  0.17246292  0.56541899  0.21229571  1
  S  S166  1  0.16747551  0.56617785  0.54340806  1
  S  S167  1  0.16996656  0.57426602  0.87409380  1
  S  S168  1  0.66805289  0.06115089  0.21039157  1
  S  S169  1  0.66997366  0.06402495  0.54254057  1
  S  S170  1  0.67458532  0.07207610  0.87787640  1
  S  S171  1  0.67435819  0.57296426  0.20868249  1
  S  S172  1  0.66711932  0.56601068  0.53929384  1
  S  S173  1  0.66879247  0.56238689  0.87592986  1
  O  O174  1  0.36783341  0.22069277  0.07489229  1
  O  O175  1  0.36859598  0.22573143  0.41351976  1
  O  O176  1  0.37220879  0.21080775  0.74203913  1
  O  O177  1  0.37777918  0.71914814  0.06905455  1
  O  O178  1  0.36083075  0.71755522  0.41042360  1
  O  O179  1  0.36589358  0.72465168  0.74104714  1
  O  O180  1  0.86581836  0.21973933  0.07934880  1
  O  O181  1  0.86898248  0.21761680  0.40969815  1
  O  O182  1  0.86849189  0.21310399  0.73766412  1
  O  O183  1  0.86741712  0.72086087  0.08024578  1
  O  O184  1  0.87168463  0.71635983  0.40990748  1
  O  O185  1  0.87837369  0.71639350  0.73538723  1
  O  O186  1  0.27409476  0.13227759  0.08275853  1
  O  O187  1  0.27879892  0.13703217  0.42486742  1
  O  O188  1  0.28789633  0.12148646  0.76645673  1
  O  O189  1  0.29099808  0.63955725  0.09592071  1
  O  O190  1  0.27965137  0.62543786  0.42977013  1
  O  O191  1  0.27898963  0.63490348  0.75472937  1
  O  O192  1  0.77894500  0.13049343  0.09605594  1
  O  O193  1  0.78189098  0.12982392  0.42663466  1
  O  O194  1  0.78188181  0.12792454  0.75773719  1
  O  O195  1  0.77219964  0.63149143  0.08402469  1
  O  O196  1  0.78347801  0.62836212  0.42662131  1
  O  O197  1  0.78573203  0.63275036  0.75276481  1
  O  O198  1  0.12546319  0.28225400  0.26426897  1
  O  O199  1  0.12994442  0.28232603  0.58753170  1
  O  O200  1  0.12290509  0.28074974  0.92317329  1
  O  O201  1  0.13243178  0.79122920  0.26616937  1
  O  O202  1  0.13032648  0.78549816  0.59427191  1
  O  O203  1  0.13352298  0.78072084  0.92313342  1
  O  O204  1  0.63986459  0.28313835  0.25961740  1
  O  O205  1  0.63542665  0.27340231  0.58312272  1
  O  O206  1  0.63371765  0.27376799  0.92031651  1
  O  O207  1  0.63057721  0.78090896  0.25612608  1
  O  O208  1  0.63276539  0.77493188  0.59191104  1
  O  O209  1  0.63072394  0.78261778  0.92073817  1
  O  O210  1  0.21733506  0.36629694  0.24873558  1
  O  O211  1  0.21478870  0.37283776  0.57030605  1
  O  O212  1  0.20881327  0.37314007  0.91015748  1
  O  O213  1  0.21157876  0.87435890  0.23291339  1
  O  O214  1  0.21874089  0.86959436  0.57480193  1
  O  O215  1  0.21589073  0.87112818  0.90363055  1
  O  O216  1  0.71873073  0.37455625  0.23632355  1
  O  O217  1  0.72231136  0.36704916  0.57473404  1
  O  O218  1  0.72778620  0.36453633  0.91721933  1
  O  O219  1  0.71703506  0.86910636  0.23831006  1
  O  O220  1  0.72538861  0.86299725  0.58184369  1
  O  O221  1  0.71834652  0.87368638  0.90705972  1
  O  O222  1  0.41167122  0.12739952  0.14483457  1
  O  O223  1  0.41563964  0.13873956  0.49095566  1
  O  O224  1  0.42683854  0.12823207  0.82142152  1
  O  O225  1  0.42802074  0.63189040  0.14855797  1
  O  O226  1  0.41792851  0.63076240  0.48465349  1
  O  O227  1  0.41697063  0.64064892  0.81897254  1
  O  O228  1  0.91683410  0.13153872  0.15330707  1
  O  O229  1  0.92096482  0.12941017  0.48477354  1
  O  O230  1  0.92044110  0.12981848  0.81818096  1
  O  O231  1  0.90777437  0.63051066  0.15341891  1
  O  O232  1  0.92130155  0.62928471  0.48644734  1
  O  O233  1  0.92355072  0.62993736  0.81363421  1
  O  O234  1  0.36355932  0.08359651  0.00885320  1
  O  O235  1  0.37128761  0.08757201  0.35478927  1
  O  O236  1  0.37051936  0.07264933  0.68629147  1
  O  O237  1  0.36994715  0.57991964  0.01329673  1
  O  O238  1  0.36624852  0.57969960  0.34987454  1
  O  O239  1  0.36892820  0.58713170  0.68163269  1
  O  O240  1  0.86251572  0.08189432  0.01636313  1
  O  O241  1  0.86749048  0.07968650  0.34905993  1
  O  O242  1  0.86972678  0.07454002  0.68275459  1
  O  O243  1  0.86552911  0.58283211  0.01571770  1
  O  O244  1  0.87133723  0.57805368  0.35099793  1
  O  O245  1  0.87152140  0.57785417  0.67774965  1
  O  O246  1  0.08025485  0.36677120  0.18451679  1
  O  O247  1  0.07570739  0.37109789  0.51514231  1
  O  O248  1  0.07169376  0.36621614  0.84482362  1
  O  O249  1  0.07205811  0.86972185  0.18199873  1
  O  O250  1  0.08105172  0.86900683  0.51366402  1
  O  O251  1  0.07738285  0.86781971  0.84951410  1
  O  O252  1  0.57956669  0.36527367  0.18258844  1
  O  O253  1  0.58512264  0.36537078  0.51183581  1
  O  O254  1  0.59053045  0.36561234  0.84903349  1
  O  O255  1  0.57922675  0.87062818  0.18256524  1
  O  O256  1  0.58767055  0.86587902  0.51938475  1
  O  O257  1  0.57983305  0.87642378  0.85213332  1
  O  O258  1  0.12843385  0.42034964  0.32140347  1
  O  O259  1  0.12953820  0.42059456  0.65023398  1
  O  O260  1  0.11705761  0.41724612  0.98176869  1
  O  O261  1  0.12941867  0.93000346  0.31438068  1
  O  O262  1  0.13211712  0.92383941  0.65044894  1
  O  O263  1  0.13402652  0.91791180  0.98613682  1
  O  O264  1  0.63609741  0.42100261  0.31759003  1
  O  O265  1  0.63133167  0.41099523  0.64782519  1
  O  O266  1  0.63624403  0.41170123  0.98697794  1
  O  O267  1  0.63357601  0.91820863  0.31858888  1
  O  O268  1  0.63630623  0.91292222  0.65533959  1
  O  O269  1  0.63536446  0.91922113  0.98771535  1
  O  O270  1  0.02652898  0.20349345  0.10491323  1
  O  O271  1  0.02979441  0.19961532  0.43767553  1
  O  O272  1  0.02752182  0.19816765  0.77030402  1
  O  O273  1  0.02677134  0.70694367  0.10057889  1
  O  O274  1  0.03308124  0.70381313  0.44552445  1
  O  O275  1  0.03805046  0.70336455  0.77064491  1
  O  O276  1  0.52840636  0.19444922  0.09506332  1
  O  O277  1  0.53069344  0.19759215  0.43940871  1
  O  O278  1  0.54020394  0.18686732  0.77105705  1
  O  O279  1  0.53823925  0.70686988  0.10393369  1
  O  O280  1  0.52925310  0.67883181  0.43282850  1
  O  O281  1  0.52602317  0.70676757  0.77184629  1
  O  O282  1  0.30410641  0.43886186  0.06140877  1
  O  O283  1  0.29936759  0.46759335  0.39547916  1
  O  O284  1  0.29907429  0.47315903  0.72019402  1
  O  O285  1  0.29658075  0.96970811  0.05478540  1
  O  O286  1  0.29787858  0.97277432  0.40057207  1
  O  O287  1  0.29464058  0.96117229  0.72667584  1
  O  O288  1  0.79946795  0.47027397  0.06398462  1
  O  O289  1  0.80036143  0.46692631  0.39550915  1
  O  O290  1  0.80720292  0.45951780  0.72908065  1
  O  O291  1  0.80301528  0.96745031  0.06415625  1
  O  O292  1  0.79652421  0.96688809  0.39680324  1
  O  O293  1  0.79945602  0.96999678  0.72968486  1
  O  O294  1  0.46534714  0.30341787  0.23095395  1
  O  O295  1  0.47468541  0.30180116  0.55879598  1
  O  O296  1  0.48121715  0.29142991  0.90405636  1
  O  O297  1  0.46882022  0.79443648  0.22154154  1
  O  O298  1  0.47022304  0.79964041  0.56800648  1
  O  O299  1  0.47026509  0.80524615  0.89669652  1
  O  O300  1  0.96418095  0.29948225  0.22924308  1
  O  O301  1  0.96708831  0.29661359  0.56221029  1
  O  O302  1  0.96128500  0.29398867  0.89611002  1
  O  O303  1  0.96361269  0.81434122  0.23065465  1
  O  O304  1  0.97132430  0.80055981  0.56291766  1
  O  O305  1  0.96795382  0.79540446  0.89735213  1
  O  O306  1  0.19594830  0.04522231  0.27281495  1
  O  O307  1  0.20024186  0.03450703  0.60435378  1
  O  O308  1  0.19442554  0.02916886  0.93456948  1
  O  O309  1  0.20598849  0.52975048  0.27668646  1
  O  O310  1  0.19988842  0.53252609  0.60518652  1
  O  O311  1  0.19307500  0.54953914  0.93914664  1
  O  O312  1  0.70609394  0.02825958  0.27343092  1
  O  O313  1  0.70015927  0.02656850  0.60320006  1
  O  O314  1  0.69852372  0.03543594  0.93899710  1
  O  O315  1  0.70549319  0.53732395  0.27087307  1
  O  O316  1  0.69521059  0.52683194  0.59673173  1
  O  O317  1  0.69825486  0.52570119  0.93863407  1
  O  O318  1  0.09020089  0.09663039  0.04496238  1
  O  O319  1  0.08637027  0.08947002  0.37116688  1
  O  O320  1  0.07984327  0.08559240  0.70581099  1
  O  O321  1  0.09723649  0.60504862  0.04816719  1
  O  O322  1  0.08266373  0.58792612  0.37987803  1
  O  O323  1  0.09115819  0.59077173  0.70223153  1
  O  O324  1  0.58461959  0.08408767  0.03296530  1
  O  O325  1  0.58668482  0.08509313  0.37530794  1
  O  O326  1  0.58839895  0.08044697  0.69197945  1
  O  O327  1  0.58505890  0.59138347  0.03498085  1
  O  O328  1  0.57873241  0.57506648  0.35358962  1
  O  O329  1  0.57014012  0.58845218  0.70674435  1
  O  O330  1  0.41846742  0.40000964  0.14116009  1
  O  O331  1  0.41471896  0.41998950  0.46414831  1
  O  O332  1  0.42848317  0.45017709  0.79323492  1
  O  O333  1  0.41300176  0.91932728  0.11997552  1
  O  O334  1  0.40917938  0.92200054  0.46705255  1
  O  O335  1  0.40810151  0.91334316  0.79777728  1
  O  O336  1  0.91043762  0.41416297  0.12835173  1
  O  O337  1  0.91258664  0.41648302  0.46552895  1
  O  O338  1  0.91242219  0.40615389  0.80269440  1
  O  O339  1  0.91072750  0.90667447  0.12878612  1
  O  O340  1  0.90780738  0.91080172  0.45917697  1
  O  O341  1  0.91175055  0.91475762  0.79061532  1
  O  O342  1  0.41135767  0.41224116  0.30334975  1
  O  O343  1  0.42369928  0.41815658  0.62250412  1
  O  O344  1  0.42660123  0.40300612  0.96606469  1
  O  O345  1  0.42130831  0.91223809  0.28171500  1
  O  O346  1  0.41157459  0.90869914  0.62765745  1
  O  O347  1  0.41845254  0.91933655  0.96292131  1
  O  O348  1  0.91005211  0.41027579  0.29680822  1
  O  O349  1  0.90794061  0.40731782  0.62143005  1
  O  O350  1  0.91144774  0.40868117  0.96390161  1
  O  O351  1  0.91800477  0.92351777  0.30920693  1
  O  O352  1  0.91462850  0.91025473  0.62955703  1
  O  O353  1  0.90819627  0.90318743  0.95859025  1
  O  O354  1  0.08385832  0.08873679  0.19884932  1
  O  O355  1  0.09055472  0.09116270  0.53883127  1
  O  O356  1  0.08310794  0.08406707  0.86836301  1
  O  O357  1  0.09491099  0.58659239  0.21282517  1
  O  O358  1  0.08394818  0.58042967  0.53759761  1
  O  O359  1  0.08607157  0.59349498  0.85653144  1
  O  O360  1  0.58636809  0.06917445  0.20591451  1
  O  O361  1  0.58992127  0.08466620  0.53867865  1
  O  O362  1  0.59501700  0.09719780  0.87237873  1
  O  O363  1  0.59443165  0.59274680  0.20718636  1
  O  O364  1  0.58496367  0.58452686  0.53591819  1
  O  O365  1  0.59015716  0.58872880  0.87717767  1
  O  O366  1  0.13532623  0.23166585  0.06390150  1
  O  O367  1  0.13861785  0.22470091  0.39574602  1
  O  O368  1  0.13686105  0.21690371  0.72470021  1
  O  O369  1  0.13413238  0.73864600  0.05896687  1
  O  O370  1  0.13504635  0.71875612  0.39187023  1
  O  O371  1  0.14049935  0.72474478  0.72017257  1
  O  O372  1  0.64063582  0.21837713  0.05628055  1
  O  O373  1  0.63326637  0.21797978  0.38861494  1
  O  O374  1  0.64466438  0.21620919  0.72558307  1
  O  O375  1  0.64067412  0.72353224  0.05208894  1
  O  O376  1  0.63528644  0.71197251  0.39046080  1
  O  O377  1  0.63325472  0.71822804  0.72443378  1
  O  O378  1  0.28581915  0.35617985  0.13281336  1
  O  O379  1  0.28226813  0.36166197  0.44391500  1
  O  O380  1  0.30974187  0.37324733  0.78041637  1
  O  O381  1  0.28172132  0.86599894  0.10650755  1
  O  O382  1  0.27620227  0.86366301  0.44331309  1
  O  O383  1  0.27525917  0.85887214  0.77773526  1
  O  O384  1  0.77677962  0.36386076  0.11076092  1
  O  O385  1  0.77879503  0.35829293  0.43988591  1
  O  O386  1  0.77706671  0.35501456  0.77489039  1
  O  O387  1  0.77501851  0.85906479  0.10573664  1
  O  O388  1  0.77492833  0.86012642  0.44427580  1
  O  O389  1  0.77940205  0.85933645  0.77177618  1
  O  O390  1  0.35971808  0.27671466  0.27647223  1
  O  O391  1  0.36964390  0.28755063  0.60908961  1
  O  O392  1  0.36736430  0.27064508  0.94014579  1
  O  O393  1  0.36121740  0.78359947  0.26960713  1
  O  O394  1  0.35968091  0.77594791  0.60939704  1
  O  O395  1  0.36151025  0.78685505  0.94129597  1
  O  O396  1  0.85851771  0.27571704  0.27611379  1
  O  O397  1  0.85765748  0.27287291  0.60424435  1
  O  O398  1  0.86106982  0.27533125  0.94963009  1
  O  O399  1  0.85959883  0.78917351  0.27832542  1
  O  O400  1  0.86272544  0.77505885  0.60434630  1
  O  O401  1  0.85957876  0.76908573  0.94047411  1
  O  O402  1  0.21654759  0.14757666  0.22143373  1
  O  O403  1  0.22499179  0.13904851  0.55656903  1
  O  O404  1  0.21676333  0.14003241  0.89374490  1
  O  O405  1  0.22745442  0.63529018  0.22861810  1
  O  O406  1  0.21523871  0.63955909  0.55723778  1
  O  O407  1  0.22116688  0.64437541  0.88159215  1
  O  O408  1  0.71555582  0.13583990  0.22602001  1
  O  O409  1  0.72492144  0.13427242  0.55987188  1
  O  O410  1  0.73173678  0.13983356  0.89449982  1
  O  O411  1  0.72697730  0.64158949  0.22128112  1
  O  O412  1  0.71918735  0.63774706  0.55622974  1
  O  O413  1  0.72475276  0.62984779  0.89170891  1
  O  O414  1  0.49405955  0.32025288  0.03575660  1
  O  O415  1  0.49120615  0.32935216  0.36313119  1
  O  O416  1  0.50289061  0.34275183  0.69332185  1
  O  O417  1  0.49322921  0.83700261  0.02949412  1
  O  O418  1  0.49274634  0.83585000  0.35670276  1
  O  O419  1  0.48903965  0.83400467  0.70078694  1
  O  O420  1  0.99297661  0.33320031  0.03189177  1
  O  O421  1  0.98927334  0.33221975  0.36342342  1
  O  O422  1  0.98521589  0.33332741  0.69552442  1
  O  O423  1  0.98726992  0.82910483  0.03107365  1
  O  O424  1  0.99267355  0.83466508  0.36388639  1
  O  O425  1  0.99216986  0.83104570  0.69610911  1
  O  O426  1  0.17024840  0.01390141  0.13857330  1
  O  O427  1  0.16413860  0.00900894  0.46920832  1
  O  O428  1  0.16432595  0.00970928  0.80218466  1
  O  O429  1  0.16882494  0.50355056  0.14254127  1
  O  O430  1  0.16571277  0.50706382  0.47076320  1
  O  O431  1  0.16782771  0.50826042  0.80326278  1
  O  O432  1  0.67165959  0.00438791  0.13824406  1
  O  O433  1  0.66815469  0.00477332  0.47046010  1
  O  O434  1  0.67051057  0.01094079  0.80597844  1
  O  O435  1  0.66866055  0.51048773  0.13648831  1
  O  O436  1  0.66159616  0.50951773  0.46353358  1
  O  O437  1  0.65815262  0.50122548  0.80448827  1
  O  O438  1  0.00862871  0.16923568  0.30463433  1
  O  O439  1  0.00548377  0.16663748  0.63740746  1
  O  O440  1  0.00830572  0.16967250  0.97262324  1
  O  O441  1  0.00065946  0.66294765  0.31056937  1
  O  O442  1  0.00884239  0.66737455  0.63603502  1
  O  O443  1  0.00970422  0.66832760  0.96764322  1
  O  O444  1  0.50124906  0.15553852  0.30406542  1
  O  O445  1  0.51201881  0.17126824  0.63980830  1
  O  O446  1  0.51305616  0.16185018  0.96127410  1
  O  O447  1  0.50401989  0.66469503  0.30065455  1
  O  O448  1  0.50257010  0.67018380  0.63628173  1
  O  O449  1  0.50761035  0.67152597  0.96882582  1
  O  O450  1  0.34393883  0.49148529  0.19990088  1
  O  O451  1  0.33083661  0.49373304  0.52951034  1
  O  O452  1  0.33975900  0.51141556  0.85651578  1
  O  O453  1  0.33866684  1.00022965  0.18971091  1
  O  O454  1  0.32691420  0.99431030  0.53398165  1
  O  O455  1  0.32750958  0.99209538  0.86118791  1
  O  O456  1  0.83574256  0.49474235  0.19781437  1
  O  O457  1  0.82774637  0.49007330  0.52870263  1
  O  O458  1  0.82819601  0.48657439  0.86143359  1
  O  O459  1  0.83413855  0.98795694  0.19683475  1
  O  O460  1  0.83243352  0.99040866  0.53051990  1
  O  O461  1  0.83311549  0.98877294  0.86250842  1
