# generated using pymatgen
data_Na31Fe20(SO4)36
_symmetry_space_group_name_H-M   'P 1'
_cell_length_a   18.07264761
_cell_length_b   18.07470313
_cell_length_c   19.71728356
_cell_angle_alpha   107.61313508
_cell_angle_beta   107.59146312
_cell_angle_gamma   90.67182015
_symmetry_Int_Tables_number   1
_chemical_formula_structural   Na31Fe20(SO4)36
_chemical_formula_sum   'Na62 Fe40 S72 O288'
_cell_volume   5813.93207990
_cell_formula_units_Z   2
loop_
 _symmetry_equiv_pos_site_id
 _symmetry_equiv_pos_as_xyz
  1  'x, y, z'
loop_
 _atom_site_type_symbol
 _atom_site_label
 _atom_site_symmetry_multiplicity
 _atom_site_fract_x
 _atom_site_fract_y
 _atom_site_fract_z
 _atom_site_occupancy
  Na  Na0  1  0.13629460  0.33477915  0.04425825  1
  Na  Na1  1  0.13965253  0.36161408  0.42272880  1
  Na  Na2  1  0.16506708  0.35023110  0.74825444  1
  Na  Na3  1  0.13198870  0.86605426  0.08869925  1
  Na  Na4  1  0.13020360  0.85951082  0.41245726  1
  Na  Na5  1  0.13439368  0.86516245  0.74985724  1
  Na  Na6  1  0.62220308  0.37125130  0.08176628  1
  Na  Na7  1  0.62651038  0.37564635  0.41895907  1
  Na  Na8  1  0.63527594  0.36751164  0.75397131  1
  Na  Na9  1  0.63876270  0.86976132  0.08579484  1
  Na  Na10  1  0.63413897  0.86584484  0.41661086  1
  Na  Na11  1  0.62911258  0.87271191  0.74837927  1
  Na  Na12  1  0.36371154  0.13598851  0.25083239  1
  Na  Na13  1  0.34842347  0.17346007  0.61270444  1
  Na  Na14  1  0.34772791  0.12920584  0.90381164  1
  Na  Na15  1  0.34363363  0.63232161  0.22411756  1
  Na  Na16  1  0.38851095  0.62254612  0.57833159  1
  Na  Na17  1  0.37324117  0.63648710  0.92163277  1
  Na  Na18  1  0.86422661  0.12470798  0.24972937  1
  Na  Na19  1  0.87435601  0.13089464  0.58618625  1
  Na  Na20  1  0.86164193  0.13425555  0.91489977  1
  Na  Na21  1  0.86331888  0.63516979  0.24682487  1
  Na  Na22  1  0.86676800  0.63646770  0.58849156  1
  Na  Na23  1  0.87723617  0.64150099  0.92996649  1
  Na  Na24  1  0.99330227  0.51078013  0.41501256  1
  Na  Na25  1  1.00525882  0.03541218  0.75439287  1
  Na  Na26  1  0.47871400  0.00409051  0.43135340  1
  Na  Na27  1  1.04561334  0.48533108  0.02554205  1
  Na  Na28  1  1.02089015  0.47318461  0.78948308  1
  Na  Na29  1  0.49297655  0.01348588  0.07308918  1
  Na  Na30  1  0.96646022  0.00628793  0.41836814  1
  Na  Na31  1  0.94634840  -0.00259631  0.06253667  1
  Na  Na32  1  0.50271421  0.50357997  0.74551640  1
  Na  Na33  1  -0.01525826  1.01066079  0.91087574  1
  Na  Na34  1  0.51561236  0.98785938  0.25344101  1
  Na  Na35  1  -0.00475553  0.94228052  0.23195540  1
  Na  Na36  1  0.48325922  0.50892106  0.25832389  1
  Na  Na37  1  0.01409144  0.49373961  0.23364060  1
  Na  Na38  1  0.50307076  0.46110968  0.91952775  1
  Na  Na39  1  0.00965360  0.48411259  0.59236094  1
  Na  Na40  1  0.50990937  1.01192556  0.88538398  1
  Na  Na41  1  0.48193077  0.99236823  0.61756073  1
  Na  Na42  1  0.25643915  0.74970000  0.31525570  1
  Na  Na43  1  0.73289291  0.74287550  0.66865533  1
  Na  Na44  1  0.24230633  0.24073906  0.34460603  1
  Na  Na45  1  0.74572571  0.24682812  0.33850057  1
  Na  Na46  1  0.25855426  0.75118296  0.66061347  1
  Na  Na47  1  0.75068936  0.24833903  0.66940166  1
  Na  Na48  1  0.74107001  0.24836728  0.00371780  1
  Na  Na49  1  0.77309606  0.77499735  -0.00280909  1
  Na  Na50  1  0.24133302  0.73063724  0.02327814  1
  Na  Na51  1  0.75796261  0.76158255  0.32821449  1
  Na  Na52  1  0.22499050  0.22085266  0.83939642  1
  Na  Na53  1  0.76111294  0.76732694  0.83509867  1
  Na  Na54  1  0.77243064  0.77344279  0.16130381  1
  Na  Na55  1  0.74742952  0.24919685  0.83492311  1
  Na  Na56  1  0.25270550  0.75072578  0.49179475  1
  Na  Na57  1  0.73646977  0.74400795  0.50567359  1
  Na  Na58  1  0.74656290  0.24929865  0.17023082  1
  Na  Na59  1  0.25188018  0.25619034  0.15276543  1
  Na  Na60  1  0.25038182  0.74648376  0.83650783  1
  Na  Na61  1  0.74780208  0.24640721  0.50306911  1
  Fe  Fe62  1  0.96462686  0.81042032  0.45942613  1
  Fe  Fe63  1  0.96824283  0.30494010  0.45425352  1
  Fe  Fe64  1  0.46660107  0.79967143  0.45535755  1
  Fe  Fe65  1  0.96802095  0.30276994  0.11713728  1
  Fe  Fe66  1  0.46686494  0.80553830  0.11701301  1
  Fe  Fe67  1  0.96482641  0.80956349  0.78947497  1
  Fe  Fe68  1  0.45900205  0.30833487  0.11787900  1
  Fe  Fe69  1  0.46116410  0.31596250  0.45481838  1
  Fe  Fe70  1  0.97386817  0.29992080  0.79210929  1
  Fe  Fe71  1  0.46815417  0.80592077  0.78580502  1
  Fe  Fe72  1  0.19327890  0.03419550  0.38456286  1
  Fe  Fe73  1  0.69464631  0.53649046  0.05142024  1
  Fe  Fe74  1  0.69246154  0.03775026  0.71160046  1
  Fe  Fe75  1  0.19117673  0.53515346  0.37967663  1
  Fe  Fe76  1  0.70098781  0.03253808  0.37674505  1
  Fe  Fe77  1  0.68916952  0.53782099  0.38359408  1
  Fe  Fe78  1  0.69071761  0.53798709  0.71159581  1
  Fe  Fe79  1  0.19709026  0.53426526  0.71464208  1
  Fe  Fe80  1  0.69580711  0.03396509  0.04188395  1
  Fe  Fe81  1  0.18583342  0.03273908  0.04620550  1
  Fe  Fe82  1  0.53168784  0.19932616  0.54751212  1
  Fe  Fe83  1  0.52294404  0.20320677  0.86873170  1
  Fe  Fe84  1  0.03732444  0.69081485  0.88584398  1
  Fe  Fe85  1  0.03335680  0.69409033  0.20674020  1
  Fe  Fe86  1  0.03291550  0.18837484  0.21559494  1
  Fe  Fe87  1  0.53822269  0.69066770  0.21323250  1
  Fe  Fe88  1  0.04411921  0.18730463  0.54887989  1
  Fe  Fe89  1  0.53155311  0.19631378  0.21279567  1
  Fe  Fe90  1  0.53826672  0.69438721  0.88261681  1
  Fe  Fe91  1  0.03565986  0.69235528  0.55006932  1
  Fe  Fe92  1  0.31195746  0.46078750  0.61811492  1
  Fe  Fe93  1  0.29970898  0.46807780  0.28046522  1
  Fe  Fe94  1  0.81047729  0.46577811  0.62290680  1
  Fe  Fe95  1  0.29369541  0.96915333  0.62877602  1
  Fe  Fe96  1  0.30451386  0.96553793  0.95193329  1
  Fe  Fe97  1  0.30510441  0.46971299  0.95445466  1
  Fe  Fe98  1  0.81078025  0.46590668  0.95644214  1
  Fe  Fe99  1  0.80880752  0.96502551  0.62060726  1
  Fe  Fe100  1  0.30658228  0.96250229  0.28385295  1
  Fe  Fe101  1  0.80620060  0.46543170  0.28743280  1
  S  S102  1  0.35846407  0.13872407  0.08506614  1
  S  S103  1  0.36099451  0.13746123  0.41441286  1
  S  S104  1  0.36183591  0.13440037  0.75359109  1
  S  S105  1  0.36728607  0.63777840  0.08173947  1
  S  S106  1  0.35514833  0.63887721  0.40845666  1
  S  S107  1  0.36313764  0.63946423  0.74757383  1
  S  S108  1  0.85639557  0.14592140  0.08338213  1
  S  S109  1  0.86233023  0.14338736  0.41715146  1
  S  S110  1  0.86077370  0.13957884  0.75280523  1
  S  S111  1  0.85692622  0.64025007  0.08535600  1
  S  S112  1  0.85937521  0.64076412  0.41971776  1
  S  S113  1  0.86117734  0.63947726  0.75219217  1
  S  S114  1  0.13888662  0.35755126  0.25157169  1
  S  S115  1  0.14087468  0.36038297  0.58356633  1
  S  S116  1  0.14386830  0.36428546  0.90802115  1
  S  S117  1  0.14377699  0.85941869  0.25291402  1
  S  S118  1  0.13962678  0.85386601  0.58395080  1
  S  S119  1  0.14434554  0.85434109  0.91799241  1
  S  S120  1  0.63830007  0.36114046  0.25101805  1
  S  S121  1  0.64224150  0.36173874  0.58272193  1
  S  S122  1  0.64194804  0.36461191  0.91993000  1
  S  S123  1  0.63908122  0.85964137  0.24989662  1
  S  S124  1  0.63745399  0.86467432  0.58187169  1
  S  S125  1  0.63888622  0.86302791  0.91805314  1
  S  S126  1  0.05922105  0.16134829  0.04491759  1
  S  S127  1  0.06739782  0.16755891  0.37549781  1
  S  S128  1  0.06482226  0.16879300  0.70656325  1
  S  S129  1  0.07318000  0.67360837  0.04554962  1
  S  S130  1  0.06116703  0.66361830  0.37361186  1
  S  S131  1  0.06759784  0.66690742  0.70997790  1
  S  S132  1  0.56432480  0.17364475  0.03965954  1
  S  S133  1  0.56954389  0.17214603  0.37586386  1
  S  S134  1  0.57258489  0.17436400  0.70548058  1
  S  S135  1  0.57484070  0.67165695  0.04399348  1
  S  S136  1  0.56609423  0.67112578  0.37436398  1
  S  S137  1  0.57110954  0.67448550  0.71456124  1
  S  S138  1  0.32665941  0.42888983  0.11950673  1
  S  S139  1  0.32455450  0.43331640  0.45149147  1
  S  S140  1  0.33973949  0.44143268  0.79222474  1
  S  S141  1  0.33722316  0.93254259  0.12551463  1
  S  S142  1  0.32690167  0.92862685  0.46116777  1
  S  S143  1  0.32897737  0.92590159  0.79127718  1
  S  S144  1  0.82934180  0.43002454  0.12711752  1
  S  S145  1  0.83438612  0.43362843  0.45967629  1
  S  S146  1  0.83207109  0.42791249  0.79252942  1
  S  S147  1  0.82705704  0.94066925  0.12477788  1
  S  S148  1  0.82890364  0.93373852  0.45938880  1
  S  S149  1  0.82748941  0.93481176  0.78754762  1
  S  S150  1  0.42834963  0.33083048  0.28809175  1
  S  S151  1  0.44037573  0.34318913  0.62472577  1
  S  S152  1  0.42377139  0.32791164  0.95559530  1
  S  S153  1  0.43219376  0.83037010  0.29205648  1
  S  S154  1  0.42354190  0.83055977  0.62398596  1
  S  S155  1  0.43387075  0.83204127  0.95790738  1
  S  S156  1  0.93285147  0.33077712  0.29287337  1
  S  S157  1  0.93341080  0.33102604  0.62678503  1
  S  S158  1  0.93393786  0.33062369  0.95779368  1
  S  S159  1  0.93658547  0.82626227  0.29592183  1
  S  S160  1  0.93164337  0.82869474  0.62590693  1
  S  S161  1  0.94149754  0.83385282  0.95346392  1
  S  S162  1  0.17091992  0.06614091  0.21185776  1
  S  S163  1  0.16728630  0.05929246  0.53733253  1
  S  S164  1  0.16234698  0.05475485  0.87956017  1
  S  S165  1  0.15998199  0.55918229  0.20404781  1
  S  S166  1  0.16728492  0.56539353  0.54086126  1
  S  S167  1  0.17937071  0.57089570  0.87526596  1
  S  S168  1  0.66348300  0.07094281  0.20603380  1
  S  S169  1  0.67037831  0.07226926  0.53878240  1
  S  S170  1  0.66581605  0.07709475  0.87350667  1
  S  S171  1  0.67201490  0.56783297  0.21518907  1
  S  S172  1  0.67421743  0.56873931  0.54756386  1
  S  S173  1  0.67548563  0.57130861  0.87884608  1
  O  O174  1  0.36640558  0.21909711  0.08158885  1
  O  O175  1  0.37243110  0.21388485  0.40205414  1
  O  O176  1  0.38021552  0.20721527  0.74225099  1
  O  O177  1  0.38166602  0.71288854  0.06622902  1
  O  O178  1  0.36577319  0.72023924  0.40379328  1
  O  O179  1  0.37346764  0.71750384  0.73810193  1
  O  O180  1  0.86656111  0.22736573  0.07917527  1
  O  O181  1  0.87063985  0.22452185  0.41113813  1
  O  O182  1  0.86999068  0.22055964  0.74764526  1
  O  O183  1  0.85962175  0.71748057  0.07638420  1
  O  O184  1  0.86807720  0.71975432  0.41240844  1
  O  O185  1  0.86868227  0.71845102  0.74291509  1
  O  O186  1  0.28158634  0.12637565  0.09574376  1
  O  O187  1  0.28084157  0.12934648  0.41837178  1
  O  O188  1  0.28866639  0.12772408  0.76949070  1
  O  O189  1  0.29163227  0.63533620  0.09264475  1
  O  O190  1  0.27281410  0.63207492  0.41240617  1
  O  O191  1  0.28290493  0.63280186  0.75357247  1
  O  O192  1  0.77524010  0.13883163  0.08795444  1
  O  O193  1  0.78110712  0.13543774  0.42193009  1
  O  O194  1  0.77931880  0.13172990  0.75759921  1
  O  O195  1  0.78061736  0.62632558  0.09938841  1
  O  O196  1  0.78088275  0.63085565  0.42805993  1
  O  O197  1  0.78100567  0.63061307  0.75833671  1
  O  O198  1  0.12954354  0.27876119  0.25987758  1
  O  O199  1  0.13155409  0.28233042  0.59112710  1
  O  O200  1  0.14208273  0.28485475  0.91164772  1
  O  O201  1  0.13332760  0.78083452  0.26182652  1
  O  O202  1  0.13425473  0.77068255  0.58588374  1
  O  O203  1  0.13822761  0.77398468  0.92348503  1
  O  O204  1  0.62967533  0.28158450  0.25863935  1
  O  O205  1  0.63338745  0.28178825  0.58926660  1
  O  O206  1  0.62863812  0.28594843  0.92705160  1
  O  O207  1  0.62596790  0.78281743  0.26225457  1
  O  O208  1  0.63313429  0.78930434  0.59407248  1
  O  O209  1  0.62726584  0.78555403  0.92966475  1
  O  O210  1  0.21730694  0.36622143  0.24244490  1
  O  O211  1  0.21730503  0.37314412  0.57351983  1
  O  O212  1  0.22132421  0.38211563  0.89540367  1
  O  O213  1  0.22614051  0.86854830  0.25171237  1
  O  O214  1  0.22118929  0.86531354  0.57765249  1
  O  O215  1  0.22271504  0.86566315  0.90898699  1
  O  O216  1  0.71812566  0.36963596  0.24396907  1
  O  O217  1  0.72105545  0.36944457  0.57287839  1
  O  O218  1  0.72398008  0.37038947  0.91636846  1
  O  O219  1  0.71548208  0.86506316  0.24063736  1
  O  O220  1  0.71477900  0.87714219  0.56990424  1
  O  O221  1  0.71663666  0.87025307  0.91131684  1
  O  O222  1  0.42054406  0.12859661  0.15137348  1
  O  O223  1  0.41938356  0.13120288  0.48376805  1
  O  O224  1  0.42632861  0.11987564  0.81672640  1
  O  O225  1  0.42886075  0.63109489  0.14908686  1
  O  O226  1  0.41097578  0.62810451  0.47361214  1
  O  O227  1  0.42076396  0.63363940  0.81749309  1
  O  O228  1  0.91210653  0.13825588  0.15391435  1
  O  O229  1  0.91895988  0.13793566  0.48783920  1
  O  O230  1  0.91761250  0.12688679  0.81739354  1
  O  O231  1  0.91862443  0.63245770  0.15174995  1
  O  O232  1  0.91903741  0.63148979  0.48730514  1
  O  O233  1  0.91857205  0.63150082  0.82046632  1
  O  O234  1  0.36764869  0.08189888  0.01597184  1
  O  O235  1  0.37184661  0.07429204  0.34890618  1
  O  O236  1  0.36151640  0.06885801  0.68134131  1
  O  O237  1  0.37320749  0.57398620  0.01393087  1
  O  O238  1  0.35934878  0.58308404  0.33610924  1
  O  O239  1  0.37208883  0.57853437  0.68109851  1
  O  O240  1  0.86707696  0.08886982  0.01767036  1
  O  O241  1  0.87329986  0.08529102  0.35257402  1
  O  O242  1  0.86616759  0.08282951  0.68164898  1
  O  O243  1  0.86242687  0.58014125  0.01621311  1
  O  O244  1  0.86830258  0.58145520  0.35179450  1
  O  O245  1  0.87050456  0.58069634  0.68456895  1
  O  O246  1  0.07816992  0.36669676  0.18488385  1
  O  O247  1  0.07869659  0.36969441  0.51644799  1
  O  O248  1  0.08190140  0.37097819  0.83880188  1
  O  O249  1  0.08779904  0.86882007  0.18613920  1
  O  O250  1  0.08376656  0.85853398  0.51289237  1
  O  O251  1  0.08435285  0.86240203  0.85052819  1
  O  O252  1  0.57964274  0.36838699  0.18300157  1
  O  O253  1  0.58238525  0.36958436  0.51566439  1
  O  O254  1  0.58669384  0.37788515  0.85475392  1
  O  O255  1  0.57718371  0.86825580  0.18261458  1
  O  O256  1  0.57652225  0.86929549  0.51284112  1
  O  O257  1  0.57896406  0.87069938  0.84904965  1
  O  O258  1  0.13149471  0.41689201  0.32008157  1
  O  O259  1  0.13117569  0.42006209  0.65144963  1
  O  O260  1  0.13590026  0.42088050  0.97534366  1
  O  O261  1  0.13406372  0.91882323  0.32104276  1
  O  O262  1  0.12972595  0.90769396  0.65036137  1
  O  O263  1  0.13750328  0.91111868  0.98758190  1
  O  O264  1  0.63128387  0.41970301  0.31963011  1
  O  O265  1  0.63848331  0.41982806  0.65278880  1
  O  O266  1  0.63535982  0.42367087  0.99018059  1
  O  O267  1  0.63065334  0.92168407  0.31708797  1
  O  O268  1  0.62757038  0.92760674  0.64773236  1
  O  O269  1  0.62742009  0.92369333  0.98409262  1
  O  O270  1  0.02980025  0.19771393  0.11180934  1
  O  O271  1  0.03269601  0.19890733  0.43837000  1
  O  O272  1  0.02350969  0.20125687  0.76349721  1
  O  O273  1  0.03298493  0.69405100  0.10323675  1
  O  O274  1  0.02549112  0.69050258  0.43545734  1
  O  O275  1  0.03156861  0.69444733  0.77069901  1
  O  O276  1  0.52726901  0.20207114  0.10091142  1
  O  O277  1  0.53427964  0.20013337  0.43735029  1
  O  O278  1  0.54691359  0.20493122  0.77111590  1
  O  O279  1  0.54088688  0.70264281  0.10665877  1
  O  O280  1  0.53127201  0.70157288  0.43412270  1
  O  O281  1  0.53665309  0.70562158  0.77870700  1
  O  O282  1  0.30687084  0.46043872  0.05578904  1
  O  O283  1  0.29571632  0.47274325  0.39214782  1
  O  O284  1  0.29890826  0.47496484  0.72942130  1
  O  O285  1  0.30628144  0.96744010  0.06411608  1
  O  O286  1  0.30209397  0.97168178  0.40503165  1
  O  O287  1  0.29865004  0.95726328  0.72824416  1
  O  O288  1  0.80074863  0.46636709  0.06649988  1
  O  O289  1  0.80286997  0.46931351  0.39857331  1
  O  O290  1  0.80443338  0.46508433  0.73196428  1
  O  O291  1  0.79491705  0.97942837  0.06589321  1
  O  O292  1  0.80167189  0.97272492  0.40169634  1
  O  O293  1  0.79404117  0.96614815  0.72185554  1
  O  O294  1  0.46906061  0.30077304  0.22968806  1
  O  O295  1  0.46759340  0.30278540  0.55662398  1
  O  O296  1  0.46645653  0.30597471  0.90026745  1
  O  O297  1  0.46734674  0.80203010  0.23016243  1
  O  O298  1  0.45989018  0.81805820  0.56470895  1
  O  O299  1  0.46783430  0.80100835  0.89559381  1
  O  O300  1  0.96763595  0.30013100  0.23148236  1
  O  O301  1  0.96939421  0.30326299  0.56581508  1
  O  O302  1  0.97089546  0.31059686  0.89819458  1
  O  O303  1  0.97286036  0.79457224  0.23647351  1
  O  O304  1  0.96996052  0.79867453  0.56562466  1
  O  O305  1  0.97467694  0.79130154  0.88998966  1
  O  O306  1  0.20141770  0.02817808  0.27185363  1
  O  O307  1  0.19721731  0.02288838  0.59803582  1
  O  O308  1  0.20335187  0.02487145  0.94684728  1
  O  O309  1  0.19128211  0.52510584  0.26859143  1
  O  O310  1  0.20018014  0.53172321  0.60293070  1
  O  O311  1  0.21409026  0.53861835  0.93699317  1
  O  O312  1  0.68635876  0.03659956  0.26701501  1
  O  O313  1  0.69853985  0.03802850  0.60090749  1
  O  O314  1  0.68394910  0.04085250  0.93335742  1
  O  O315  1  0.70334796  0.52995818  0.27588333  1
  O  O316  1  0.71064414  0.52950378  0.60726125  1
  O  O317  1  0.70262760  0.53254918  0.93834440  1
  O  O318  1  0.07741275  0.08002314  0.04485540  1
  O  O319  1  0.08465487  0.08625516  0.37045028  1
  O  O320  1  0.07835877  0.08904162  0.70384052  1
  O  O321  1  0.10213417  0.59775477  0.03692979  1
  O  O322  1  0.07796782  0.57997466  0.36700681  1
  O  O323  1  0.08756676  0.58519392  0.70286498  1
  O  O324  1  0.58178423  0.09135972  0.03354938  1
  O  O325  1  0.59036074  0.09107030  0.36901592  1
  O  O326  1  0.58686035  0.09011890  0.69228075  1
  O  O327  1  0.58922062  0.58888310  0.03615124  1
  O  O328  1  0.58523407  0.58906665  0.36939472  1
  O  O329  1  0.59148214  0.59419104  0.71534975  1
  O  O330  1  0.41081782  0.41308682  0.13860255  1
  O  O331  1  0.40470592  0.41461926  0.45500751  1
  O  O332  1  0.42336153  0.44624491  0.79979342  1
  O  O333  1  0.42128491  0.91883857  0.13183610  1
  O  O334  1  0.41068212  0.91501686  0.46976509  1
  O  O335  1  0.41199693  0.91004364  0.80083789  1
  O  O336  1  0.90936773  0.40778520  0.13147044  1
  O  O337  1  0.91681082  0.41704557  0.46350888  1
  O  O338  1  0.91051544  0.40201612  0.79365360  1
  O  O339  1  0.90398676  0.91766509  0.11833975  1
  O  O340  1  0.90970154  0.91357734  0.46267499  1
  O  O341  1  0.90704984  0.91158636  0.78659038  1
  O  O342  1  0.40830244  0.41063071  0.28919998  1
  O  O343  1  0.42103187  0.42349904  0.62141764  1
  O  O344  1  0.39993253  0.40859381  0.95708949  1
  O  O345  1  0.41768500  0.91473995  0.30022616  1
  O  O346  1  0.39357547  0.90954555  0.63639114  1
  O  O347  1  0.41468627  0.91354995  0.96292427  1
  O  O348  1  0.91632854  0.41366935  0.29905351  1
  O  O349  1  0.91829769  0.41471000  0.63411924  1
  O  O350  1  0.91556807  0.41365574  0.97272200  1
  O  O351  1  0.92548712  0.90848265  0.30316672  1
  O  O352  1  0.91578896  0.91042682  0.63292458  1
  O  O353  1  0.92302735  0.90996942  0.94327468  1
  O  O354  1  0.08917991  0.08244229  0.20657680  1
  O  O355  1  0.08503306  0.07663768  0.53160215  1
  O  O356  1  0.08276276  0.06819058  0.88261264  1
  O  O357  1  0.08218915  0.58577537  0.20785939  1
  O  O358  1  0.08441802  0.58086986  0.53779130  1
  O  O359  1  0.09892722  0.59026799  0.87412680  1
  O  O360  1  0.57920322  0.08812774  0.19434043  1
  O  O361  1  0.58843762  0.09144856  0.53072033  1
  O  O362  1  0.58550179  0.10116154  0.86231629  1
  O  O363  1  0.59127512  0.58454069  0.21217122  1
  O  O364  1  0.59766385  0.58701010  0.54916658  1
  O  O365  1  0.59308289  0.58859214  0.87170927  1
  O  O366  1  0.13042962  0.21038839  0.05652741  1
  O  O367  1  0.13665952  0.21971595  0.38854887  1
  O  O368  1  0.13701461  0.22020431  0.72492552  1
  O  O369  1  0.13635995  0.73555861  0.06215485  1
  O  O370  1  0.13319362  0.71453131  0.39101333  1
  O  O371  1  0.13783408  0.71980271  0.72482799  1
  O  O372  1  0.63649321  0.22662836  0.05971188  1
  O  O373  1  0.63931835  0.22679455  0.39157847  1
  O  O374  1  0.64535200  0.22235186  0.71616579  1
  O  O375  1  0.64623331  0.72223292  0.05868745  1
  O  O376  1  0.63821486  0.72165894  0.38788601  1
  O  O377  1  0.64330723  0.72722090  0.73282052  1
  O  O378  1  0.27424348  0.35864034  0.10350442  1
  O  O379  1  0.27146355  0.36236321  0.43284012  1
  O  O380  1  0.30153632  0.36399223  0.77576239  1
  O  O381  1  0.28952335  0.86016628  0.11167070  1
  O  O382  1  0.27550781  0.85465628  0.43619941  1
  O  O383  1  0.27941137  0.85347579  0.77741149  1
  O  O384  1  0.77383836  0.36212605  0.11340301  1
  O  O385  1  0.78349897  0.36217472  0.44463579  1
  O  O386  1  0.77548228  0.36004850  0.77754102  1
  O  O387  1  0.77255566  0.86880326  0.10605044  1
  O  O388  1  0.77601715  0.86250256  0.44261787  1
  O  O389  1  0.77401832  0.86524413  0.77438009  1
  O  O390  1  0.35801994  0.27653655  0.26948171  1
  O  O391  1  0.37051577  0.29733738  0.61833503  1
  O  O392  1  0.35618944  0.27222496  0.93883328  1
  O  O393  1  0.36056894  0.78031416  0.27560728  1
  O  O394  1  0.35848699  0.76900891  0.60411542  1
  O  O395  1  0.36413557  0.77987683  0.94459603  1
  O  O396  1  0.86058429  0.28112071  0.27858366  1
  O  O397  1  0.86038552  0.28093276  0.60947696  1
  O  O398  1  0.86295819  0.27701985  0.93895467  1
  O  O399  1  0.86167436  0.77750714  0.27823997  1
  O  O400  1  0.85921099  0.77690974  0.60690040  1
  O  O401  1  0.86924406  0.78318577  0.94017369  1
  O  O402  1  0.22247262  0.13841289  0.22991595  1
  O  O403  1  0.21746016  0.12919269  0.54979039  1
  O  O404  1  0.21108461  0.12633103  0.89232679  1
  O  O405  1  0.21448011  0.62688865  0.21729374  1
  O  O406  1  0.21648154  0.63632895  0.55247584  1
  O  O407  1  0.23000731  0.64081423  0.88491152  1
  O  O408  1  0.71531760  0.14354673  0.22413596  1
  O  O409  1  0.72377135  0.14305633  0.55479211  1
  O  O410  1  0.72336019  0.14592583  0.89251272  1
  O  O411  1  0.72404085  0.63931772  0.23274280  1
  O  O412  1  0.72997835  0.63860293  0.56347094  1
  O  O413  1  0.72786861  0.64270409  0.89671181  1
  O  O414  1  0.48175975  0.33718903  0.03177485  1
  O  O415  1  0.48606852  0.33363802  0.36161835  1
  O  O416  1  0.50653610  0.35390234  0.69268781  1
  O  O417  1  0.49542341  0.83627999  0.03006442  1
  O  O418  1  0.49126210  0.83246892  0.36486599  1
  O  O419  1  0.48561540  0.83336149  0.69517606  1
  O  O420  1  0.99417797  0.32744934  0.02858402  1
  O  O421  1  0.99297952  0.33316362  0.36516545  1
  O  O422  1  0.99112002  0.33198218  0.69929370  1
  O  O423  1  0.99980677  0.84328231  0.02564828  1
  O  O424  1  0.99200063  0.82327430  0.36950717  1
  O  O425  1  0.98997954  0.82604298  0.69715832  1
  O  O426  1  0.17224131  0.00816727  0.13983264  1
  O  O427  1  0.16276555  -0.00174287  0.46415685  1
  O  O428  1  0.15870898  -0.00687476  0.81025685  1
  O  O429  1  0.14854237  0.49543091  0.13415755  1
  O  O430  1  0.16139405  0.50521883  0.46750807  1
  O  O431  1  0.16912109  0.50840667  0.80132806  1
  O  O432  1  0.66428021  0.01309725  0.13410151  1
  O  O433  1  0.66957154  0.01196727  0.46723712  1
  O  O434  1  0.66690922  0.01680059  0.80229527  1
  O  O435  1  0.67098216  0.50952549  0.14280761  1
  O  O436  1  0.67396089  0.51040816  0.47386155  1
  O  O437  1  0.67408625  0.51242130  0.80590781  1
  O  O438  1  0.00516515  0.16563309  0.30402714  1
  O  O439  1  0.00898740  0.17006662  0.63192655  1
  O  O440  1  -0.00427648  0.15530139  0.97646246  1
  O  O441  1  0.00289628  0.66176521  0.30150404  1
  O  O442  1  0.00750443  0.66372092  0.63703454  1
  O  O443  1  0.01054146  0.67051642  0.97207349  1
  O  O444  1  0.50893671  0.16955265  0.30371031  1
  O  O445  1  0.50923514  0.17684416  0.63651629  1
  O  O446  1  0.50701968  0.17311129  0.96755071  1
  O  O447  1  0.50692963  0.66489860  0.29972726  1
  O  O448  1  0.51286869  0.67197095  0.64497995  1
  O  O449  1  0.51372188  0.67185552  0.97278683  1
  O  O450  1  0.32214384  0.49179176  0.18813163  1
  O  O451  1  0.32464433  0.49091252  0.52411852  1
  O  O452  1  0.33150655  0.49606866  0.86504665  1
  O  O453  1  0.33922521  0.99235108  0.19821902  1
  O  O454  1  0.32419206  0.98079303  0.53534144  1
  O  O455  1  0.32901932  0.98735816  0.86201957  1
  O  O456  1  0.83540866  0.49128826  0.20045835  1
  O  O457  1  0.83909831  0.49255214  0.53309120  1
  O  O458  1  0.83862790  0.48800194  0.86563990  1
  O  O459  1  0.83581984  0.99419873  0.19982662  1
  O  O460  1  0.83333737  0.99106134  0.53410757  1
  O  O461  1  0.83595301  0.99798518  0.85685133  1
