# generated using pymatgen
data_Na31Fe20(SO4)36
_symmetry_space_group_name_H-M   'P 1'
_cell_length_a   18.06653561
_cell_length_b   18.06389055
_cell_length_c   19.69292325
_cell_angle_alpha   107.57653662
_cell_angle_beta   107.57269838
_cell_angle_gamma   90.70586771
_symmetry_Int_Tables_number   1
_chemical_formula_structural   Na31Fe20(SO4)36
_chemical_formula_sum   'Na62 Fe40 S72 O288'
_cell_volume   5802.88111842
_cell_formula_units_Z   2
loop_
 _symmetry_equiv_pos_site_id
 _symmetry_equiv_pos_as_xyz
  1  'x, y, z'
loop_
 _atom_site_type_symbol
 _atom_site_label
 _atom_site_symmetry_multiplicity
 _atom_site_fract_x
 _atom_site_fract_y
 _atom_site_fract_z
 _atom_site_occupancy
  Na  Na0  1  0.13026795  0.34836810  0.06980643  1
  Na  Na1  1  0.13630897  0.36607679  0.41531119  1
  Na  Na2  1  0.14122713  0.37411812  0.75468561  1
  Na  Na3  1  0.12636171  0.85851469  0.06595851  1
  Na  Na4  1  0.13692304  0.86645524  0.42256166  1
  Na  Na5  1  0.12929355  0.86863773  0.75211109  1
  Na  Na6  1  0.64503511  0.36415813  0.09051848  1
  Na  Na7  1  0.64286606  0.36629999  0.42444454  1
  Na  Na8  1  0.63469664  0.36979362  0.75463054  1
  Na  Na9  1  0.64608215  0.84503467  0.07720142  1
  Na  Na10  1  0.63338932  0.86808415  0.41698878  1
  Na  Na11  1  0.63519143  0.87566982  0.75726221  1
  Na  Na12  1  0.36247995  0.12759312  0.24015680  1
  Na  Na13  1  0.37948524  0.14573154  0.60349183  1
  Na  Na14  1  0.35231763  0.13376298  0.91329285  1
  Na  Na15  1  0.36709199  0.63213423  0.24973367  1
  Na  Na16  1  0.36373461  0.63655613  0.58758558  1
  Na  Na17  1  0.35776694  0.62866491  0.90534510  1
  Na  Na18  1  0.86118317  0.13896776  0.24429952  1
  Na  Na19  1  0.87350350  0.13935246  0.59046097  1
  Na  Na20  1  0.86834468  0.13428563  0.91885405  1
  Na  Na21  1  0.86023358  0.63762945  0.24375738  1
  Na  Na22  1  0.87436467  0.62787346  0.58392585  1
  Na  Na23  1  0.86921359  0.63974029  0.92175792  1
  Na  Na24  1  0.99021386  -0.00579272  0.44806219  1
  Na  Na25  1  0.99298092  0.49917755  0.06792411  1
  Na  Na26  1  0.98413290  0.53476712  0.42899357  1
  Na  Na27  1  0.48762652  0.50162570  0.75248813  1
  Na  Na28  1  0.50033915  0.50577150  0.39296707  1
  Na  Na29  1  0.99168322  0.54562882  0.77581729  1
  Na  Na30  1  0.99168513  0.02133471  0.07502044  1
  Na  Na31  1  0.49313970  0.00938023  0.42184564  1
  Na  Na32  1  0.48659513  0.50078705  0.09479929  1
  Na  Na33  1  0.00518091  0.44666714  0.23424872  1
  Na  Na34  1  0.50779487  0.45712582  0.91319318  1
  Na  Na35  1  0.02060298  0.99415632  0.89288651  1
  Na  Na36  1  0.05005734  0.50220751  0.61292315  1
  Na  Na37  1  0.53302467  0.98918068  0.65366464  1
  Na  Na38  1  0.46258380  1.01262949  0.94930800  1
  Na  Na39  1  0.51133837  0.99275044  0.22885497  1
  Na  Na40  1  0.51637942  0.49069881  0.58049865  1
  Na  Na41  1  0.00565430  0.99204130  0.25258767  1
  Na  Na42  1  0.75780637  0.75906140  0.32045906  1
  Na  Na43  1  0.76139059  0.26299808  0.32102996  1
  Na  Na44  1  0.74908699  0.24514273  0.01180949  1
  Na  Na45  1  0.74902557  0.74722737  0.66600525  1
  Na  Na46  1  0.23357673  0.73942375  -0.00150447  1
  Na  Na47  1  0.24100192  0.74430296  0.33941539  1
  Na  Na48  1  0.25660901  0.25548539  0.67251500  1
  Na  Na49  1  0.74308522  0.24435094  0.67525990  1
  Na  Na50  1  0.22445528  0.73035786  0.67529489  1
  Na  Na51  1  0.25487325  0.25254315  0.32559989  1
  Na  Na52  1  0.24740040  0.74912223  0.16742784  1
  Na  Na53  1  0.75086777  0.75295832  0.49667890  1
  Na  Na54  1  0.23173403  0.73855578  0.51106914  1
  Na  Na55  1  0.23450531  0.74102343  0.84017950  1
  Na  Na56  1  0.25342169  0.24628400  0.50305635  1
  Na  Na57  1  0.76363031  0.26427332  0.50039957  1
  Na  Na58  1  0.74256412  0.23800873  0.84122864  1
  Na  Na59  1  0.26218243  0.25221744  0.14676294  1
  Na  Na60  1  0.24934676  0.24545961  0.83973125  1
  Na  Na61  1  0.74532865  0.74588106  0.84150668  1
  Fe  Fe62  1  0.96286511  0.80689652  0.11656602  1
  Fe  Fe63  1  0.46362761  0.81031683  0.78831201  1
  Fe  Fe64  1  0.96698389  0.79971965  0.46388980  1
  Fe  Fe65  1  0.46407889  0.30779876  0.12025190  1
  Fe  Fe66  1  0.96594023  0.31543271  0.45771560  1
  Fe  Fe67  1  0.46414781  0.80784172  0.45195348  1
  Fe  Fe68  1  0.46433342  0.80090385  0.11174961  1
  Fe  Fe69  1  0.96545877  0.31605500  0.78569255  1
  Fe  Fe70  1  0.46396642  0.30757347  0.45238017  1
  Fe  Fe71  1  0.96362702  0.80190895  0.79145274  1
  Fe  Fe72  1  0.19422454  0.03122859  0.71461261  1
  Fe  Fe73  1  0.18926145  0.53371394  0.37715983  1
  Fe  Fe74  1  0.18608180  0.53589334  0.04202321  1
  Fe  Fe75  1  0.69936327  0.53150980  0.71145078  1
  Fe  Fe76  1  0.69477954  0.03609039  0.38184233  1
  Fe  Fe77  1  0.69202519  0.53233175  0.37935162  1
  Fe  Fe78  1  0.19438670  0.03563649  0.37957497  1
  Fe  Fe79  1  0.20193201  0.02904453  0.03942418  1
  Fe  Fe80  1  0.68829059  0.03740740  0.04697937  1
  Fe  Fe81  1  0.69084361  0.53888860  0.04779731  1
  Fe  Fe82  1  0.53499116  0.19572751  0.55145623  1
  Fe  Fe83  1  0.53944047  0.19009956  0.21152767  1
  Fe  Fe84  1  0.53615790  0.69288769  0.21355168  1
  Fe  Fe85  1  0.53216593  0.69172627  0.54619258  1
  Fe  Fe86  1  0.03156466  0.69264859  0.21198914  1
  Fe  Fe87  1  0.03848057  0.19532786  0.54811140  1
  Fe  Fe88  1  0.02946720  0.19926818  0.20844353  1
  Fe  Fe89  1  0.53224873  0.19805165  0.87637386  1
  Fe  Fe90  1  0.53536462  0.69164101  0.88371272  1
  Fe  Fe91  1  0.03371246  0.19439138  0.87752181  1
  Fe  Fe92  1  0.80128596  0.96619530  0.95287747  1
  Fe  Fe93  1  0.80955827  0.96408656  0.28512363  1
  Fe  Fe94  1  0.30574977  0.96348316  0.28354155  1
  Fe  Fe95  1  0.30473794  0.46741327  0.62312362  1
  Fe  Fe96  1  0.80101648  0.97083762  0.62774711  1
  Fe  Fe97  1  0.30988678  0.96326290  0.62031760  1
  Fe  Fe98  1  0.80658284  0.46392685  0.28149329  1
  Fe  Fe99  1  0.80736259  0.46674102  0.95114286  1
  Fe  Fe100  1  0.30560566  0.46296384  0.94806333  1
  Fe  Fe101  1  0.30534825  0.46420588  0.28266763  1
  S  S102  1  0.36805205  0.13720115  0.08504003  1
  S  S103  1  0.36146713  0.13900815  0.41472922  1
  S  S104  1  0.36091504  0.13660859  0.74975710  1
  S  S105  1  0.36008581  0.63769359  0.08525500  1
  S  S106  1  0.35750508  0.64076052  0.41494849  1
  S  S107  1  0.36253694  0.64168640  0.74732178  1
  S  S108  1  0.85913257  0.13802023  0.08412836  1
  S  S109  1  0.86248033  0.14050801  0.41836286  1
  S  S110  1  0.86183145  0.14639118  0.74651576  1
  S  S111  1  0.85746511  0.64262049  0.08232281  1
  S  S112  1  0.85193654  0.64030019  0.41242123  1
  S  S113  1  0.85307122  0.64503796  0.75170926  1
  S  S114  1  0.14484297  0.35572301  0.24651993  1
  S  S115  1  0.14561561  0.35444861  0.57981059  1
  S  S116  1  0.13953083  0.35965981  0.91736413  1
  S  S117  1  0.13836852  0.86064768  0.25192503  1
  S  S118  1  0.14138959  0.86055467  0.58117237  1
  S  S119  1  0.13781550  0.86180924  0.91240523  1
  S  S120  1  0.63977151  0.35950577  0.25057380  1
  S  S121  1  0.63953209  0.35980947  0.58088609  1
  S  S122  1  0.64519538  0.36158338  0.92059290  1
  S  S123  1  0.63873925  0.86129065  0.24863003  1
  S  S124  1  0.63752108  0.85577898  0.58071374  1
  S  S125  1  0.63709217  0.86035235  0.91965403  1
  S  S126  1  0.06936961  0.15992304  0.03900246  1
  S  S127  1  0.06930676  0.17107199  0.37397501  1
  S  S128  1  0.07588438  0.17421890  0.70915292  1
  S  S129  1  0.06400058  0.67058188  0.04549155  1
  S  S130  1  0.06265837  0.66748100  0.37239831  1
  S  S131  1  0.05851641  0.67226257  0.71323572  1
  S  S132  1  0.56825275  0.17419037  0.04300429  1
  S  S133  1  0.56770497  0.16948122  0.37589528  1
  S  S134  1  0.57435982  0.17927785  0.71524418  1
  S  S135  1  0.56041502  0.65945524  0.03781869  1
  S  S136  1  0.56529898  0.67146738  0.37487983  1
  S  S137  1  0.56856714  0.66830371  0.70794932  1
  S  S138  1  0.32803734  0.43270989  0.12455383  1
  S  S139  1  0.33103047  0.43522365  0.45581807  1
  S  S140  1  0.33695159  0.43560773  0.79129337  1
  S  S141  1  0.32730390  0.92469027  0.12338930  1
  S  S142  1  0.33189739  0.93405824  0.45576150  1
  S  S143  1  0.32779625  0.92898417  0.78690972  1
  S  S144  1  0.83290098  0.44085454  0.12102183  1
  S  S145  1  0.83030366  0.43698922  0.45565459  1
  S  S146  1  0.83014934  0.43545415  0.79032722  1
  S  S147  1  0.83349843  0.93378158  0.12882907  1
  S  S148  1  0.82554116  0.92918273  0.45803673  1
  S  S149  1  0.82729922  0.92957227  0.79291206  1
  S  S150  1  0.43243984  0.32714029  0.28977523  1
  S  S151  1  0.43575244  0.33621558  0.62367584  1
  S  S152  1  0.43566959  0.33087618  0.96171641  1
  S  S153  1  0.43319558  0.83051931  0.28955734  1
  S  S154  1  0.43105379  0.82626974  0.62021018  1
  S  S155  1  0.43128582  0.82342433  0.95433413  1
  S  S156  1  0.93606945  0.33327223  0.29519024  1
  S  S157  1  0.94613050  0.34036076  0.62541441  1
  S  S158  1  0.93324777  0.32922386  0.95445442  1
  S  S159  1  0.93534603  0.83372260  0.29680261  1
  S  S160  1  0.91982473  0.82561636  0.62557366  1
  S  S161  1  0.92981517  0.83575240  0.95916363  1
  S  S162  1  0.16937680  0.06420047  0.20632802  1
  S  S163  1  0.17614889  0.07061720  0.54202674  1
  S  S164  1  0.16783365  0.07328403  0.87221731  1
  S  S165  1  0.16887962  0.56655687  0.20798411  1
  S  S166  1  0.16928922  0.56039623  0.53896846  1
  S  S167  1  0.17100569  0.56452739  0.88097686  1
  S  S168  1  0.67430759  0.06778843  0.21335318  1
  S  S169  1  0.66990056  0.06788358  0.54104240  1
  S  S170  1  0.66883131  0.07010798  0.87923238  1
  S  S171  1  0.66789729  0.56662233  0.20971811  1
  S  S172  1  0.65744884  0.56548707  0.53615819  1
  S  S173  1  0.66943369  0.56813134  0.87368366  1
  O  O174  1  0.37139374  0.22109076  0.08722310  1
  O  O175  1  0.36993882  0.21732836  0.40489108  1
  O  O176  1  0.36571125  0.21010825  0.73391881  1
  O  O177  1  0.36617356  0.71661518  0.07634093  1
  O  O178  1  0.36780188  0.71844756  0.40400653  1
  O  O179  1  0.37806056  0.71687117  0.73320685  1
  O  O180  1  0.86799465  0.21312005  0.07333478  1
  O  O181  1  0.87226813  0.22087434  0.41348511  1
  O  O182  1  0.87984513  0.22069800  0.73075286  1
  O  O183  1  0.87012379  0.72025802  0.07406086  1
  O  O184  1  0.86371996  0.72115972  0.40815081  1
  O  O185  1  0.86294698  0.73085169  0.75482324  1
  O  O186  1  0.29097013  0.12174458  0.09625316  1
  O  O187  1  0.28131579  0.13069139  0.42047087  1
  O  O188  1  0.28197441  0.12428609  0.75868959  1
  O  O189  1  0.28250524  0.62857980  0.09631218  1
  O  O190  1  0.27623523  0.63274680  0.41817674  1
  O  O191  1  0.28548718  0.64038300  0.75679381  1
  O  O192  1  0.78195655  0.12493714  0.09462880  1
  O  O193  1  0.78444323  0.13214429  0.42890707  1
  O  O194  1  0.78426501  0.14739103  0.75488998  1
  O  O195  1  0.77889143  0.63346683  0.08961694  1
  O  O196  1  0.76995032  0.63264723  0.41537817  1
  O  O197  1  0.76943044  0.63633881  0.75176596  1
  O  O198  1  0.13234815  0.27695632  0.25460908  1
  O  O199  1  0.14013538  0.27129195  0.58035361  1
  O  O200  1  0.12773655  0.28218011  0.92701960  1
  O  O201  1  0.12926592  0.78285470  0.26237683  1
  O  O202  1  0.14094860  0.78206283  0.58767304  1
  O  O203  1  0.13098847  0.78761200  0.92730550  1
  O  O204  1  0.63093785  0.28022053  0.25903269  1
  O  O205  1  0.62870257  0.28086993  0.58970299  1
  O  O206  1  0.63522945  0.28196021  0.92759605  1
  O  O207  1  0.62825893  0.78287162  0.25814012  1
  O  O208  1  0.62995408  0.77279845  0.58128453  1
  O  O209  1  0.62839810  0.78195244  0.92852515  1
  O  O210  1  0.22836098  0.36267016  0.24768378  1
  O  O211  1  0.22434532  0.36596331  0.57099533  1
  O  O212  1  0.21895264  0.36636706  0.90895782  1
  O  O213  1  0.21848419  0.86806375  0.24580748  1
  O  O214  1  0.21541513  0.87690503  0.56403897  1
  O  O215  1  0.20884698  0.87326379  0.89476791  1
  O  O216  1  0.71865725  0.36835927  0.24254800  1
  O  O217  1  0.71295170  0.36778641  0.56644641  1
  O  O218  1  0.72629454  0.36906897  0.91581743  1
  O  O219  1  0.71954430  0.87076059  0.24646215  1
  O  O220  1  0.71619763  0.86833892  0.57341657  1
  O  O221  1  0.71528373  0.86941858  0.90955254  1
  O  O222  1  0.42875952  0.12755509  0.15268445  1
  O  O223  1  0.41914969  0.13168437  0.48375854  1
  O  O224  1  0.41925915  0.13554917  0.82123067  1
  O  O225  1  0.42092330  0.63148880  0.15387274  1
  O  O226  1  0.41293998  0.63543152  0.48565998  1
  O  O227  1  0.42288625  0.63098924  0.81407030  1
  O  O228  1  0.92021080  0.13085957  0.15321114  1
  O  O229  1  0.92315816  0.12836621  0.48396287  1
  O  O230  1  0.92022989  0.13888734  0.81563920  1
  O  O231  1  0.91640401  0.63453139  0.15123837  1
  O  O232  1  0.90758711  0.62793240  0.47786806  1
  O  O233  1  0.90594372  0.63312242  0.81916349  1
  O  O234  1  0.37653523  0.08611118  0.01571646  1
  O  O235  1  0.37124344  0.07888191  0.34789689  1
  O  O236  1  0.37210641  0.07230518  0.68544486  1
  O  O237  1  0.37019483  0.57818626  0.01904017  1
  O  O238  1  0.36968350  0.57961340  0.34984390  1
  O  O239  1  0.36944453  0.57849084  0.68011122  1
  O  O240  1  0.86970743  0.07455222  0.01850233  1
  O  O241  1  0.86731952  0.08282013  0.34827906  1
  O  O242  1  0.86617433  0.08182426  0.67990694  1
  O  O243  1  0.86795459  0.58172585  0.01587240  1
  O  O244  1  0.85961873  0.58375963  0.34206246  1
  O  O245  1  0.86271533  0.59436232  0.68268792  1
  O  O246  1  0.09171737  0.36515133  0.17820827  1
  O  O247  1  0.08633300  0.36380209  0.51193731  1
  O  O248  1  0.08221777  0.36812293  0.84895611  1
  O  O249  1  0.08033156  0.86876587  0.18356045  1
  O  O250  1  0.07634020  0.86692760  0.51500570  1
  O  O251  1  0.06928127  0.86866396  0.84646069  1
  O  O252  1  0.58063384  0.36787375  0.18325865  1
  O  O253  1  0.57436681  0.36951162  0.51572967  1
  O  O254  1  0.58864907  0.37373924  0.85532302  1
  O  O255  1  0.58172534  0.86666918  0.17799560  1
  O  O256  1  0.57848253  0.86527975  0.51230603  1
  O  O257  1  0.57771469  0.86761692  0.85126293  1
  O  O258  1  0.13384857  0.41523391  0.31391098  1
  O  O259  1  0.13625073  0.40785504  0.64780123  1
  O  O260  1  0.13324400  0.41962682  0.98576832  1
  O  O261  1  0.12965116  0.92156604  0.31910072  1
  O  O262  1  0.13517659  0.91871735  0.65025477  1
  O  O263  1  0.12991111  0.92586627  0.97932872  1
  O  O264  1  0.63200326  0.41722694  0.31979679  1
  O  O265  1  0.63318363  0.41895356  0.65026372  1
  O  O266  1  0.63721617  0.41969836  0.99051256  1
  O  O267  1  0.62553392  0.92170085  0.31378685  1
  O  O268  1  0.62759105  0.90868318  0.64893768  1
  O  O269  1  0.63110123  0.91998392  0.98830064  1
  O  O270  1  0.03310001  0.17783728  0.09929847  1
  O  O271  1  0.03188075  0.19772759  0.43386385  1
  O  O272  1  0.04052779  0.20415818  0.77034844  1
  O  O273  1  0.03361922  0.70659122  0.11220339  1
  O  O274  1  0.02581061  0.69482885  0.43146798  1
  O  O275  1  0.01737028  0.70865049  0.77080539  1
  O  O276  1  0.53354264  0.20585598  0.10591535  1
  O  O277  1  0.53087462  0.19821006  0.43673214  1
  O  O278  1  0.53554387  0.20417519  0.77334882  1
  O  O279  1  0.52680466  0.69458554  0.10127650  1
  O  O280  1  0.52530919  0.69849247  0.43378087  1
  O  O281  1  0.53642850  0.69895380  0.77132743  1
  O  O282  1  0.29881336  0.46745193  0.06280415  1
  O  O283  1  0.30013324  0.47128385  0.39432626  1
  O  O284  1  0.30303723  0.46897045  0.73014523  1
  O  O285  1  0.29758647  0.95789908  0.06255186  1
  O  O286  1  0.30028212  0.97127838  0.39486795  1
  O  O287  1  0.29459680  0.96056883  0.72128971  1
  O  O288  1  0.79445836  0.47836706  0.06199510  1
  O  O289  1  0.79839034  0.46872184  0.38950178  1
  O  O290  1  0.79817341  0.47130558  0.73075606  1
  O  O291  1  0.79986747  0.96607407  0.06600193  1
  O  O292  1  0.80023055  0.96876435  0.39790044  1
  O  O293  1  0.80657388  0.96603259  0.73370315  1
  O  O294  1  0.47146168  0.29986787  0.23121707  1
  O  O295  1  0.46323931  0.29822592  0.55609919  1
  O  O296  1  0.47415645  0.30455896  0.90382144  1
  O  O297  1  0.46838774  0.80099739  0.22784884  1
  O  O298  1  0.46892174  0.79583643  0.55942109  1
  O  O299  1  0.46707453  0.78920737  0.89193415  1
  O  O300  1  0.97301789  0.30616872  0.23556415  1
  O  O301  1  0.97898985  0.29746834  0.56166754  1
  O  O302  1  0.96484238  0.29935206  0.88854618  1
  O  O303  1  0.96936514  0.80483655  0.23390392  1
  O  O304  1  0.96032495  0.80378130  0.56877462  1
  O  O305  1  0.96661168  0.81392691  0.89940526  1
  O  O306  1  0.20064791  0.02761066  0.26817665  1
  O  O307  1  0.20361977  0.03597064  0.60361241  1
  O  O308  1  0.19886471  0.04664040  0.93781421  1
  O  O309  1  0.19932539  0.52892396  0.26877943  1
  O  O310  1  0.20289764  0.52337232  0.59730839  1
  O  O311  1  0.21100411  0.53096748  0.94614715  1
  O  O312  1  0.70454026  0.02922563  0.27355417  1
  O  O313  1  0.69684096  0.02893828  0.59815365  1
  O  O314  1  0.69987408  0.03334826  0.94246004  1
  O  O315  1  0.69549804  0.52702804  0.26839094  1
  O  O316  1  0.67895290  0.53234875  0.59763717  1
  O  O317  1  0.69845209  0.53172798  0.93514758  1
  O  O318  1  0.08698814  0.07601136  0.02414242  1
  O  O319  1  0.08726868  0.08828428  0.36638146  1
  O  O320  1  0.09719351  0.09478262  0.70404938  1
  O  O321  1  0.08408241  0.59088829  0.04878761  1
  O  O322  1  0.07952237  0.58428377  0.36431282  1
  O  O323  1  0.08013739  0.59749954  0.72533058  1
  O  O324  1  0.58386741  0.09200105  0.03940402  1
  O  O325  1  0.58228524  0.08583117  0.36753635  1
  O  O326  1  0.60107536  0.10259604  0.70889856  1
  O  O327  1  0.57429503  0.57664233  0.03544637  1
  O  O328  1  0.58532794  0.59085445  0.37060554  1
  O  O329  1  0.58647397  0.58621494  0.70255142  1
  O  O330  1  0.40950147  0.41389743  0.12933962  1
  O  O331  1  0.41373019  0.41942828  0.46062485  1
  O  O332  1  0.41934606  0.42455575  0.79743471  1
  O  O333  1  0.40889263  0.90415255  0.12975468  1
  O  O334  1  0.41299919  0.91643002  0.45685128  1
  O  O335  1  0.40758649  0.90718000  0.78672071  1
  O  O336  1  0.91437699  0.43430789  0.12245858  1
  O  O337  1  0.91280449  0.42037090  0.45934062  1
  O  O338  1  0.91137826  0.41839794  0.79215703  1
  O  O339  1  0.91645662  0.91791914  0.13254160  1
  O  O340  1  0.90534029  0.90642972  0.46176950  1
  O  O341  1  0.90859422  0.90465899  0.80416407  1
  O  O342  1  0.41019812  0.40734726  0.29382934  1
  O  O343  1  0.41330009  0.41567437  0.62011178  1
  O  O344  1  0.41555794  0.41337380  0.96646965  1
  O  O345  1  0.41682663  0.91329351  0.29714093  1
  O  O346  1  0.41548045  0.90794289  0.62322163  1
  O  O347  1  0.41618866  0.90274769  0.95850639  1
  O  O348  1  0.91794583  0.41606179  0.30024567  1
  O  O349  1  0.94554560  0.42215102  0.62873638  1
  O  O350  1  0.90827427  0.40868368  0.95624096  1
  O  O351  1  0.92101736  0.91831856  0.30499571  1
  O  O352  1  0.89573282  0.90473899  0.63332047  1
  O  O353  1  0.91014059  0.91838604  0.97141128  1
  O  O354  1  0.08758211  0.08068999  0.20299441  1
  O  O355  1  0.09466814  0.09073259  0.53419460  1
  O  O356  1  0.08449613  0.08919989  0.86364304  1
  O  O357  1  0.08707899  0.58305589  0.20271140  1
  O  O358  1  0.08823621  0.57260565  0.53535141  1
  O  O359  1  0.09571795  0.58539685  0.88908748  1
  O  O360  1  0.59279253  0.08438202  0.21097071  1
  O  O361  1  0.58822782  0.08863481  0.53465755  1
  O  O362  1  0.59421211  0.10031522  0.88504748  1
  O  O363  1  0.58613669  0.58546013  0.20392316  1
  O  O364  1  0.57176886  0.58067645  0.52182977  1
  O  O365  1  0.58632577  0.58404685  0.86792898  1
  O  O366  1  0.14056930  0.21320707  0.05957515  1
  O  O367  1  0.14172361  0.22268312  0.39193443  1
  O  O368  1  0.14521015  0.22907673  0.72296136  1
  O  O369  1  0.13706056  0.72079799  0.06051920  1
  O  O370  1  0.13629604  0.71834508  0.39035260  1
  O  O371  1  0.12982762  0.72697108  0.73110313  1
  O  O372  1  0.63973145  0.22417819  0.05786449  1
  O  O373  1  0.64062169  0.21968342  0.39375394  1
  O  O374  1  0.64100576  0.23844089  0.73117625  1
  O  O375  1  0.63203389  0.70650431  0.04997678  1
  O  O376  1  0.63491518  0.72598374  0.39253994  1
  O  O377  1  0.63762771  0.72104685  0.71963729  1
  O  O378  1  0.27605027  0.36364575  0.11283881  1
  O  O379  1  0.28148383  0.36142983  0.43787027  1
  O  O380  1  0.28897026  0.36240503  0.77902623  1
  O  O381  1  0.27513942  0.85511790  0.11345871  1
  O  O382  1  0.28052455  0.86205931  0.43860754  1
  O  O383  1  0.27541218  0.85915087  0.77389536  1
  O  O384  1  0.78686961  0.36645972  0.10555146  1
  O  O385  1  0.78113802  0.36189149  0.43680597  1
  O  O386  1  0.78034199  0.36301389  0.77702108  1
  O  O387  1  0.78552744  0.86472275  0.12156573  1
  O  O388  1  0.76931890  0.85896323  0.43657092  1
  O  O389  1  0.77040484  0.86137209  0.77593848  1
  O  O390  1  0.36298771  0.27176570  0.27235286  1
  O  O391  1  0.36634032  0.28506436  0.61470472  1
  O  O392  1  0.36560166  0.27885085  0.94732606  1
  O  O393  1  0.36136616  0.77947041  0.27419484  1
  O  O394  1  0.35834092  0.77588626  0.60149600  1
  O  O395  1  0.36056397  0.77115334  0.94036947  1
  O  O396  1  0.86544224  0.28180510  0.28042382  1
  O  O397  1  0.86911048  0.29728423  0.60822957  1
  O  O398  1  0.86530127  0.27410130  0.94148313  1
  O  O399  1  0.86309752  0.78460286  0.28105059  1
  O  O400  1  0.85138085  0.76699220  0.60576553  1
  O  O401  1  0.86054698  0.78161696  0.94208374  1
  O  O402  1  0.22132609  0.13606923  0.22411755  1
  O  O403  1  0.23060293  0.13970093  0.55640291  1
  O  O404  1  0.21599275  0.14368297  0.88001567  1
  O  O405  1  0.22092839  0.63927632  0.22740608  1
  O  O406  1  0.21922969  0.63432321  0.55554696  1
  O  O407  1  0.22510990  0.63495605  0.89511357  1
  O  O408  1  0.72511292  0.13986143  0.23189641  1
  O  O409  1  0.72318834  0.13841855  0.55630195  1
  O  O410  1  0.72844808  0.13633751  0.89524995  1
  O  O411  1  0.72040773  0.63747217  0.22747990  1
  O  O412  1  0.70789776  0.63679608  0.55076482  1
  O  O413  1  0.71985306  0.63910429  0.88883407  1
  O  O414  1  0.49453522  0.33927059  0.03753161  1
  O  O415  1  0.49133848  0.33295357  0.36392923  1
  O  O416  1  0.50030885  0.34761156  0.69243612  1
  O  O417  1  0.49283166  0.82148254  0.02550103  1
  O  O418  1  0.49264853  0.83163001  0.36175413  1
  O  O419  1  0.48947002  0.82705959  0.69208354  1
  O  O420  1  0.99674703  0.33770828  0.02392059  1
  O  O421  1  0.99520474  0.33691229  0.36897488  1
  O  O422  1  1.00084715  0.33312063  0.69659663  1
  O  O423  1  0.99069359  0.83586070  0.03108275  1
  O  O424  1  0.99483694  0.83499716  0.36892883  1
  O  O425  1  0.97730901  0.82605063  0.69974148  1
  O  O426  1  0.16803725  0.00619440  0.13394844  1
  O  O427  1  0.17217553  0.00932068  0.46930667  1
  O  O428  1  0.16649332  0.00839517  0.80281851  1
  O  O429  1  0.16905212  0.50883482  0.13609686  1
  O  O430  1  0.16872956  0.50520150  0.46326397  1
  O  O431  1  0.16592442  0.50383522  0.81102711  1
  O  O432  1  0.67231432  0.01021073  0.14066106  1
  O  O433  1  0.66349051  0.00953992  0.46488529  1
  O  O434  1  0.65739065  0.00908003  0.80788474  1
  O  O435  1  0.66541643  0.50828168  0.13654365  1
  O  O436  1  0.65795781  0.50494521  0.46433909  1
  O  O437  1  0.66627340  0.50790891  0.80112219  1
  O  O438  1  0.01127113  0.17026473  0.30128218  1
  O  O439  1  0.01473347  0.17045138  0.63632768  1
  O  O440  1  0.01041923  0.16461455  0.96857831  1
  O  O441  1  0.00621203  0.66779112  0.29885840  1
  O  O442  1  0.00588040  0.65983026  0.63711955  1
  O  O443  1  0.00318919  0.66715284  0.97726246  1
  O  O444  1  0.50963260  0.16992563  0.30362854  1
  O  O445  1  0.51343858  0.17659207  0.64109886  1
  O  O446  1  0.50680434  0.17169062  0.97180239  1
  O  O447  1  0.50673871  0.66921959  0.30190778  1
  O  O448  1  0.50661911  0.66346785  0.63522228  1
  O  O449  1  0.49930815  0.65570063  0.96583724  1
  O  O450  1  0.33226549  0.49443203  0.19748802  1
  O  O451  1  0.33143478  0.49297671  0.52769426  1
  O  O452  1  0.33638559  0.49336799  0.86520498  1
  O  O453  1  0.33408359  0.98686904  0.19753683  1
  O  O454  1  0.33529540  0.99188088  0.52879977  1
  O  O455  1  0.33623226  0.99267308  0.85648449  1
  O  O456  1  0.83289379  0.49563333  0.19618375  1
  O  O457  1  0.82785083  0.49540617  0.52344647  1
  O  O458  1  0.83360279  0.49377110  0.86447296  1
  O  O459  1  0.84136805  0.99739789  0.20214048  1
  O  O460  1  0.82696575  0.98689580  0.53021571  1
  O  O461  1  0.82989056  0.99033588  0.86523586  1
