# generated using pymatgen
data_Na31Fe20(SO4)36
_symmetry_space_group_name_H-M   'P 1'
_cell_length_a   18.09025419
_cell_length_b   18.09222054
_cell_length_c   19.72549249
_cell_angle_alpha   107.57909562
_cell_angle_beta   107.59683348
_cell_angle_gamma   90.75975080
_symmetry_Int_Tables_number   1
_chemical_formula_structural   Na31Fe20(SO4)36
_chemical_formula_sum   'Na62 Fe40 S72 O288'
_cell_volume   5827.56559308
_cell_formula_units_Z   2
loop_
 _symmetry_equiv_pos_site_id
 _symmetry_equiv_pos_as_xyz
  1  'x, y, z'
loop_
 _atom_site_type_symbol
 _atom_site_label
 _atom_site_symmetry_multiplicity
 _atom_site_fract_x
 _atom_site_fract_y
 _atom_site_fract_z
 _atom_site_occupancy
  Na  Na0  1  0.12847883  0.37766838  0.08381416  1
  Na  Na1  1  0.14419749  0.36973332  0.42497218  1
  Na  Na2  1  0.18236903  0.38818863  0.80109448  1
  Na  Na3  1  0.10626005  0.79765824  0.02679660  1
  Na  Na4  1  0.12364402  0.87761198  0.41443156  1
  Na  Na5  1  0.14084387  0.86683450  0.75603310  1
  Na  Na6  1  0.63585260  0.36516529  0.08392870  1
  Na  Na7  1  0.63332299  0.36265988  0.41610646  1
  Na  Na8  1  0.63923036  0.36600573  0.76223567  1
  Na  Na9  1  0.62543786  0.86722266  0.07628137  1
  Na  Na10  1  0.63123738  0.86803874  0.41681542  1
  Na  Na11  1  0.62835163  0.84204317  0.72285238  1
  Na  Na12  1  0.36645376  0.13204183  0.25001825  1
  Na  Na13  1  0.37502998  0.14593366  0.59864854  1
  Na  Na14  1  0.36238220  0.13793998  0.91152809  1
  Na  Na15  1  0.35181354  0.62774930  0.23660046  1
  Na  Na16  1  0.36321943  0.63782015  0.57570957  1
  Na  Na17  1  0.36090075  0.63074151  0.91897831  1
  Na  Na18  1  0.86532026  0.13059688  0.24486744  1
  Na  Na19  1  0.86779033  0.13597412  0.58355400  1
  Na  Na20  1  0.87334758  0.12737359  0.91669382  1
  Na  Na21  1  0.86367263  0.63100927  0.24903093  1
  Na  Na22  1  0.86237250  0.64519574  0.59318988  1
  Na  Na23  1  0.87298675  0.63281437  0.92161018  1
  Na  Na24  1  0.98952298  0.52908455  0.79513728  1
  Na  Na25  1  0.49498923  0.01690949  0.74851282  1
  Na  Na26  1  1.01928666  -0.04800692  0.12890289  1
  Na  Na27  1  1.04362917  0.48737942  0.34737689  1
  Na  Na28  1  0.99639123  -0.01211499  0.77513978  1
  Na  Na29  1  0.94078505  0.50499555  0.04920943  1
  Na  Na30  1  0.50847364  0.49380092  0.74755347  1
  Na  Na31  1  0.48619911  0.54625919  0.42206391  1
  Na  Na32  1  0.43542144  0.49928906  0.06715305  1
  Na  Na33  1  0.50319972  0.98684943  0.24959406  1
  Na  Na34  1  0.01265121  1.00020832  0.57214567  1
  Na  Na35  1  0.49999872  0.50922328  0.58077468  1
  Na  Na36  1  0.51653128  0.48746940  0.25253598  1
  Na  Na37  1  0.49533255  0.44438895  0.89943074  1
  Na  Na38  1  0.50083444  0.99343937  0.93069577  1
  Na  Na39  1  0.01388770  0.49268169  0.57764606  1
  Na  Na40  1  0.17143781  0.54520965  1.02972021  1
  Na  Na41  1  0.51462637  0.99278482  0.56140042  1
  Na  Na42  1  0.25220491  0.25341186  0.33227412  1
  Na  Na43  1  0.23864391  0.74568805  0.33634718  1
  Na  Na44  1  0.74788669  0.75054636  0.33405201  1
  Na  Na45  1  0.25102284  0.24778738  0.68687234  1
  Na  Na46  1  0.25990510  0.26686817  -0.01435106  1
  Na  Na47  1  0.74702953  0.25033324  0.00881008  1
  Na  Na48  1  0.76123233  0.25671494  0.31853717  1
  Na  Na49  1  0.24073665  0.74183051  0.67163665  1
  Na  Na50  1  0.76427761  0.76226122  -0.00654340  1
  Na  Na51  1  0.75584782  0.25486816  0.66681048  1
  Na  Na52  1  0.75997314  0.76415741  0.16007899  1
  Na  Na53  1  0.75764794  0.75570160  0.81945098  1
  Na  Na54  1  0.75826261  0.25883312  0.83793784  1
  Na  Na55  1  0.24528736  0.74791468  0.15600832  1
  Na  Na56  1  0.72748325  0.73772746  0.52027204  1
  Na  Na57  1  0.75324428  0.25310420  0.49357804  1
  Na  Na58  1  0.23684785  0.74037694  0.50107611  1
  Na  Na59  1  0.25526076  0.25910003  0.16270936  1
  Na  Na60  1  0.25079766  0.24498497  0.50858439  1
  Na  Na61  1  0.23011531  0.74074112  0.85137599  1
  Fe  Fe62  1  0.96636141  0.80259663  0.78955767  1
  Fe  Fe63  1  0.46776620  0.80088282  0.45156494  1
  Fe  Fe64  1  0.46403034  0.80417270  0.11572127  1
  Fe  Fe65  1  0.46550021  0.30715473  0.45232702  1
  Fe  Fe66  1  0.46561949  0.30564264  0.12132347  1
  Fe  Fe67  1  0.96830777  0.30350069  0.45151864  1
  Fe  Fe68  1  0.96830999  0.31353914  0.79366387  1
  Fe  Fe69  1  0.95846841  0.81066040  0.45311883  1
  Fe  Fe70  1  0.46672910  0.80507196  0.78210663  1
  Fe  Fe71  1  0.96396541  0.30845789  0.11927717  1
  Fe  Fe72  1  0.69392431  0.53393851  0.71689743  1
  Fe  Fe73  1  0.69459039  0.53172978  0.38382082  1
  Fe  Fe74  1  0.69653510  0.03551773  0.71582469  1
  Fe  Fe75  1  0.69800766  0.52937106  0.04506161  1
  Fe  Fe76  1  0.19227276  0.53859347  0.71778608  1
  Fe  Fe77  1  0.19722518  0.03581642  0.71843696  1
  Fe  Fe78  1  0.19255645  0.03211378  0.37620957  1
  Fe  Fe79  1  0.19137844  0.03269767  0.04709088  1
  Fe  Fe80  1  0.69055598  0.04032890  0.05047505  1
  Fe  Fe81  1  0.69279413  0.03525535  0.37995510  1
  Fe  Fe82  1  0.53292592  0.69272473  0.88062199  1
  Fe  Fe83  1  0.02511649  0.70012886  0.20662783  1
  Fe  Fe84  1  0.53265670  0.19377637  0.54734393  1
  Fe  Fe85  1  0.53554048  0.18916119  0.21383761  1
  Fe  Fe86  1  0.03516452  0.18661159  0.20932413  1
  Fe  Fe87  1  0.53405213  0.19809023  0.88187427  1
  Fe  Fe88  1  0.53599564  0.68785976  0.20901405  1
  Fe  Fe89  1  0.03365980  0.68991092  0.53947127  1
  Fe  Fe90  1  0.03746085  0.18999328  0.88170630  1
  Fe  Fe91  1  0.03731052  0.19225919  0.54763234  1
  Fe  Fe92  1  0.80554389  0.96980566  0.95451344  1
  Fe  Fe93  1  0.81025223  0.46367481  0.62239069  1
  Fe  Fe94  1  0.30902754  0.96489478  0.95526714  1
  Fe  Fe95  1  0.80893357  0.96628586  0.28518377  1
  Fe  Fe96  1  0.30704081  0.96423301  0.61690271  1
  Fe  Fe97  1  0.81067759  0.46240493  0.28750572  1
  Fe  Fe98  1  0.31160666  0.95927877  0.28632130  1
  Fe  Fe99  1  0.30740693  0.46771425  0.61698065  1
  Fe  Fe100  1  0.28083261  0.48276999  0.29025021  1
  Fe  Fe101  1  0.80710497  0.96530211  0.61851580  1
  S  S102  1  0.35985781  0.13831892  0.08460637  1
  S  S103  1  0.35992935  0.13861880  0.41583351  1
  S  S104  1  0.36467570  0.13600205  0.74892988  1
  S  S105  1  0.36087338  0.64332199  0.08556772  1
  S  S106  1  0.35392627  0.64720868  0.41403788  1
  S  S107  1  0.35779832  0.64437862  0.74590291  1
  S  S108  1  0.85717546  0.14387431  0.08543122  1
  S  S109  1  0.86031780  0.14065887  0.41670744  1
  S  S110  1  0.86410190  0.13791377  0.74996173  1
  S  S111  1  0.84940664  0.64892978  0.09027220  1
  S  S112  1  0.85460773  0.64171819  0.41969574  1
  S  S113  1  0.85743836  0.63879667  0.74771731  1
  S  S114  1  0.13780393  0.35271527  0.24763310  1
  S  S115  1  0.14153646  0.35924560  0.58283954  1
  S  S116  1  0.14070794  0.35280224  0.91942044  1
  S  S117  1  0.14338527  0.85922386  0.24824714  1
  S  S118  1  0.13927289  0.86347793  0.58365478  1
  S  S119  1  0.13961552  0.86541856  0.91220989  1
  S  S120  1  0.64252043  0.35725934  0.25331570  1
  S  S121  1  0.64183257  0.35752493  0.58549851  1
  S  S122  1  0.64286508  0.35771208  0.91823470  1
  S  S123  1  0.63915359  0.85918393  0.24883937  1
  S  S124  1  0.63832625  0.86493799  0.57990406  1
  S  S125  1  0.63670181  0.86238872  0.91447760  1
  S  S126  1  0.06926564  0.17144184  0.04615210  1
  S  S127  1  0.07287478  0.17314910  0.37764610  1
  S  S128  1  0.07051300  0.16453664  0.70624183  1
  S  S129  1  0.04758256  0.65679533  0.04207866  1
  S  S130  1  0.06520101  0.68499291  0.37839918  1
  S  S131  1  0.06504514  0.67469667  0.70367580  1
  S  S132  1  0.56697499  0.17172081  0.04350163  1
  S  S133  1  0.56649432  0.16677499  0.37541953  1
  S  S134  1  0.57343943  0.16504897  0.70845160  1
  S  S135  1  0.57079934  0.66928683  0.04231685  1
  S  S136  1  0.56942848  0.66920880  0.37375202  1
  S  S137  1  0.56144541  0.66270285  0.70767795  1
  S  S138  1  0.32983844  0.42814576  0.13215172  1
  S  S139  1  0.33483778  0.43419303  0.45623980  1
  S  S140  1  0.33803095  0.44456402  0.78311493  1
  S  S141  1  0.32866650  0.92864148  0.12502542  1
  S  S142  1  0.33114353  0.93215270  0.45687302  1
  S  S143  1  0.33428679  0.93227638  0.79178516  1
  S  S144  1  0.83107502  0.43327670  0.12805984  1
  S  S145  1  0.83157987  0.42951868  0.45831676  1
  S  S146  1  0.83079388  0.43499430  0.79148582  1
  S  S147  1  0.81957063  0.93616491  0.12033239  1
  S  S148  1  0.82699894  0.93633790  0.45719182  1
  S  S149  1  0.82366579  0.92997209  0.78789533  1
  S  S150  1  0.44074149  0.33462066  0.29515148  1
  S  S151  1  0.43870035  0.33528031  0.62236240  1
  S  S152  1  0.43503480  0.32655410  0.96120544  1
  S  S153  1  0.43490204  0.82561627  0.28734292  1
  S  S154  1  0.42903488  0.83208524  0.62136723  1
  S  S155  1  0.43053278  0.82915306  0.95357505  1
  S  S156  1  0.93663671  0.32656274  0.29345263  1
  S  S157  1  0.93372211  0.32639577  0.62375167  1
  S  S158  1  0.92935632  0.32021293  0.95326434  1
  S  S159  1  0.92870753  0.82955459  0.29274489  1
  S  S160  1  0.93180066  0.83459552  0.62417503  1
  S  S161  1  0.92770696  0.83751268  0.95536972  1
  S  S162  1  0.17667596  0.06671738  0.21211757  1
  S  S163  1  0.17619196  0.07064048  0.54538268  1
  S  S164  1  0.17355154  0.06867350  0.87784387  1
  S  S165  1  0.16001857  0.57470263  0.20616689  1
  S  S166  1  0.16564825  0.56459367  0.53946822  1
  S  S167  1  0.17012453  0.56712160  0.87120091  1
  S  S168  1  0.66745624  0.06537318  0.21104561  1
  S  S169  1  0.67218636  0.07200166  0.54262627  1
  S  S170  1  0.66759772  0.06910090  0.87627007  1
  S  S171  1  0.66920843  0.56272426  0.21102171  1
  S  S172  1  0.66807471  0.55660343  0.54195395  1
  S  S173  1  0.66668975  0.57101184  0.87630827  1
  O  O174  1  0.36799622  0.21770838  0.07743990  1
  O  O175  1  0.36940047  0.21623863  0.40439615  1
  O  O176  1  0.37428010  0.21010779  0.73630226  1
  O  O177  1  0.37084154  0.72536605  0.08397036  1
  O  O178  1  0.36898920  0.72449858  0.40279599  1
  O  O179  1  0.37040496  0.72267778  0.73650347  1
  O  O180  1  0.86800574  0.22406369  0.08073249  1
  O  O181  1  0.86845223  0.22154404  0.41181048  1
  O  O182  1  0.87416572  0.21715183  0.74296210  1
  O  O183  1  0.84833862  0.73000684  0.09044104  1
  O  O184  1  0.86118268  0.72125236  0.41247847  1
  O  O185  1  0.86700270  0.71647361  0.73743636  1
  O  O186  1  0.28190551  0.12847614  0.09459637  1
  O  O187  1  0.27988391  0.13130029  0.42238234  1
  O  O188  1  0.28601333  0.12490904  0.75734323  1
  O  O189  1  0.28629628  0.63175385  0.09794087  1
  O  O190  1  0.27516079  0.64310305  0.41951738  1
  O  O191  1  0.27622618  0.63905256  0.74822839  1
  O  O192  1  0.77927648  0.13532799  0.09483607  1
  O  O193  1  0.78183004  0.13125665  0.42618614  1
  O  O194  1  0.78695684  0.13084828  0.76243027  1
  O  O195  1  0.77591873  0.62791953  0.10539944  1
  O  O196  1  0.77658895  0.63046464  0.42972262  1
  O  O197  1  0.77514338  0.62949436  0.74967662  1
  O  O198  1  0.13373019  0.26929412  0.24737781  1
  O  O199  1  0.13458306  0.27796622  0.58652487  1
  O  O200  1  0.12717930  0.27366347  0.92902746  1
  O  O201  1  0.12516898  0.78029161  0.25545919  1
  O  O202  1  0.12910319  0.78207079  0.58564523  1
  O  O203  1  0.13407449  0.78650469  0.91629418  1
  O  O204  1  0.63074415  0.27898049  0.26198318  1
  O  O205  1  0.63063189  0.27862991  0.59350707  1
  O  O206  1  0.63194747  0.27988090  0.93081130  1
  O  O207  1  0.63056010  0.78017728  0.25671826  1
  O  O208  1  0.63210340  0.78827596  0.58822992  1
  O  O209  1  0.62756957  0.78631139  0.92804622  1
  O  O210  1  0.21738717  0.36966575  0.24335798  1
  O  O211  1  0.21789378  0.36926221  0.56926485  1
  O  O212  1  0.21829766  0.35672766  0.91158369  1
  O  O213  1  0.22821915  0.86230595  0.25310124  1
  O  O214  1  0.21654129  0.87165186  0.57194561  1
  O  O215  1  0.21693370  0.87921663  0.89947839  1
  O  O216  1  0.72339801  0.36591177  0.25121859  1
  O  O217  1  0.72171357  0.36331875  0.57813966  1
  O  O218  1  0.72018204  0.36495453  0.91061953  1
  O  O219  1  0.71844533  0.86925457  0.24258013  1
  O  O220  1  0.71508470  0.87788387  0.56713930  1
  O  O221  1  0.71717194  0.87134418  0.91083164  1
  O  O222  1  0.41998359  0.13131462  0.15248248  1
  O  O223  1  0.41692295  0.13482541  0.48687137  1
  O  O224  1  0.42403811  0.12771525  0.81757467  1
  O  O225  1  0.42372484  0.63206030  0.15262363  1
  O  O226  1  0.41294447  0.63699255  0.47957333  1
  O  O227  1  0.41271597  0.63828897  0.81642947  1
  O  O228  1  0.91761990  0.13300961  0.15134256  1
  O  O229  1  0.92039201  0.13197462  0.48351287  1
  O  O230  1  0.92504250  0.12447202  0.81404636  1
  O  O231  1  0.91466628  0.64104530  0.15735069  1
  O  O232  1  0.91514095  0.63497838  0.48695783  1
  O  O233  1  0.91214001  0.63109781  0.81596251  1
  O  O234  1  0.36701313  0.08001098  0.01589202  1
  O  O235  1  0.36951850  0.07791556  0.35017238  1
  O  O236  1  0.37443887  0.07185695  0.68326325  1
  O  O237  1  0.37021552  0.58853399  0.01799305  1
  O  O238  1  0.36026832  0.58603654  0.34457259  1
  O  O239  1  0.36826867  0.58460864  0.67950254  1
  O  O240  1  0.86191289  0.08723175  0.01496826  1
  O  O241  1  0.86545384  0.08450275  0.34670337  1
  O  O242  1  0.86680813  0.07979403  0.67920098  1
  O  O243  1  0.85692968  0.59563419  0.02135731  1
  O  O244  1  0.86056719  0.58365643  0.35053591  1
  O  O245  1  0.86741395  0.57850986  0.68006366  1
  O  O246  1  0.07948501  0.36199257  0.17999052  1
  O  O247  1  0.07882055  0.36906534  0.51698197  1
  O  O248  1  0.08188210  0.35651384  0.84764551  1
  O  O249  1  0.09524304  0.86823765  0.17839599  1
  O  O250  1  0.07772329  0.87906037  0.52132771  1
  O  O251  1  0.07800882  0.87584894  0.84597779  1
  O  O252  1  0.58571446  0.36554629  0.18446364  1
  O  O253  1  0.58456822  0.36510034  0.51653759  1
  O  O254  1  0.58124162  0.36412064  0.85224424  1
  O  O255  1  0.58009076  0.86754874  0.18078832  1
  O  O256  1  0.57656793  0.87436039  0.51284998  1
  O  O257  1  0.58067569  0.86478773  0.84219376  1
  O  O258  1  0.12807813  0.40348811  0.31693849  1
  O  O259  1  0.13537946  0.41590518  0.65152861  1
  O  O260  1  0.13052302  0.41251526  0.98379416  1
  O  O261  1  0.13388197  0.91880847  0.31597722  1
  O  O262  1  0.13738655  0.91885893  0.65621156  1
  O  O263  1  0.13505610  0.92271275  0.98243614  1
  O  O264  1  0.63074150  0.41738023  0.31958562  1
  O  O265  1  0.63393911  0.41710632  0.65289086  1
  O  O266  1  0.63500197  0.41834535  0.98728014  1
  O  O267  1  0.62978341  0.91841546  0.31651680  1
  O  O268  1  0.63080954  0.92625250  0.64752565  1
  O  O269  1  0.62239411  0.92539693  0.97719981  1
  O  O270  1  0.02562136  0.19920541  0.10229851  1
  O  O271  1  0.03276381  0.20093567  0.43678114  1
  O  O272  1  0.03503460  0.19245658  0.76693757  1
  O  O273  1  0.02049793  0.70080653  0.10854431  1
  O  O274  1  0.02177114  0.71239068  0.43612520  1
  O  O275  1  0.02845068  0.70139737  0.76265085  1
  O  O276  1  0.53115177  0.20066907  0.10542966  1
  O  O277  1  0.53144125  0.19632250  0.43709752  1
  O  O278  1  0.54216048  0.18359408  0.77111574  1
  O  O279  1  0.53314145  0.70009907  0.10304089  1
  O  O280  1  0.53265806  0.69828168  0.43264427  1
  O  O281  1  0.53065675  0.69759466  0.77315894  1
  O  O282  1  0.31171983  0.46509899  0.07409001  1
  O  O283  1  0.31082898  0.46891533  0.39580241  1
  O  O284  1  0.29444296  0.47739960  0.71960559  1
  O  O285  1  0.29957864  0.96575121  0.06422722  1
  O  O286  1  0.30194315  0.97063901  0.39724059  1
  O  O287  1  0.30181262  0.96661742  0.72985325  1
  O  O288  1  0.80427095  0.47281013  0.07094020  1
  O  O289  1  0.80324248  0.46715532  0.39815625  1
  O  O290  1  0.79652044  0.46636750  0.72540183  1
  O  O291  1  0.78713073  0.97615227  0.06104284  1
  O  O292  1  0.79953676  0.97261121  0.39581252  1
  O  O293  1  0.79528932  0.96724361  0.72597388  1
  O  O294  1  0.47284907  0.29674994  0.23169202  1
  O  O295  1  0.46706564  0.29798690  0.55505110  1
  O  O296  1  0.47314485  0.29374686  0.90334452  1
  O  O297  1  0.47566335  0.79813274  0.22941022  1
  O  O298  1  0.46306247  0.81174522  0.56046731  1
  O  O299  1  0.46885033  0.80050987  0.89357644  1
  O  O300  1  0.97192448  0.29676303  0.23195365  1
  O  O301  1  0.97151146  0.29563547  0.56339691  1
  O  O302  1  0.96725683  0.28725524  0.89262950  1
  O  O303  1  0.97033445  0.79978835  0.23748926  1
  O  O304  1  0.96960417  0.80532100  0.56427840  1
  O  O305  1  0.95929436  0.81293476  0.89181098  1
  O  O306  1  0.20746952  0.02766621  0.27123146  1
  O  O307  1  0.20412766  0.03183199  0.60495826  1
  O  O308  1  0.20479394  0.03630628  0.94116762  1
  O  O309  1  0.18118324  0.53699034  0.26642054  1
  O  O310  1  0.19778109  0.53093012  0.60291314  1
  O  O311  1  0.20328376  0.52365115  0.92257286  1
  O  O312  1  0.70026651  0.02728357  0.27108508  1
  O  O313  1  0.70416899  0.03815593  0.60487446  1
  O  O314  1  0.70029883  0.03274605  0.93690757  1
  O  O315  1  0.69802527  0.52457331  0.27161603  1
  O  O316  1  0.70353187  0.52125335  0.60332814  1
  O  O317  1  0.68963765  0.53886724  0.93828791  1
  O  O318  1  0.09391393  0.09449336  0.04861933  1
  O  O319  1  0.09578874  0.09507954  0.37663908  1
  O  O320  1  0.08802072  0.08133067  0.69930088  1
  O  O321  1  0.03706630  0.57230898  0.02949185  1
  O  O322  1  0.09011376  0.60999823  0.38104759  1
  O  O323  1  0.08394078  0.59260039  0.69412980  1
  O  O324  1  0.58584859  0.09012970  0.03940391  1
  O  O325  1  0.58506062  0.08517309  0.36886406  1
  O  O326  1  0.58759367  0.07965721  0.68958789  1
  O  O327  1  0.59059575  0.58973198  0.03996045  1
  O  O328  1  0.58768356  0.58670832  0.37076810  1
  O  O329  1  0.58226225  0.58142876  0.70726703  1
  O  O330  1  0.41479498  0.41046654  0.14753950  1
  O  O331  1  0.41828240  0.41690113  0.46762656  1
  O  O332  1  0.41796147  0.43597614  0.77961871  1
  O  O333  1  0.40990192  0.90933376  0.12882415  1
  O  O334  1  0.41023408  0.90949596  0.45824532  1
  O  O335  1  0.41726032  0.91748957  0.79730070  1
  O  O336  1  0.91116816  0.41196422  0.13006710  1
  O  O337  1  0.91243802  0.40945828  0.46361188  1
  O  O338  1  0.91041028  0.41370383  0.78831953  1
  O  O339  1  0.89607285  0.91481063  0.11982021  1
  O  O340  1  0.90879683  0.91808445  0.46557799  1
  O  O341  1  0.90307636  0.90888060  0.78964105  1
  O  O342  1  0.43989427  0.41881606  0.30620302  1
  O  O343  1  0.41749103  0.41526419  0.62027079  1
  O  O344  1  0.41657295  0.40480675  0.95878595  1
  O  O345  1  0.41830118  0.90765311  0.29169579  1
  O  O346  1  0.41343365  0.91651672  0.63825333  1
  O  O347  1  0.41438204  0.91128946  0.95846237  1
  O  O348  1  0.91670481  0.40745547  0.29786634  1
  O  O349  1  0.91720425  0.40785835  0.62679538  1
  O  O350  1  0.90388470  0.39455049  0.94888179  1
  O  O351  1  0.90416719  0.90647417  0.28886927  1
  O  O352  1  0.91682655  0.91789214  0.62997150  1
  O  O353  1  0.90222801  0.91768912  0.96230660  1
  O  O354  1  0.09611831  0.08532803  0.21022713  1
  O  O355  1  0.09478640  0.08811865  0.54059066  1
  O  O356  1  0.09107009  0.08394959  0.87072920  1
  O  O357  1  0.08179353  0.60416301  0.20421026  1
  O  O358  1  0.08519757  0.58589425  0.53964622  1
  O  O359  1  0.09753539  0.59759563  0.87894266  1
  O  O360  1  0.58751487  0.08366202  0.21243271  1
  O  O361  1  0.59099466  0.08950292  0.53908070  1
  O  O362  1  0.58615912  0.08561778  0.87494887  1
  O  O363  1  0.58582597  0.57630836  0.20346789  1
  O  O364  1  0.58554117  0.56404361  0.53552404  1
  O  O365  1  0.58292122  0.58896384  0.86294437  1
  O  O366  1  0.13663387  0.22907211  0.06459045  1
  O  O367  1  0.14210927  0.22965962  0.39607872  1
  O  O368  1  0.13995146  0.21523793  0.71807809  1
  O  O369  1  0.13161148  0.68562844  0.06312071  1
  O  O370  1  0.13203854  0.74462296  0.39854427  1
  O  O371  1  0.13733731  0.72733680  0.72146118  1
  O  O372  1  0.63654326  0.22357362  0.05782316  1
  O  O373  1  0.63722967  0.21904111  0.39055161  1
  O  O374  1  0.64603373  0.21572892  0.72533659  1
  O  O375  1  0.63948723  0.72444441  0.05793440  1
  O  O376  1  0.64174024  0.72021125  0.38984960  1
  O  O377  1  0.63165292  0.71296028  0.71946893  1
  O  O378  1  0.27822437  0.35471251  0.11073707  1
  O  O379  1  0.28363779  0.36220484  0.44034326  1
  O  O380  1  0.29421594  0.36865024  0.76757371  1
  O  O381  1  0.27500574  0.86146426  0.11292446  1
  O  O382  1  0.27537448  0.86466460  0.44270170  1
  O  O383  1  0.28473680  0.86026577  0.77703613  1
  O  O384  1  0.77681936  0.36428807  0.11314611  1
  O  O385  1  0.77746798  0.35867896  0.44004311  1
  O  O386  1  0.77971479  0.36208548  0.77562971  1
  O  O387  1  0.76235100  0.86797550  0.10306787  1
  O  O388  1  0.77389127  0.86591928  0.43965061  1
  O  O389  1  0.76882872  0.86192052  0.77250574  1
  O  O390  1  0.36353903  0.29197838  0.27856846  1
  O  O391  1  0.36865438  0.28487722  0.61248940  1
  O  O392  1  0.36695710  0.27347760  0.95000535  1
  O  O393  1  0.36296883  0.77382010  0.26746680  1
  O  O394  1  0.35652252  0.78113403  0.60410743  1
  O  O395  1  0.35934994  0.77817469  0.93645915  1
  O  O396  1  0.86823132  0.27340099  0.28107382  1
  O  O397  1  0.86000738  0.27511087  0.60366365  1
  O  O398  1  0.86373827  0.26150282  0.94024482  1
  O  O399  1  0.85966260  0.77444574  0.27859883  1
  O  O400  1  0.85937746  0.78449341  0.60615190  1
  O  O401  1  0.85865402  0.78112263  0.93919198  1
  O  O402  1  0.22974732  0.13805804  0.23024148  1
  O  O403  1  0.22912809  0.14256299  0.56515932  1
  O  O404  1  0.22381341  0.13883863  0.89007864  1
  O  O405  1  0.21912172  0.64250201  0.22592527  1
  O  O406  1  0.21768703  0.63652745  0.55543388  1
  O  O407  1  0.22784738  0.62963409  0.87601803  1
  O  O408  1  0.71946160  0.13575449  0.22657239  1
  O  O409  1  0.72324065  0.14323433  0.55615189  1
  O  O410  1  0.71855284  0.14029621  0.89096746  1
  O  O411  1  0.71850454  0.63688422  0.23243035  1
  O  O412  1  0.71485212  0.63039714  0.55740752  1
  O  O413  1  0.71835433  0.64116627  0.88878245  1
  O  O414  1  0.49368572  0.33603566  0.03841448  1
  O  O415  1  0.49642356  0.32447946  0.36504157  1
  O  O416  1  0.50350984  0.34356689  0.69040339  1
  O  O417  1  0.48923476  0.83052629  0.02614993  1
  O  O418  1  0.49152555  0.82687361  0.36071099  1
  O  O419  1  0.48899575  0.82682725  0.69113323  1
  O  O420  1  0.98968002  0.32829958  0.02746703  1
  O  O421  1  0.99844068  0.33262358  0.36628805  1
  O  O422  1  0.98920993  0.32548550  0.69562441  1
  O  O423  1  0.98971336  0.84373613  0.02525814  1
  O  O424  1  0.98518541  0.84098243  0.36969889  1
  O  O425  1  0.98936022  0.83743733  0.69788363  1
  O  O426  1  0.17222953  0.00915750  0.13907771  1
  O  O427  1  0.17577277  0.01354057  0.47297810  1
  O  O428  1  0.17106861  0.00666444  0.80617315  1
  O  O429  1  0.15470175  0.51656436  0.13419204  1
  O  O430  1  0.15870425  0.50510250  0.46796957  1
  O  O431  1  0.15044118  0.50806532  0.79063945  1
  O  O432  1  0.66088128  0.00758597  0.13694581  1
  O  O433  1  0.66912640  0.01161617  0.47048437  1
  O  O434  1  0.66132810  0.01054204  0.80208566  1
  O  O435  1  0.67235680  0.50684065  0.13961312  1
  O  O436  1  0.67133611  0.49921601  0.46932700  1
  O  O437  1  0.66596885  0.50827061  0.80495072  1
  O  O438  1  0.01439552  0.16918295  0.30442508  1
  O  O439  1  0.00877484  0.15884792  0.63242514  1
  O  O440  1  0.01200985  0.16262116  0.97082833  1
  O  O441  1  0.00790254  0.68065685  0.30389320  1
  O  O442  1  0.00699250  0.67449883  0.63049761  1
  O  O443  1  0.00123473  0.67852465  0.97770456  1
  O  O444  1  0.50616311  0.16421096  0.30335511  1
  O  O445  1  0.51276099  0.17154443  0.63966238  1
  O  O446  1  0.50573741  0.16588773  0.97108008  1
  O  O447  1  0.51207795  0.66287650  0.29902758  1
  O  O448  1  0.49869319  0.65357815  0.63749127  1
  O  O449  1  0.51038052  0.66655437  0.96989701  1
  O  O450  1  0.32557382  0.48381941  0.20464337  1
  O  O451  1  0.33312290  0.49363940  0.52791150  1
  O  O452  1  0.33894171  0.50035455  0.85432468  1
  O  O453  1  0.33696673  0.99095064  0.19897044  1
  O  O454  1  0.33891182  0.99259674  0.53087464  1
  O  O455  1  0.33693997  0.99223437  0.86431290  1
  O  O456  1  0.83771832  0.49095606  0.20409707  1
  O  O457  1  0.83467122  0.48805318  0.53109904  1
  O  O458  1  0.83584310  0.49533084  0.86003266  1
  O  O459  1  0.82291826  0.99473386  0.19414947  1
  O  O460  1  0.82882694  0.99629088  0.52907117  1
  O  O461  1  0.82694473  0.99196026  0.85898009  1
