# generated using pymatgen
data_Na31Fe20(SO4)36
_symmetry_space_group_name_H-M   'P 1'
_cell_length_a   18.08338333
_cell_length_b   18.07395056
_cell_length_c   19.71554045
_cell_angle_alpha   107.56647011
_cell_angle_beta   107.62022414
_cell_angle_gamma   90.72330601
_symmetry_Int_Tables_number   1
_chemical_formula_structural   Na31Fe20(SO4)36
_chemical_formula_sum   'Na62 Fe40 S72 O288'
_cell_volume   5816.61448862
_cell_formula_units_Z   2
loop_
 _symmetry_equiv_pos_site_id
 _symmetry_equiv_pos_as_xyz
  1  'x, y, z'
loop_
 _atom_site_type_symbol
 _atom_site_label
 _atom_site_symmetry_multiplicity
 _atom_site_fract_x
 _atom_site_fract_y
 _atom_site_fract_z
 _atom_site_occupancy
  Na  Na0  1  0.12692005  0.37376035  0.07981134  1
  Na  Na1  1  0.13889605  0.36922784  0.43094090  1
  Na  Na2  1  0.13421374  0.34972306  0.73785466  1
  Na  Na3  1  0.13320721  0.86948408  0.08556368  1
  Na  Na4  1  0.12942212  0.87419494  0.41818466  1
  Na  Na5  1  0.12992678  0.86511748  0.74790145  1
  Na  Na6  1  0.63383830  0.36711921  0.08261771  1
  Na  Na7  1  0.64128102  0.36633366  0.41534565  1
  Na  Na8  1  0.63476867  0.36866602  0.75317016  1
  Na  Na9  1  0.63985774  0.86590707  0.08953870  1
  Na  Na10  1  0.64578081  0.86473788  0.41699605  1
  Na  Na11  1  0.62615221  0.85476099  0.73826839  1
  Na  Na12  1  0.36735647  0.13621975  0.25519018  1
  Na  Na13  1  0.36981655  0.13959305  0.58354294  1
  Na  Na14  1  0.36536104  0.12927385  0.91236869  1
  Na  Na15  1  0.37497715  0.63677331  0.25247092  1
  Na  Na16  1  0.36455825  0.63573908  0.58349441  1
  Na  Na17  1  0.38035362  0.62664060  0.91923626  1
  Na  Na18  1  0.86721984  0.14596651  0.26023560  1
  Na  Na19  1  0.85997201  0.13109510  0.57158069  1
  Na  Na20  1  0.85684881  0.13965857  0.91598455  1
  Na  Na21  1  0.82878901  0.64129379  0.24811849  1
  Na  Na22  1  0.84237659  0.61769445  0.55747407  1
  Na  Na23  1  0.86809350  0.62973516  0.91803060  1
  Na  Na24  1  0.47764500  0.52777537  0.76815770  1
  Na  Na25  1  0.93322560  0.49061616  0.40122755  1
  Na  Na26  1  0.98643197  0.01139428  0.09127002  1
  Na  Na27  1  1.01909395  0.45464283  0.80424429  1
  Na  Na28  1  0.51223500  -0.01047928  0.43232971  1
  Na  Na29  1  0.49363057  0.01108027  0.09022068  1
  Na  Na30  1  0.98882133  0.02311929  0.73585872  1
  Na  Na31  1  0.49690169  0.01192585  0.73656834  1
  Na  Na32  1  0.50744466  0.56425365  0.43963350  1
  Na  Na33  1  0.55633385  0.99714254  0.26956522  1
  Na  Na34  1  -0.02418723  1.00957588  0.28564874  1
  Na  Na35  1  -0.03054531  0.52106685  0.25155267  1
  Na  Na36  1  0.00204798  0.99655008  0.91026073  1
  Na  Na37  1  0.48783781  0.50981513  0.59019649  1
  Na  Na38  1  0.00451411  1.01417876  0.54849753  1
  Na  Na39  1  0.00767410  0.45780666  0.58501134  1
  Na  Na40  1  0.55988302  0.49336611  0.26413792  1
  Na  Na41  1  0.51396505  0.98012845  0.91320757  1
  Na  Na42  1  0.25014388  0.75109399  -0.00002168  1
  Na  Na43  1  0.73403257  0.73780996  0.01333568  1
  Na  Na44  1  0.24632800  0.25159440  0.34864372  1
  Na  Na45  1  0.26615062  0.27284313  0.64684935  1
  Na  Na46  1  0.76523634  0.25763879  0.66520943  1
  Na  Na47  1  0.24502170  0.75014666  0.33417682  1
  Na  Na48  1  0.73066306  0.73538284  0.66427252  1
  Na  Na49  1  0.25479793  0.25576275  -0.00402758  1
  Na  Na50  1  0.24607016  0.74356247  0.66776132  1
  Na  Na51  1  0.78308879  0.27888926  0.33194737  1
  Na  Na52  1  0.73103221  0.73765534  0.84237333  1
  Na  Na53  1  0.24635241  0.74736016  0.50056603  1
  Na  Na54  1  0.75737693  0.24487839  0.49007425  1
  Na  Na55  1  0.24720896  0.24971253  0.16873209  1
  Na  Na56  1  0.25533416  0.74699866  0.83278314  1
  Na  Na57  1  0.25807495  0.25669353  0.82526704  1
  Na  Na58  1  0.24857637  0.74824477  0.16994710  1
  Na  Na59  1  0.75723976  0.25427976  0.83248658  1
  Na  Na60  1  0.75004203  0.74729163  0.49017654  1
  Na  Na61  1  0.76524283  0.26905895  0.15317910  1
  Fe  Fe62  1  0.46671854  0.80553399  0.45727468  1
  Fe  Fe63  1  0.46839986  0.30543941  0.12277372  1
  Fe  Fe64  1  0.47006675  0.79736791  0.78839154  1
  Fe  Fe65  1  0.96003181  0.80962866  0.11860178  1
  Fe  Fe66  1  0.96227382  0.31812651  0.12066784  1
  Fe  Fe67  1  0.46791142  0.80661431  0.11989886  1
  Fe  Fe68  1  0.96211323  0.80368350  0.78243906  1
  Fe  Fe69  1  0.46720156  0.31233846  0.45726828  1
  Fe  Fe70  1  0.46862725  0.31006255  0.78759492  1
  Fe  Fe71  1  0.96271435  0.80509896  0.44700541  1
  Fe  Fe72  1  0.68961307  0.03292946  0.71280760  1
  Fe  Fe73  1  0.19254363  0.03560715  0.71251716  1
  Fe  Fe74  1  0.19321708  0.53209636  0.37785600  1
  Fe  Fe75  1  0.69509563  0.03891497  0.04993911  1
  Fe  Fe76  1  0.19906367  0.52939585  0.70745990  1
  Fe  Fe77  1  0.19416958  0.03718559  0.38202734  1
  Fe  Fe78  1  0.19365077  0.53607867  0.04481724  1
  Fe  Fe79  1  0.68842717  0.53349778  0.71328085  1
  Fe  Fe80  1  0.68865717  0.53533343  0.04066873  1
  Fe  Fe81  1  0.19081728  0.03531991  0.04674841  1
  Fe  Fe82  1  0.02993110  0.69262401  0.20821099  1
  Fe  Fe83  1  0.53869723  0.19284644  0.88451835  1
  Fe  Fe84  1  0.03553883  0.68578354  0.87414365  1
  Fe  Fe85  1  0.53415930  0.19008096  0.22035348  1
  Fe  Fe86  1  0.53615013  0.19205311  0.54935409  1
  Fe  Fe87  1  0.03690685  0.19785878  0.21816463  1
  Fe  Fe88  1  0.02957331  0.20155640  0.87625976  1
  Fe  Fe89  1  0.54627648  0.67720870  0.20238350  1
  Fe  Fe90  1  0.03216433  0.20378829  0.54100693  1
  Fe  Fe91  1  0.03099906  0.69156640  0.54291256  1
  Fe  Fe92  1  0.30427940  0.96572622  0.95238342  1
  Fe  Fe93  1  0.80676281  0.96932345  0.95156693  1
  Fe  Fe94  1  0.80303014  0.96486911  0.61417626  1
  Fe  Fe95  1  0.30369479  0.96557628  0.61737353  1
  Fe  Fe96  1  0.81092261  0.46217055  0.62508759  1
  Fe  Fe97  1  0.81207666  0.46297495  0.95446251  1
  Fe  Fe98  1  0.31274984  0.46745782  0.28804674  1
  Fe  Fe99  1  0.30735606  0.96765289  0.28802432  1
  Fe  Fe100  1  0.31578409  0.46494814  0.95859516  1
  Fe  Fe101  1  0.79900681  0.96015849  0.29126846  1
  S  S102  1  0.35843258  0.13985825  0.08490957  1
  S  S103  1  0.35941916  0.14177896  0.41887930  1
  S  S104  1  0.36265394  0.13911503  0.75031694  1
  S  S105  1  0.36131635  0.64412338  0.08321440  1
  S  S106  1  0.35430825  0.64408106  0.41548170  1
  S  S107  1  0.35646552  0.64179417  0.74813253  1
  S  S108  1  0.86248527  0.14234774  0.08446536  1
  S  S109  1  0.86749338  0.13202515  0.41362430  1
  S  S110  1  0.85837760  0.13579990  0.75304455  1
  S  S111  1  0.85753861  0.64074826  0.08173672  1
  S  S112  1  0.86042899  0.64087774  0.41477308  1
  S  S113  1  0.85768642  0.64232398  0.75112156  1
  S  S114  1  0.14515883  0.36006180  0.24732389  1
  S  S115  1  0.14131844  0.35930982  0.58549906  1
  S  S116  1  0.14911457  0.36001896  0.91649226  1
  S  S117  1  0.13748799  0.86253968  0.24779770  1
  S  S118  1  0.13682414  0.86148098  0.58204973  1
  S  S119  1  0.13721741  0.85975849  0.91485769  1
  S  S120  1  0.64228523  0.34612031  0.24939569  1
  S  S121  1  0.64417760  0.35437529  0.58550034  1
  S  S122  1  0.64249032  0.35691022  0.91789690  1
  S  S123  1  0.63716469  0.85484605  0.24943372  1
  S  S124  1  0.63726029  0.86130616  0.58254438  1
  S  S125  1  0.64333438  0.86395929  0.91710307  1
  S  S126  1  0.06692249  0.16793765  0.03986896  1
  S  S127  1  0.07353142  0.17113199  0.37565824  1
  S  S128  1  0.06723952  0.16150270  0.70276230  1
  S  S129  1  0.07154970  0.67633547  0.04293210  1
  S  S130  1  0.07033456  0.67413345  0.37320650  1
  S  S131  1  0.06987867  0.67026070  0.70863287  1
  S  S132  1  0.56344194  0.16255512  0.04193263  1
  S  S133  1  0.55958119  0.16443923  0.38127498  1
  S  S134  1  0.56836968  0.16996889  0.71261875  1
  S  S135  1  0.56855798  0.67532889  0.04045296  1
  S  S136  1  0.56401955  0.67583901  0.37128314  1
  S  S137  1  0.56190205  0.66698470  0.71017628  1
  S  S138  1  0.32969164  0.43146465  0.12404768  1
  S  S139  1  0.33370782  0.43825344  0.45668147  1
  S  S140  1  0.33098505  0.43150360  0.79235739  1
  S  S141  1  0.32979641  0.93480920  0.12454768  1
  S  S142  1  0.32769865  0.93173402  0.45656821  1
  S  S143  1  0.32753417  0.93116244  0.79014507  1
  S  S144  1  0.82509695  0.44175349  0.12284412  1
  S  S145  1  0.83226949  0.42558381  0.46341068  1
  S  S146  1  0.82515198  0.43132341  0.78989552  1
  S  S147  1  0.83175200  0.93722507  0.12476160  1
  S  S148  1  0.83312524  0.92715245  0.46148366  1
  S  S149  1  0.82809256  0.92895735  0.78863247  1
  S  S150  1  0.43276806  0.32807680  0.29142693  1
  S  S151  1  0.44386294  0.33487950  0.62778583  1
  S  S152  1  0.43173340  0.32145079  0.95625879  1
  S  S153  1  0.42960602  0.83586201  0.29260728  1
  S  S154  1  0.42536317  0.83142941  0.62616449  1
  S  S155  1  0.43261877  0.84113762  0.96130463  1
  S  S156  1  0.94566556  0.33532996  0.28672569  1
  S  S157  1  0.93629727  0.32438236  0.62997196  1
  S  S158  1  0.93424286  0.32814770  0.95673427  1
  S  S159  1  0.93044749  0.82690728  0.28781294  1
  S  S160  1  0.93060503  0.82903791  0.62352725  1
  S  S161  1  0.93199238  0.83520036  0.95681633  1
  S  S162  1  0.17004794  0.06995484  0.20952262  1
  S  S163  1  0.17599596  0.07610556  0.54617869  1
  S  S164  1  0.16621775  0.06707870  0.87452970  1
  S  S165  1  0.17198662  0.57131909  0.20869380  1
  S  S166  1  0.16380282  0.56882812  0.53698574  1
  S  S167  1  0.17741207  0.56814108  0.87599199  1
  S  S168  1  0.67335062  0.06704899  0.21033137  1
  S  S169  1  0.67106929  0.06735204  0.54523077  1
  S  S170  1  0.66646394  0.06654273  0.87361565  1
  S  S171  1  0.65551750  0.55837495  0.19406587  1
  S  S172  1  0.66524405  0.55531050  0.54745640  1
  S  S173  1  0.67032813  0.56408595  0.87765188  1
  O  O174  1  0.36734120  0.21997222  0.07982529  1
  O  O175  1  0.36857325  0.22085424  0.41152976  1
  O  O176  1  0.37013953  0.21844249  0.74330400  1
  O  O177  1  0.36890788  0.72204998  0.07153750  1
  O  O178  1  0.36170577  0.72443189  0.40949654  1
  O  O179  1  0.36599001  0.72570296  0.74839693  1
  O  O180  1  0.87207220  0.22128093  0.07880427  1
  O  O181  1  0.87498234  0.20328421  0.39425803  1
  O  O182  1  0.86184734  0.21373662  0.74692729  1
  O  O183  1  0.86756030  0.71987530  0.07249738  1
  O  O184  1  0.87274689  0.72233595  0.41161080  1
  O  O185  1  0.86601709  0.72122133  0.74172532  1
  O  O186  1  0.27946490  0.13013279  0.09310443  1
  O  O187  1  0.28110284  0.13133046  0.42694127  1
  O  O188  1  0.28520365  0.12854392  0.76158269  1
  O  O189  1  0.28136750  0.63531737  0.09015052  1
  O  O190  1  0.27234995  0.63300923  0.41763868  1
  O  O191  1  0.27196811  0.63285300  0.74595448  1
  O  O192  1  0.78423789  0.13264459  0.09390865  1
  O  O193  1  0.79745050  0.12421205  0.43426126  1
  O  O194  1  0.78281721  0.11993206  0.76655762  1
  O  O195  1  0.77613211  0.63094571  0.08424790  1
  O  O196  1  0.78588923  0.63136222  0.42728995  1
  O  O197  1  0.77925799  0.63429719  0.76043123  1
  O  O198  1  0.13899598  0.27878699  0.25188206  1
  O  O199  1  0.12599752  0.28071290  0.59900118  1
  O  O200  1  0.13294578  0.28001758  0.92096101  1
  O  O201  1  0.13023790  0.78223085  0.25347653  1
  O  O202  1  0.12834440  0.78172514  0.58854831  1
  O  O203  1  0.12883372  0.78029376  0.92164451  1
  O  O204  1  0.62812325  0.26745124  0.25926032  1
  O  O205  1  0.63414399  0.27581163  0.59492010  1
  O  O206  1  0.63080251  0.28043899  0.92972311  1
  O  O207  1  0.62301455  0.77443738  0.25167823  1
  O  O208  1  0.62839800  0.78501926  0.59185158  1
  O  O209  1  0.64058211  0.78778826  0.92749012  1
  O  O210  1  0.22405875  0.37177469  0.23955439  1
  O  O211  1  0.22007529  0.36273930  0.58197083  1
  O  O212  1  0.23351509  0.36446664  0.91929042  1
  O  O213  1  0.21567587  0.87287013  0.23763755  1
  O  O214  1  0.21448486  0.87044203  0.57093795  1
  O  O215  1  0.21580109  0.86923105  0.90586736  1
  O  O216  1  0.72034890  0.35027604  0.24287539  1
  O  O217  1  0.72569074  0.36145304  0.58285464  1
  O  O218  1  0.72116308  0.36417160  0.90956203  1
  O  O219  1  0.71409096  0.86431502  0.23846420  1
  O  O220  1  0.71597892  0.87268693  0.57304167  1
  O  O221  1  0.72015521  0.87869680  0.90545450  1
  O  O222  1  0.41773555  0.12786251  0.15096132  1
  O  O223  1  0.41947140  0.13153271  0.48527440  1
  O  O224  1  0.42377796  0.12866614  0.81615058  1
  O  O225  1  0.41954101  0.64229072  0.15378606  1
  O  O226  1  0.41068441  0.63489248  0.48231084  1
  O  O227  1  0.40770058  0.63203851  0.81744020  1
  O  O228  1  0.92270066  0.12941577  0.15005775  1
  O  O229  1  0.93649569  0.12911046  0.48148342  1
  O  O230  1  0.92191477  0.12693815  0.81932754  1
  O  O231  1  0.91372368  0.63691751  0.15291835  1
  O  O232  1  0.92340115  0.63089998  0.48255731  1
  O  O233  1  0.91740783  0.63863468  0.82137458  1
  O  O234  1  0.36458384  0.08244518  0.01506697  1
  O  O235  1  0.36526416  0.08309179  0.34922061  1
  O  O236  1  0.36868829  0.08031139  0.68106183  1
  O  O237  1  0.36944976  0.58303292  0.01736072  1
  O  O238  1  0.36421904  0.58723820  0.34636709  1
  O  O239  1  0.36972623  0.58837988  0.68177331  1
  O  O240  1  0.86892621  0.08343699  0.01457765  1
  O  O241  1  0.87288427  0.06407613  0.34881189  1
  O  O242  1  0.86726892  0.07645110  0.68454347  1
  O  O243  1  0.86982474  0.58202490  0.01625681  1
  O  O244  1  0.87010500  0.58496049  0.34707021  1
  O  O245  1  0.86712552  0.58298886  0.68511925  1
  O  O246  1  0.08591303  0.36834427  0.17994190  1
  O  O247  1  0.08160772  0.36650315  0.51972037  1
  O  O248  1  0.10001136  0.37059132  0.84717384  1
  O  O249  1  0.07697214  0.87160399  0.18125368  1
  O  O250  1  0.07614173  0.87257433  0.51656985  1
  O  O251  1  0.07729347  0.87003414  0.84839779  1
  O  O252  1  0.58376523  0.35060643  0.17710318  1
  O  O253  1  0.58931917  0.36034554  0.51463217  1
  O  O254  1  0.58409102  0.36177943  0.84795029  1
  O  O255  1  0.57732805  0.86905802  0.18258922  1
  O  O256  1  0.57805263  0.87061070  0.51476214  1
  O  O257  1  0.58095269  0.87015883  0.84902497  1
  O  O258  1  0.13779279  0.41598183  0.31681162  1
  O  O259  1  0.13225456  0.41941177  0.65457821  1
  O  O260  1  0.13962076  0.41879315  0.98409571  1
  O  O261  1  0.13213903  0.92019980  0.31761748  1
  O  O262  1  0.13307861  0.91915461  0.65246828  1
  O  O263  1  0.13063989  0.91833609  0.98401764  1
  O  O264  1  0.62971616  0.40634598  0.31233535  1
  O  O265  1  0.63191037  0.41399520  0.65070965  1
  O  O266  1  0.63361665  0.41923350  0.98316495  1
  O  O267  1  0.63025609  0.91153629  0.31764819  1
  O  O268  1  0.63058975  0.92276140  0.65101589  1
  O  O269  1  0.63386766  0.92587379  0.98379543  1
  O  O270  1  0.03364302  0.19761706  0.10210870  1
  O  O271  1  0.04698954  0.19902603  0.44200210  1
  O  O272  1  0.02990718  0.17852653  0.76167058  1
  O  O273  1  0.03123132  0.70435536  0.10126593  1
  O  O274  1  0.03561895  0.70478558  0.43511706  1
  O  O275  1  0.03146525  0.69958877  0.76943519  1
  O  O276  1  0.52450328  0.18936702  0.10100889  1
  O  O277  1  0.52424839  0.20659389  0.44097418  1
  O  O278  1  0.53136870  0.20104199  0.77331774  1
  O  O279  1  0.53118312  0.69932219  0.10447246  1
  O  O280  1  0.51555536  0.70312355  0.42159204  1
  O  O281  1  0.53258520  0.70002550  0.77492758  1
  O  O282  1  0.30300590  0.47279176  0.06617765  1
  O  O283  1  0.30289340  0.47157490  0.39162415  1
  O  O284  1  0.30243395  0.47159275  0.73609706  1
  O  O285  1  0.29654428  0.96969582  0.06212001  1
  O  O286  1  0.29637721  0.96893445  0.39577939  1
  O  O287  1  0.29727848  0.96771995  0.72913326  1
  O  O288  1  0.79140426  0.47213879  0.05596764  1
  O  O289  1  0.80448840  0.45763301  0.40188634  1
  O  O290  1  0.79307912  0.47184386  0.73130583  1
  O  O291  1  0.80307612  0.97454116  0.06370097  1
  O  O292  1  0.80063931  0.95238159  0.39569993  1
  O  O293  1  0.79839227  0.96196346  0.72593524  1
  O  O294  1  0.46763265  0.29464060  0.22926602  1
  O  O295  1  0.47773176  0.29790040  0.56465289  1
  O  O296  1  0.46880729  0.29343969  0.89526533  1
  O  O297  1  0.46125514  0.81039599  0.22927262  1
  O  O298  1  0.45733455  0.81066206  0.56395234  1
  O  O299  1  0.46717416  0.81994111  0.90079111  1
  O  O300  1  0.97870869  0.29668704  0.22172242  1
  O  O301  1  0.96785226  0.29258300  0.56496206  1
  O  O302  1  0.97599971  0.30271209  0.90102157  1
  O  O303  1  0.96970591  0.79914075  0.22735318  1
  O  O304  1  0.96902365  0.80093706  0.56424853  1
  O  O305  1  0.96902235  0.80612333  0.89674393  1
  O  O306  1  0.19940104  0.03296324  0.26964251  1
  O  O307  1  0.19926753  0.03401556  0.60421533  1
  O  O308  1  0.19657288  0.03015350  0.93558107  1
  O  O309  1  0.20025681  0.53241308  0.26777908  1
  O  O310  1  0.18368628  0.53337002  0.59713993  1
  O  O311  1  0.20745476  0.53165259  0.93719004  1
  O  O312  1  0.70011545  0.02881933  0.26854724  1
  O  O313  1  0.70517795  0.03797769  0.61195304  1
  O  O314  1  0.70125458  0.03749897  0.93924941  1
  O  O315  1  0.68028018  0.52197227  0.25196097  1
  O  O316  1  0.70787973  0.52429263  0.61233486  1
  O  O317  1  0.70520380  0.52552923  0.93815895  1
  O  O318  1  0.08107987  0.08328949  0.03257631  1
  O  O319  1  0.09157352  0.08803080  0.36582869  1
  O  O320  1  0.08125555  0.07549652  0.68489749  1
  O  O321  1  0.09553313  0.59838231  0.04100828  1
  O  O322  1  0.09045843  0.59362131  0.36805096  1
  O  O323  1  0.09141817  0.59101647  0.70581421  1
  O  O324  1  0.57912071  0.07887388  0.03496964  1
  O  O325  1  0.56381714  0.08348050  0.38196127  1
  O  O326  1  0.58469385  0.08851049  0.71037560  1
  O  O327  1  0.59588410  0.59693030  0.03778151  1
  O  O328  1  0.57756871  0.59513171  0.36918651  1
  O  O329  1  0.58414919  0.58626604  0.71116702  1
  O  O330  1  0.40784084  0.40663787  0.12646065  1
  O  O331  1  0.41342760  0.41351837  0.45682137  1
  O  O332  1  0.41132927  0.41086497  0.79342787  1
  O  O333  1  0.41171815  0.92019177  0.12918350  1
  O  O334  1  0.40663071  0.91048863  0.45725717  1
  O  O335  1  0.40892539  0.91360689  0.79663220  1
  O  O336  1  0.90460824  0.41852585  0.12282859  1
  O  O337  1  0.91443095  0.40983436  0.47331174  1
  O  O338  1  0.90049905  0.40722709  0.78693081  1
  O  O339  1  0.91502301  0.92160238  0.13025982  1
  O  O340  1  0.91627825  0.91043838  0.46882196  1
  O  O341  1  0.91106360  0.91236611  0.79572046  1
  O  O342  1  0.41606976  0.40892093  0.29399157  1
  O  O343  1  0.43630336  0.41695210  0.63382481  1
  O  O344  1  0.41100128  0.40072399  0.96103435  1
  O  O345  1  0.41142181  0.91920904  0.30320648  1
  O  O346  1  0.40583369  0.91478292  0.64099642  1
  O  O347  1  0.41485623  0.92580443  0.97328083  1
  O  O348  1  0.92893798  0.41359766  0.28218962  1
  O  O349  1  0.91380023  0.40405842  0.62959342  1
  O  O350  1  0.91188017  0.40735472  0.96042697  1
  O  O351  1  0.90618290  0.90533278  0.28724834  1
  O  O352  1  0.91289662  0.91125157  0.63096273  1
  O  O353  1  0.91777538  0.91927090  0.96383196  1
  O  O354  1  0.08881724  0.08945857  0.20431151  1
  O  O355  1  0.09737363  0.10226569  0.54264990  1
  O  O356  1  0.08426011  0.08335130  0.86934473  1
  O  O357  1  0.09252189  0.59326942  0.20589085  1
  O  O358  1  0.08103315  0.58741560  0.52141871  1
  O  O359  1  0.09544534  0.58524177  0.87192070  1
  O  O360  1  0.58992071  0.08395047  0.20555647  1
  O  O361  1  0.59145201  0.09034058  0.54572407  1
  O  O362  1  0.58274393  0.07928825  0.86909195  1
  O  O363  1  0.56736055  0.56614487  0.17804686  1
  O  O364  1  0.58727307  0.56988930  0.55468565  1
  O  O365  1  0.59078251  0.57783842  0.87412390  1
  O  O366  1  0.14066561  0.21566077  0.05464232  1
  O  O367  1  0.14090830  0.22230455  0.38303421  1
  O  O368  1  0.14106169  0.21160892  0.72530506  1
  O  O369  1  0.14058633  0.73337923  0.06109341  1
  O  O370  1  0.13951065  0.72890087  0.38797001  1
  O  O371  1  0.13925205  0.72694377  0.72744525  1
  O  O372  1  0.63525900  0.21264919  0.05930608  1
  O  O373  1  0.63486993  0.20734182  0.39467210  1
  O  O374  1  0.64066721  0.21971444  0.72841367  1
  O  O375  1  0.63546365  0.73367659  0.06086186  1
  O  O376  1  0.63572631  0.72904646  0.39601239  1
  O  O377  1  0.63374081  0.71790869  0.72223103  1
  O  O378  1  0.27189306  0.36348398  0.10569246  1
  O  O379  1  0.27899278  0.37050755  0.44263186  1
  O  O380  1  0.27810237  0.35920234  0.77441321  1
  O  O381  1  0.27962936  0.86215363  0.10849579  1
  O  O382  1  0.27262439  0.86285847  0.44153668  1
  O  O383  1  0.27407012  0.86095560  0.77439410  1
  O  O384  1  0.77234221  0.37396855  0.11239399  1
  O  O385  1  0.78120443  0.35279674  0.44993180  1
  O  O386  1  0.76832395  0.36303497  0.77410094  1
  O  O387  1  0.78139217  0.86523740  0.10648041  1
  O  O388  1  0.78551158  0.85949521  0.45888886  1
  O  O389  1  0.77746904  0.85845144  0.77607004  1
  O  O390  1  0.36066373  0.27685602  0.27572133  1
  O  O391  1  0.37104304  0.28623245  0.61198282  1
  O  O392  1  0.36164272  0.26564441  0.93799274  1
  O  O393  1  0.35827340  0.78353036  0.27739926  1
  O  O394  1  0.35406000  0.77855899  0.60988714  1
  O  O395  1  0.36048971  0.79010943  0.94481892  1
  O  O396  1  0.87292406  0.28386961  0.26951367  1
  O  O397  1  0.86611732  0.27100363  0.61538221  1
  O  O398  1  0.86524870  0.27214710  0.93841806  1
  O  O399  1  0.86470840  0.77202748  0.27501697  1
  O  O400  1  0.85976825  0.77668781  0.60705479  1
  O  O401  1  0.85960235  0.78568867  0.94054113  1
  O  O402  1  0.22333400  0.13996730  0.22511015  1
  O  O403  1  0.23449443  0.14202262  0.56521839  1
  O  O404  1  0.21843174  0.13793769  0.89076684  1
  O  O405  1  0.22722584  0.64136550  0.22591134  1
  O  O406  1  0.21766354  0.64080696  0.55629703  1
  O  O407  1  0.22857335  0.64071744  0.89329952  1
  O  O408  1  0.72417377  0.13792678  0.22489885  1
  O  O409  1  0.72358100  0.13627532  0.55601907  1
  O  O410  1  0.71237360  0.13791326  0.88252577  1
  O  O411  1  0.69539833  0.63621656  0.21089731  1
  O  O412  1  0.71245068  0.62923041  0.55981595  1
  O  O413  1  0.72365646  0.63642183  0.89704353  1
  O  O414  1  0.49047080  0.32192684  0.02817966  1
  O  O415  1  0.49217173  0.32889256  0.36280421  1
  O  O416  1  0.50148457  0.33033687  0.69941563  1
  O  O417  1  0.49182918  0.84115864  0.03330436  1
  O  O418  1  0.48997601  0.83727015  0.36408798  1
  O  O419  1  0.48618068  0.82931542  0.69664094  1
  O  O420  1  0.99106616  0.33200908  0.03231670  1
  O  O421  1  1.00432210  0.33880370  0.35715933  1
  O  O422  1  0.99822107  0.33313405  0.70074915  1
  O  O423  1  0.99018314  0.83705286  0.03021144  1
  O  O424  1  0.99312267  0.83637175  0.36118033  1
  O  O425  1  0.99020886  0.83117872  0.69673139  1
  O  O426  1  0.16538698  0.00994481  0.13610546  1
  O  O427  1  0.16976499  0.01541910  0.47313334  1
  O  O428  1  0.16400313  0.00818885  0.80157454  1
  O  O429  1  0.16905968  0.51317770  0.13537797  1
  O  O430  1  0.16987726  0.51001367  0.46710100  1
  O  O431  1  0.17460910  0.50984825  0.80362723  1
  O  O432  1  0.66696730  0.00875340  0.13492231  1
  O  O433  1  0.66202151  0.00254352  0.47666692  1
  O  O434  1  0.66290583  0.00278763  0.80305884  1
  O  O435  1  0.66252116  0.50421791  0.12115965  1
  O  O436  1  0.65908745  0.49717619  0.47578973  1
  O  O437  1  0.67293418  0.50721663  0.80535172  1
  O  O438  1  0.00746815  0.16643418  0.30548143  1
  O  O439  1  0.01123122  0.16773737  0.63108365  1
  O  O440  1  0.00839352  0.16658401  0.96751351  1
  O  O441  1  0.00922544  0.66912509  0.30068538  1
  O  O442  1  0.01097234  0.66798041  0.63657052  1
  O  O443  1  0.01359125  0.67250922  0.96913770  1
  O  O444  1  0.50363220  0.16263644  0.30594317  1
  O  O445  1  0.50957369  0.16733090  0.64011486  1
  O  O446  1  0.50557408  0.16014746  0.96812056  1
  O  O447  1  0.51482760  0.67387408  0.29255920  1
  O  O448  1  0.50073779  0.65809865  0.63903926  1
  O  O449  1  0.50723211  0.67156052  0.97203431  1
  O  O450  1  0.33458566  0.49072440  0.19757844  1
  O  O451  1  0.34387300  0.50098746  0.52675060  1
  O  O452  1  0.33689690  0.48667523  0.86831403  1
  O  O453  1  0.32902338  0.99379264  0.19582590  1
  O  O454  1  0.33249216  0.99143826  0.52957640  1
  O  O455  1  0.32850982  0.99129543  0.86243213  1
  O  O456  1  0.83440646  0.50744064  0.19089616  1
  O  O457  1  0.83036012  0.48509059  0.53634818  1
  O  O458  1  0.83162142  0.49022299  0.86436790  1
  O  O459  1  0.83406223  0.99525219  0.19758760  1
  O  O460  1  0.83935065  0.99424805  0.53200052  1
  O  O461  1  0.83206159  0.99157125  0.86064084  1
