# generated using pymatgen
data_Na31Fe20(SO4)36
_symmetry_space_group_name_H-M   'P 1'
_cell_length_a   18.08216312
_cell_length_b   18.07954282
_cell_length_c   19.71784029
_cell_angle_alpha   107.57470066
_cell_angle_beta   107.61856278
_cell_angle_gamma   90.69085988
_symmetry_Int_Tables_number   1
_chemical_formula_structural   Na31Fe20(SO4)36
_chemical_formula_sum   'Na62 Fe40 S72 O288'
_cell_volume   5818.88126188
_cell_formula_units_Z   2
loop_
 _symmetry_equiv_pos_site_id
 _symmetry_equiv_pos_as_xyz
  1  'x, y, z'
loop_
 _atom_site_type_symbol
 _atom_site_label
 _atom_site_symmetry_multiplicity
 _atom_site_fract_x
 _atom_site_fract_y
 _atom_site_fract_z
 _atom_site_occupancy
  Na  Na0  1  0.15974317  0.33816290  0.07366850  1
  Na  Na1  1  0.14034723  0.36269539  0.41929258  1
  Na  Na2  1  0.13848791  0.37176704  0.76207443  1
  Na  Na3  1  0.13432693  0.86532340  0.07981331  1
  Na  Na4  1  0.13399310  0.86812282  0.41465320  1
  Na  Na5  1  0.13396332  0.87674052  0.75211295  1
  Na  Na6  1  0.62902765  0.36918129  0.08110902  1
  Na  Na7  1  0.63428458  0.36391831  0.41507121  1
  Na  Na8  1  0.63088299  0.37420707  0.74988158  1
  Na  Na9  1  0.63697880  0.85521185  0.09485345  1
  Na  Na10  1  0.63160815  0.86785940  0.41379831  1
  Na  Na11  1  0.62939502  0.86567518  0.75364871  1
  Na  Na12  1  0.35802310  0.13587687  0.24255686  1
  Na  Na13  1  0.36452735  0.13861775  0.58709056  1
  Na  Na14  1  0.35864093  0.13006598  0.90681709  1
  Na  Na15  1  0.36226430  0.63907549  0.24622567  1
  Na  Na16  1  0.36739723  0.63350251  0.58440948  1
  Na  Na17  1  0.36716557  0.64328002  0.92122054  1
  Na  Na18  1  0.85882414  0.13304788  0.25561807  1
  Na  Na19  1  0.89019147  0.16077353  0.61432472  1
  Na  Na20  1  0.85781276  0.13008546  0.90860532  1
  Na  Na21  1  0.86043940  0.63929808  0.24194308  1
  Na  Na22  1  0.87083402  0.62766585  0.58326558  1
  Na  Na23  1  0.86658509  0.62591463  0.90954931  1
  Na  Na24  1  0.98973429  0.49344183  0.43941249  1
  Na  Na25  1  1.00676266  0.46671068  0.79854416  1
  Na  Na26  1  0.50213668  -0.02083652  0.09543623  1
  Na  Na27  1  0.96435457  0.02261981  0.43025820  1
  Na  Na28  1  0.50446256  0.55432186  0.78750271  1
  Na  Na29  1  0.45863112  0.52011164  -0.02848191  1
  Na  Na30  1  1.02499463  0.48082258  0.03382165  1
  Na  Na31  1  0.98930980  0.00412644  0.07777774  1
  Na  Na32  1  0.48867159  0.50781824  0.41471758  1
  Na  Na33  1  0.50972486  0.98937076  0.91066531  1
  Na  Na34  1  0.06316521  1.01213635  0.62191361  1
  Na  Na35  1  0.50566941  0.96763920  0.26107847  1
  Na  Na36  1  0.50637852  0.50903932  0.22910804  1
  Na  Na37  1  0.51096498  0.99698569  0.58068389  1
  Na  Na38  1  -0.01928941  1.00418750  0.25883270  1
  Na  Na39  1  0.00831455  1.00671425  0.88425565  1
  Na  Na40  1  0.00992764  0.49301159  0.24507765  1
  Na  Na41  1  0.53830163  0.48554724  0.60081880  1
  Na  Na42  1  0.73906599  0.73370518  0.67425689  1
  Na  Na43  1  0.75971524  0.77535495  0.30826255  1
  Na  Na44  1  0.25239783  0.75347545  0.33208224  1
  Na  Na45  1  0.24819620  0.75060258  0.66532736  1
  Na  Na46  1  0.74001451  0.23730630  0.34212684  1
  Na  Na47  1  0.25666679  0.25669151  0.32263987  1
  Na  Na48  1  0.22885637  0.23603324  0.67856877  1
  Na  Na49  1  0.73451467  0.73423737  0.01161757  1
  Na  Na50  1  0.75253481  0.25249150  -0.00524126  1
  Na  Na51  1  0.26244547  0.76037803  -0.00135501  1
  Na  Na52  1  0.72843085  0.72823668  0.84233672  1
  Na  Na53  1  0.76807112  0.25918007  0.80403657  1
  Na  Na54  1  0.24809133  0.74795742  0.49831951  1
  Na  Na55  1  0.26602934  0.75973561  0.15904845  1
  Na  Na56  1  0.25654008  0.75818602  0.83292130  1
  Na  Na57  1  0.75387863  0.24027915  0.52227995  1
  Na  Na58  1  0.74686366  0.24800530  0.16739533  1
  Na  Na59  1  0.75736407  0.75685859  0.49323620  1
  Na  Na60  1  0.24128457  0.24494765  0.85294152  1
  Na  Na61  1  0.23313243  0.23802508  0.50836838  1
  Fe  Fe62  1  0.96355690  0.80585073  0.11670372  1
  Fe  Fe63  1  0.96695058  0.80882280  0.45031972  1
  Fe  Fe64  1  0.96687419  0.80414820  0.78150909  1
  Fe  Fe65  1  0.46751368  0.30455997  0.45106939  1
  Fe  Fe66  1  0.46502168  0.80518978  0.79022485  1
  Fe  Fe67  1  0.96498109  0.30448526  0.11928257  1
  Fe  Fe68  1  0.46157883  0.30460725  0.11058786  1
  Fe  Fe69  1  0.46514768  0.31496798  0.78863916  1
  Fe  Fe70  1  0.46345311  0.80787358  0.45702166  1
  Fe  Fe71  1  0.96978235  0.30594131  0.46220847  1
  Fe  Fe72  1  0.19508917  0.53242758  0.71252770  1
  Fe  Fe73  1  0.69547281  0.03214180  0.71550691  1
  Fe  Fe74  1  0.18887012  0.03663688  0.37948995  1
  Fe  Fe75  1  0.69103733  0.53667259  0.38006182  1
  Fe  Fe76  1  0.20476692  0.52867878  0.04210771  1
  Fe  Fe77  1  0.70099998  0.03352195  0.38076190  1
  Fe  Fe78  1  0.69529118  0.02946227  0.04881810  1
  Fe  Fe79  1  0.18776306  0.04435528  0.05031763  1
  Fe  Fe80  1  0.68902686  0.53629054  0.04589083  1
  Fe  Fe81  1  0.19646292  0.53028992  0.37858381  1
  Fe  Fe82  1  0.03572162  0.69180172  0.54492401  1
  Fe  Fe83  1  0.03085301  0.20031083  0.87543913  1
  Fe  Fe84  1  0.03752540  0.68964310  0.20985834  1
  Fe  Fe85  1  0.53101191  0.70261204  0.21189141  1
  Fe  Fe86  1  0.53431232  0.18831845  0.87518442  1
  Fe  Fe87  1  0.53444528  0.69244462  0.54893788  1
  Fe  Fe88  1  0.53851960  0.18583574  0.54431734  1
  Fe  Fe89  1  0.03603140  0.69225419  0.87685407  1
  Fe  Fe90  1  0.03176364  0.19249545  0.21444463  1
  Fe  Fe91  1  0.53075934  0.19201952  0.21011743  1
  Fe  Fe92  1  0.31542289  0.46293869  0.62103101  1
  Fe  Fe93  1  0.80025423  0.46831010  0.62926475  1
  Fe  Fe94  1  0.30371849  0.97071551  0.62566179  1
  Fe  Fe95  1  0.81092728  0.96264209  0.62002326  1
  Fe  Fe96  1  0.80521176  0.96150838  0.94845026  1
  Fe  Fe97  1  0.80412377  0.46568585  0.28680530  1
  Fe  Fe98  1  0.80611570  0.46290987  0.94729859  1
  Fe  Fe99  1  0.30634059  0.45754845  0.27210893  1
  Fe  Fe100  1  0.30309493  0.97297667  0.95471365  1
  Fe  Fe101  1  0.30719243  0.96776599  0.28957515  1
  S  S102  1  0.35600910  0.14447093  0.08471384  1
  S  S103  1  0.35747395  0.14261018  0.41779135  1
  S  S104  1  0.36175729  0.14635550  0.74755318  1
  S  S105  1  0.36048260  0.64167856  0.08812066  1
  S  S106  1  0.35955609  0.63797380  0.41526728  1
  S  S107  1  0.35501688  0.64179004  0.74674729  1
  S  S108  1  0.85827817  0.13793930  0.08293178  1
  S  S109  1  0.85904373  0.14613281  0.42097967  1
  S  S110  1  0.86321451  0.13249418  0.75308529  1
  S  S111  1  0.86402342  0.63612639  0.08158392  1
  S  S112  1  0.86077156  0.63939420  0.41508418  1
  S  S113  1  0.85851843  0.64305959  0.74771216  1
  S  S114  1  0.13843671  0.35808876  0.25047546  1
  S  S115  1  0.14700330  0.36158160  0.58118945  1
  S  S116  1  0.13233580  0.36468433  0.92051977  1
  S  S117  1  0.14059016  0.85837569  0.24617711  1
  S  S118  1  0.14223041  0.85387967  0.57957978  1
  S  S119  1  0.13640629  0.86626020  0.91800691  1
  S  S120  1  0.63654238  0.36004553  0.24807959  1
  S  S121  1  0.64082054  0.35279260  0.57852773  1
  S  S122  1  0.64211210  0.35525847  0.91644482  1
  S  S123  1  0.63495486  0.86476569  0.25290248  1
  S  S124  1  0.64140265  0.85777063  0.58406224  1
  S  S125  1  0.64108242  0.85825911  0.91664720  1
  S  S126  1  0.05961182  0.16495790  0.04046899  1
  S  S127  1  0.06322916  0.17084564  0.37401783  1
  S  S128  1  0.07752264  0.17820561  0.72347588  1
  S  S129  1  0.07480718  0.67185882  0.04291060  1
  S  S130  1  0.06851888  0.66527521  0.37168467  1
  S  S131  1  0.07406914  0.67477129  0.70874000  1
  S  S132  1  0.56760859  0.16626339  0.03971606  1
  S  S133  1  0.56632694  0.16699288  0.37356995  1
  S  S134  1  0.57192552  0.16606573  0.70621401  1
  S  S135  1  0.56646721  0.66756203  0.04627876  1
  S  S136  1  0.56528856  0.67088135  0.37608612  1
  S  S137  1  0.56003909  0.67013545  0.70833256  1
  S  S138  1  0.33896970  0.43744980  0.13344599  1
  S  S139  1  0.33452134  0.43370417  0.45578082  1
  S  S140  1  0.33688704  0.43971001  0.79081392  1
  S  S141  1  0.32674332  0.94137963  0.12675000  1
  S  S142  1  0.32862878  0.93330028  0.46001381  1
  S  S143  1  0.32893003  0.93095750  0.79087725  1
  S  S144  1  0.82898269  0.43015665  0.12539810  1
  S  S145  1  0.82194571  0.43067043  0.45555431  1
  S  S146  1  0.82127028  0.43155931  0.78639505  1
  S  S147  1  0.83445835  0.93436668  0.12186039  1
  S  S148  1  0.83047962  0.93109190  0.45754906  1
  S  S149  1  0.82801592  0.92495602  0.78759169  1
  S  S150  1  0.43344154  0.32901916  0.29089399  1
  S  S151  1  0.43576573  0.32713321  0.61895123  1
  S  S152  1  0.43410305  0.32293463  0.95146667  1
  S  S153  1  0.42855145  0.83006053  0.29649467  1
  S  S154  1  0.42941140  0.82955783  0.62365488  1
  S  S155  1  0.43068773  0.84029849  0.96073750  1
  S  S156  1  0.93144307  0.33198623  0.29348085  1
  S  S157  1  0.93479643  0.34803628  0.63063940  1
  S  S158  1  0.92581725  0.32164597  0.95790784  1
  S  S159  1  0.94175129  0.83030006  0.29023119  1
  S  S160  1  0.93440005  0.82474503  0.61925323  1
  S  S161  1  0.93065508  0.82677871  0.95335250  1
  S  S162  1  0.16290035  0.06639163  0.20940191  1
  S  S163  1  0.16535229  0.05940028  0.53759128  1
  S  S164  1  0.16722592  0.07260794  0.87975586  1
  S  S165  1  0.17264161  0.56479527  0.20962938  1
  S  S166  1  0.17206870  0.56717885  0.53910406  1
  S  S167  1  0.17276849  0.57528913  0.87574458  1
  S  S168  1  0.66663591  0.06911653  0.20762620  1
  S  S169  1  0.67690591  0.06605110  0.54531900  1
  S  S170  1  0.66868974  0.06438684  0.87676489  1
  S  S171  1  0.67180048  0.57346640  0.21376528  1
  S  S172  1  0.66666906  0.56326135  0.53901506  1
  S  S173  1  0.67273634  0.56606044  0.88480780  1
  O  O174  1  0.36772176  0.22380378  0.08024393  1
  O  O175  1  0.36714680  0.22196138  0.41029083  1
  O  O176  1  0.38027807  0.22148681  0.73397711  1
  O  O177  1  0.35853488  0.72167009  0.08460739  1
  O  O178  1  0.36787365  0.71837284  0.41004039  1
  O  O179  1  0.36437653  0.71963894  0.73592143  1
  O  O180  1  0.86641658  0.21853839  0.07851223  1
  O  O181  1  0.86848871  0.22615771  0.41289061  1
  O  O182  1  0.86474623  0.20902186  0.74403190  1
  O  O183  1  0.87222704  0.71470525  0.07167174  1
  O  O184  1  0.87181434  0.71888764  0.40954221  1
  O  O185  1  0.87574939  0.71704799  0.73208762  1
  O  O186  1  0.28067168  0.13498812  0.09834161  1
  O  O187  1  0.27838426  0.13322536  0.42596822  1
  O  O188  1  0.28521491  0.14794264  0.75795853  1
  O  O189  1  0.28670234  0.62312440  0.10474180  1
  O  O190  1  0.28039606  0.62881905  0.42309820  1
  O  O191  1  0.27279366  0.63451526  0.74877174  1
  O  O192  1  0.77942902  0.12788169  0.09090495  1
  O  O193  1  0.77355826  0.13730763  0.41650811  1
  O  O194  1  0.78853466  0.11718562  0.76920604  1
  O  O195  1  0.78617975  0.62642968  0.09062436  1
  O  O196  1  0.78322321  0.63182493  0.42641518  1
  O  O197  1  0.78349677  0.64515444  0.76108847  1
  O  O198  1  0.12588373  0.28021084  0.25972389  1
  O  O199  1  0.14396790  0.28292689  0.58672912  1
  O  O200  1  0.11697798  0.28647482  0.93314332  1
  O  O201  1  0.13357295  0.77895116  0.25437230  1
  O  O202  1  0.13459403  0.77069424  0.57986682  1
  O  O203  1  0.12880455  0.78723376  0.92626830  1
  O  O204  1  0.62878274  0.28116140  0.25685406  1
  O  O205  1  0.63558044  0.26938825  0.57453632  1
  O  O206  1  0.63068079  0.27681130  0.92555074  1
  O  O207  1  0.62025154  0.78875935  0.26899316  1
  O  O208  1  0.63172077  0.77849849  0.59148878  1
  O  O209  1  0.63525626  0.77952536  0.92076710  1
  O  O210  1  0.21962095  0.36562167  0.24945873  1
  O  O211  1  0.22331555  0.37674940  0.56721851  1
  O  O212  1  0.20922921  0.36729743  0.91151897  1
  O  O213  1  0.22009182  0.86925345  0.23937134  1
  O  O214  1  0.22246695  0.86547433  0.57495117  1
  O  O215  1  0.21460134  0.87578743  0.90836248  1
  O  O216  1  0.71601451  0.36996696  0.24058231  1
  O  O217  1  0.72137962  0.37022587  0.57408530  1
  O  O218  1  0.72166129  0.36125531  0.90902678  1
  O  O219  1  0.71211480  0.86601564  0.24447383  1
  O  O220  1  0.71933118  0.86584125  0.57423904  1
  O  O221  1  0.71672090  0.87098353  0.90152137  1
  O  O222  1  0.41841695  0.13155275  0.14920638  1
  O  O223  1  0.41676489  0.13410519  0.48508657  1
  O  O224  1  0.42093886  0.13502151  0.81436220  1
  O  O225  1  0.42532436  0.63649601  0.15619746  1
  O  O226  1  0.41877366  0.62855343  0.48266592  1
  O  O227  1  0.40989365  0.63564616  0.81569955  1
  O  O228  1  0.91769179  0.12816264  0.15008358  1
  O  O229  1  0.90825862  0.14018130  0.49262199  1
  O  O230  1  0.92726783  0.12588437  0.82124086  1
  O  O231  1  0.92395631  0.63146618  0.15119649  1
  O  O232  1  0.92164093  0.62666664  0.48051786  1
  O  O233  1  0.92122403  0.63257970  0.81213215  1
  O  O234  1  0.36018097  0.08732160  0.01364715  1
  O  O235  1  0.36236856  0.08444770  0.34796496  1
  O  O236  1  0.36449729  0.08308122  0.67918557  1
  O  O237  1  0.36700783  0.58585566  0.01994575  1
  O  O238  1  0.36807000  0.58042791  0.34721055  1
  O  O239  1  0.36553748  0.58174502  0.67954701  1
  O  O240  1  0.86683668  0.08090187  0.01396836  1
  O  O241  1  0.87447209  0.08818711  0.35719306  1
  O  O242  1  0.87041563  0.07205499  0.68583133  1
  O  O243  1  0.87495084  0.57622909  0.01567402  1
  O  O244  1  0.86514767  0.58092358  0.34510576  1
  O  O245  1  0.85618349  0.57926203  0.67676186  1
  O  O246  1  0.08257114  0.36541040  0.18041639  1
  O  O247  1  0.08474838  0.36981012  0.51429152  1
  O  O248  1  0.07121554  0.37721600  0.85858703  1
  O  O249  1  0.08178135  0.86500785  0.17748782  1
  O  O250  1  0.08486510  0.86232630  0.51036749  1
  O  O251  1  0.07566940  0.87437694  0.85054027  1
  O  O252  1  0.57779936  0.36669934  0.17924765  1
  O  O253  1  0.58304020  0.36461451  0.51017329  1
  O  O254  1  0.58405139  0.36249060  0.84765593  1
  O  O255  1  0.57375502  0.87433230  0.18833274  1
  O  O256  1  0.58090352  0.86716624  0.51728430  1
  O  O257  1  0.57794479  0.87239914  0.85334239  1
  O  O258  1  0.12634413  0.41907123  0.31616897  1
  O  O259  1  0.14171048  0.41957382  0.65089828  1
  O  O260  1  0.13106939  0.42376899  0.99408033  1
  O  O261  1  0.13184108  0.91664485  0.31389118  1
  O  O262  1  0.13036434  0.90717485  0.64647978  1
  O  O263  1  0.12881679  0.92492040  0.98613329  1
  O  O264  1  0.62763251  0.41972478  0.31499877  1
  O  O265  1  0.62760888  0.40487211  0.64509875  1
  O  O266  1  0.63584220  0.41519460  0.98463821  1
  O  O267  1  0.62970945  0.92690998  0.32256481  1
  O  O268  1  0.63390694  0.91660610  0.65253272  1
  O  O269  1  0.63758257  0.91673897  0.98782058  1
  O  O270  1  0.02425798  0.19674431  0.10298328  1
  O  O271  1  0.02941737  0.20121358  0.43439729  1
  O  O272  1  0.03456786  0.20503624  0.78137187  1
  O  O273  1  0.03559255  0.70102754  0.10230095  1
  O  O274  1  0.03159466  0.69458291  0.43175793  1
  O  O275  1  0.03751181  0.70549871  0.77002111  1
  O  O276  1  0.53041810  0.19765339  0.10000993  1
  O  O277  1  0.52609461  0.19419484  0.43235889  1
  O  O278  1  0.53763021  0.19512353  0.76787929  1
  O  O279  1  0.54564287  0.69901620  0.11696008  1
  O  O280  1  0.52762825  0.69766136  0.43669660  1
  O  O281  1  0.52364046  0.70569309  0.76662042  1
  O  O282  1  0.30076262  0.46107229  0.06787780  1
  O  O283  1  0.30500756  0.47092304  0.39512171  1
  O  O284  1  0.30196566  0.47218653  0.72560433  1
  O  O285  1  0.29228665  0.97636250  0.06513607  1
  O  O286  1  0.30041342  0.96851328  0.39777313  1
  O  O287  1  0.30504682  0.96482950  0.72968464  1
  O  O288  1  0.80181124  0.46471244  0.06378732  1
  O  O289  1  0.79403575  0.47228737  0.39689801  1
  O  O290  1  0.79380550  0.47279560  0.72802454  1
  O  O291  1  0.80224241  0.96696152  0.05690061  1
  O  O292  1  0.80236260  0.97042390  0.40044767  1
  O  O293  1  0.79706538  0.95862669  0.72518429  1
  O  O294  1  0.46846683  0.29967876  0.22927244  1
  O  O295  1  0.47585766  0.29587355  0.56032188  1
  O  O296  1  0.47412117  0.29250228  0.89171922  1
  O  O297  1  0.46313089  0.79864304  0.23636527  1
  O  O298  1  0.46938472  0.79829823  0.56415851  1
  O  O299  1  0.45478229  0.81165472  0.89304939  1
  O  O300  1  0.96768349  0.30243090  0.23203974  1
  O  O301  1  0.96294282  0.33250551  0.56536824  1
  O  O302  1  0.95922778  0.28764555  0.89716893  1
  O  O303  1  0.97583325  0.79539194  0.22702687  1
  O  O304  1  0.97364342  0.79618862  0.55933474  1
  O  O305  1  0.96664548  0.79684497  0.89206923  1
  O  O306  1  0.19384528  0.02921882  0.26974201  1
  O  O307  1  0.19841152  0.02208458  0.59626502  1
  O  O308  1  0.19635919  0.04135931  0.94651500  1
  O  O309  1  0.20265552  0.52480997  0.26879014  1
  O  O310  1  0.20055903  0.53397969  0.60117426  1
  O  O311  1  0.19685454  0.54508308  0.93923854  1
  O  O312  1  0.69140501  0.03832108  0.27031604  1
  O  O313  1  0.70524417  0.02695462  0.60538588  1
  O  O314  1  0.70062654  0.02926781  0.93881134  1
  O  O315  1  0.69819461  0.53255254  0.27292027  1
  O  O316  1  0.69594395  0.52427905  0.59665401  1
  O  O317  1  0.70968113  0.52599085  0.94468989  1
  O  O318  1  0.06792065  0.07967541  0.03168607  1
  O  O319  1  0.08101053  0.08810956  0.36721720  1
  O  O320  1  0.11103748  0.10657992  0.73033868  1
  O  O321  1  0.09716684  0.59300961  0.04204752  1
  O  O322  1  0.08799037  0.58384790  0.36721457  1
  O  O323  1  0.09742339  0.59718332  0.70793949  1
  O  O324  1  0.58647514  0.08500506  0.03638194  1
  O  O325  1  0.58736849  0.08696559  0.36829352  1
  O  O326  1  0.59094775  0.08392095  0.70027557  1
  O  O327  1  0.58867702  0.58600412  0.04194638  1
  O  O328  1  0.57859682  0.58661232  0.36614440  1
  O  O329  1  0.57233369  0.58954376  0.70706045  1
  O  O330  1  0.41677060  0.41154412  0.13024068  1
  O  O331  1  0.41738670  0.41791463  0.46176859  1
  O  O332  1  0.41645673  0.41873884  0.78712661  1
  O  O333  1  0.40923262  0.93242829  0.13587032  1
  O  O334  1  0.41048390  0.91460359  0.46794047  1
  O  O335  1  0.41119038  0.91147371  0.80277243  1
  O  O336  1  0.91114349  0.41071976  0.13433505  1
  O  O337  1  0.90280084  0.41424676  0.45872015  1
  O  O338  1  0.89661989  0.40444641  0.78844445  1
  O  O339  1  0.91674235  0.91526331  0.12306715  1
  O  O340  1  0.91180498  0.91105145  0.45929079  1
  O  O341  1  0.90971921  0.90763991  0.79280105  1
  O  O342  1  0.41599835  0.41152824  0.29729793  1
  O  O343  1  0.42200247  0.40962162  0.62233332  1
  O  O344  1  0.41136862  0.39930487  0.95124156  1
  O  O345  1  0.41003436  0.91098546  0.29807269  1
  O  O346  1  0.40932081  0.90852439  0.62303433  1
  O  O347  1  0.40934712  0.92364920  0.96901403  1
  O  O348  1  0.91559498  0.41511788  0.29991694  1
  O  O349  1  0.89973499  0.42619326  0.64008189  1
  O  O350  1  0.90594369  0.40182163  0.95828913  1
  O  O351  1  0.93416531  0.91300660  0.29894113  1
  O  O352  1  0.91295767  0.90365114  0.62179298  1
  O  O353  1  0.91351609  0.90909122  0.95874546  1
  O  O354  1  0.08008188  0.08163242  0.20428435  1
  O  O355  1  0.08274651  0.06725303  0.53029294  1
  O  O356  1  0.09175270  0.10684148  0.88548079  1
  O  O357  1  0.08968583  0.57894205  0.20378863  1
  O  O358  1  0.09018186  0.58634047  0.53108981  1
  O  O359  1  0.08868341  0.59141057  0.86130331  1
  O  O360  1  0.58324263  0.08740435  0.19421176  1
  O  O361  1  0.59509662  0.08324678  0.54211271  1
  O  O362  1  0.58700501  0.08004928  0.87266072  1
  O  O363  1  0.59228356  0.59616475  0.21230474  1
  O  O364  1  0.58464727  0.58136371  0.53658483  1
  O  O365  1  0.60197834  0.59571650  0.89861120  1
  O  O366  1  0.13467460  0.20877975  0.05853740  1
  O  O367  1  0.13523855  0.22024004  0.38580550  1
  O  O368  1  0.14129230  0.24197773  0.74282637  1
  O  O369  1  0.14417223  0.72714437  0.05972822  1
  O  O370  1  0.13932434  0.71789020  0.38706681  1
  O  O371  1  0.14097985  0.73191945  0.72258321  1
  O  O372  1  0.63884490  0.21882832  0.05650302  1
  O  O373  1  0.63578863  0.22308976  0.39313573  1
  O  O374  1  0.64072605  0.21800140  0.71800269  1
  O  O375  1  0.63319800  0.71919772  0.05270421  1
  O  O376  1  0.63833853  0.72070228  0.39618651  1
  O  O377  1  0.63355963  0.71916368  0.72270803  1
  O  O378  1  0.29036228  0.37705513  0.14296438  1
  O  O379  1  0.28351622  0.36127742  0.43724058  1
  O  O380  1  0.28555644  0.36984398  0.77862789  1
  O  O381  1  0.27807926  0.86682088  0.10858281  1
  O  O382  1  0.27601988  0.86135583  0.44196101  1
  O  O383  1  0.27530717  0.86001505  0.77447195  1
  O  O384  1  0.77604367  0.35945355  0.11027739  1
  O  O385  1  0.76877738  0.35905729  0.43358758  1
  O  O386  1  0.76094846  0.36788472  0.77126873  1
  O  O387  1  0.78428413  0.86387768  0.10850564  1
  O  O388  1  0.77816899  0.85830002  0.43888164  1
  O  O389  1  0.77660536  0.85493280  0.77466412  1
  O  O390  1  0.36379258  0.27776556  0.27832709  1
  O  O391  1  0.36192679  0.27772966  0.59847472  1
  O  O392  1  0.36808241  0.26554750  0.93690104  1
  O  O393  1  0.35633111  0.77990824  0.28316351  1
  O  O394  1  0.35926813  0.77450687  0.60490994  1
  O  O395  1  0.35965611  0.78919674  0.94995653  1
  O  O396  1  0.85901475  0.28118732  0.27565351  1
  O  O397  1  0.87257785  0.28689445  0.61703055  1
  O  O398  1  0.85585525  0.27064806  0.94730530  1
  O  O399  1  0.86837168  0.78245487  0.27419857  1
  O  O400  1  0.86514226  0.76890001  0.60087050  1
  O  O401  1  0.86006485  0.77546750  0.93865596  1
  O  O402  1  0.21323352  0.13800826  0.22585326  1
  O  O403  1  0.21356657  0.13457244  0.55614096  1
  O  O404  1  0.22531165  0.13426009  0.88818645  1
  O  O405  1  0.22224890  0.63886944  0.23162609  1
  O  O406  1  0.22448425  0.63752588  0.55257424  1
  O  O407  1  0.22322160  0.64755206  0.88985151  1
  O  O408  1  0.71834548  0.14061440  0.22122278  1
  O  O409  1  0.72953620  0.13615917  0.56303107  1
  O  O410  1  0.71903242  0.13630119  0.89263890  1
  O  O411  1  0.72743622  0.64203763  0.23267462  1
  O  O412  1  0.71757772  0.63492883  0.55439370  1
  O  O413  1  0.73209744  0.63195457  0.89894718  1
  O  O414  1  0.49480839  0.32744228  0.02532123  1
  O  O415  1  0.49480279  0.33330988  0.36351816  1
  O  O416  1  0.49120111  0.32671577  0.69190916  1
  O  O417  1  0.49520219  0.84516488  0.02854738  1
  O  O418  1  0.48746029  0.83463888  0.37027811  1
  O  O419  1  0.48679854  0.83325573  0.69708582  1
  O  O420  1  0.98764574  0.33225287  0.03232677  1
  O  O421  1  0.98983154  0.33371375  0.36608931  1
  O  O422  1  1.00136779  0.35890474  0.69834297  1
  O  O423  1  0.99122452  0.83014966  0.02595288  1
  O  O424  1  0.99990723  0.82416566  0.36104554  1
  O  O425  1  0.99320997  0.82849039  0.69239025  1
  O  O426  1  0.15932353  0.00867389  0.13552332  1
  O  O427  1  0.16907343  0.00516326  0.46320869  1
  O  O428  1  0.14963660  0.00551056  0.81231800  1
  O  O429  1  0.17419474  0.50911042  0.13769708  1
  O  O430  1  0.16961312  0.50581195  0.46713433  1
  O  O431  1  0.17555638  0.51341911  0.80639376  1
  O  O432  1  0.66743660  0.00707401  0.13704751  1
  O  O433  1  0.67358934  0.00787070  0.47215236  1
  O  O434  1  0.66839255  0.00519050  0.80506347  1
  O  O435  1  0.66881075  0.51378746  0.14150095  1
  O  O436  1  0.65898206  0.50674924  0.46280402  1
  O  O437  1  0.65614226  0.50768862  0.81079754  1
  O  O438  1  0.00276105  0.16610225  0.29978196  1
  O  O439  1  0.02054106  0.16669927  0.64953846  1
  O  O440  1  0.00156808  0.16852727  0.96925863  1
  O  O441  1  0.00953912  0.66050159  0.29812764  1
  O  O442  1  0.01274041  0.66803895  0.63555211  1
  O  O443  1  0.01587181  0.66766812  0.96956086  1
  O  O444  1  0.50777629  0.16557152  0.30057018  1
  O  O445  1  0.50983099  0.16011230  0.63289451  1
  O  O446  1  0.50903683  0.16172143  0.96639877  1
  O  O447  1  0.50816613  0.67331424  0.30400791  1
  O  O448  1  0.50418957  0.66748191  0.63242077  1
  O  O449  1  0.49719190  0.65998741  0.98200346  1
  O  O450  1  0.35739891  0.50599292  0.20561909  1
  O  O451  1  0.33492763  0.49142403  0.52830496  1
  O  O452  1  0.34666756  0.50271019  0.86086813  1
  O  O453  1  0.32136823  0.99734723  0.19879705  1
  O  O454  1  0.32930843  0.99247850  0.53135787  1
  O  O455  1  0.32660696  0.99123469  0.86157999  1
  O  O456  1  0.83098866  0.49049444  0.19767115  1
  O  O457  1  0.82001333  0.48603047  0.52857504  1
  O  O458  1  0.82783499  0.49277967  0.86059623  1
  O  O459  1  0.84224790  0.99714029  0.19182412  1
  O  O460  1  0.83553585  0.98629478  0.53251275  1
  O  O461  1  0.83197797  0.98700513  0.85972591  1
