# generated using pymatgen
data_Na31Fe20(SO4)36
_symmetry_space_group_name_H-M   'P 1'
_cell_length_a   18.07942200
_cell_length_b   18.07569467
_cell_length_c   19.70104803
_cell_angle_alpha   107.56673201
_cell_angle_beta   107.59917253
_cell_angle_gamma   90.68759182
_symmetry_Int_Tables_number   1
_chemical_formula_structural   Na31Fe20(SO4)36
_chemical_formula_sum   'Na62 Fe40 S72 O288'
_cell_volume   5812.84231885
_cell_formula_units_Z   2
loop_
 _symmetry_equiv_pos_site_id
 _symmetry_equiv_pos_as_xyz
  1  'x, y, z'
loop_
 _atom_site_type_symbol
 _atom_site_label
 _atom_site_symmetry_multiplicity
 _atom_site_fract_x
 _atom_site_fract_y
 _atom_site_fract_z
 _atom_site_occupancy
  Na  Na0  1  0.13177700  0.36813135  0.08069729  1
  Na  Na1  1  0.13702412  0.36701068  0.41589430  1
  Na  Na2  1  0.13039398  0.36495105  0.74939691  1
  Na  Na3  1  0.11203898  0.86051394  0.06984122  1
  Na  Na4  1  0.12698768  0.86713752  0.41323815  1
  Na  Na5  1  0.12196215  0.86000496  0.74630906  1
  Na  Na6  1  0.63763557  0.36350811  0.07508448  1
  Na  Na7  1  0.63849241  0.36455071  0.42026718  1
  Na  Na8  1  0.74845421  0.27446148  0.81347864  1
  Na  Na9  1  0.65886106  0.88132205  0.11667419  1
  Na  Na10  1  0.61771462  0.87991123  0.39600886  1
  Na  Na11  1  0.63266711  0.86473434  0.74746148  1
  Na  Na12  1  0.38073739  0.11212828  0.24974023  1
  Na  Na13  1  0.37126850  0.12931988  0.58648374  1
  Na  Na14  1  0.37110563  0.13552297  0.92150215  1
  Na  Na15  1  0.36878118  0.63407818  0.24470806  1
  Na  Na16  1  0.36771070  0.63368097  0.58556351  1
  Na  Na17  1  0.37513515  0.63208697  0.91850174  1
  Na  Na18  1  0.85891054  0.13497132  0.24869900  1
  Na  Na19  1  0.85482744  0.13775780  0.58087257  1
  Na  Na20  1  0.82949570  0.14295399  0.89474455  1
  Na  Na21  1  0.84768039  0.64251677  0.23978811  1
  Na  Na22  1  0.86952671  0.63900136  0.59648958  1
  Na  Na23  1  0.87033269  0.65386802  0.92871293  1
  Na  Na24  1  0.99497205  0.55308339  0.76719683  1
  Na  Na25  1  0.53967526  0.46307703  0.78380672  1
  Na  Na26  1  0.49438989  0.50599291  0.41631510  1
  Na  Na27  1  0.92826185  0.00213288  0.39808973  1
  Na  Na28  1  0.49984647  -0.00256903  0.74724635  1
  Na  Na29  1  1.01102607  -0.02919732  0.85955462  1
  Na  Na30  1  0.95049766  0.50685148  0.06567592  1
  Na  Na31  1  0.98386951  0.51481793  0.41657632  1
  Na  Na32  1  0.49973660  0.54074671  0.07562934  1
  Na  Na33  1  -0.00658439  0.50935904  0.24333089  1
  Na  Na34  1  -0.02363295  1.00311691  0.61635793  1
  Na  Na35  1  -0.00789717  0.52297800  0.91845917  1
  Na  Na36  1  0.00539312  0.48260416  0.58348407  1
  Na  Na37  1  0.50879687  0.50235367  0.24196980  1
  Na  Na38  1  -0.00928142  0.93381799  0.21827581  1
  Na  Na39  1  0.54220878  0.99224609  0.58329058  1
  Na  Na40  1  0.50914928  0.98592996  0.93443555  1
  Na  Na41  1  0.51486608  0.48726245  0.59269571  1
  Na  Na42  1  0.76123603  0.76245017  0.01466645  1
  Na  Na43  1  0.74516048  0.77890534  0.29957988  1
  Na  Na44  1  0.24512740  0.24438175  0.33475252  1
  Na  Na45  1  0.24741752  0.24777666  0.00442945  1
  Na  Na46  1  0.73081542  0.21999981  0.34193155  1
  Na  Na47  1  0.76226397  0.75953556  0.66147750  1
  Na  Na48  1  0.25084069  0.24789274  0.66755844  1
  Na  Na49  1  0.25752565  0.75463988  0.32998764  1
  Na  Na50  1  0.23472250  0.73816071  0.00100610  1
  Na  Na51  1  0.24482307  0.74368619  0.67291508  1
  Na  Na52  1  0.25102711  0.75088577  0.49764479  1
  Na  Na53  1  0.77078235  0.76309108  0.82748759  1
  Na  Na54  1  0.74998846  0.75940421  0.48646678  1
  Na  Na55  1  0.24754476  0.23986084  0.17201673  1
  Na  Na56  1  0.75240027  0.25548564  0.16349924  1
  Na  Na57  1  0.23201088  0.73860678  0.84082654  1
  Na  Na58  1  0.24499751  0.75196186  0.16275556  1
  Na  Na59  1  0.24440596  0.24117523  0.50283262  1
  Na  Na60  1  0.24875534  0.24443090  0.83525904  1
  Na  Na61  1  0.73100773  0.23269836  0.51497508  1
  Fe  Fe62  1  0.47234391  0.79976171  0.12603278  1
  Fe  Fe63  1  0.46660236  0.30425449  0.78690432  1
  Fe  Fe64  1  0.96815926  0.30898981  0.44786249  1
  Fe  Fe65  1  0.46781960  0.79950127  0.44766156  1
  Fe  Fe66  1  0.46533438  0.30672414  0.11833716  1
  Fe  Fe67  1  0.95409724  0.32334598  0.78762316  1
  Fe  Fe68  1  0.95998882  0.81560704  0.45930796  1
  Fe  Fe69  1  0.46683645  0.80251985  0.78743928  1
  Fe  Fe70  1  0.96464657  0.30901019  0.11111576  1
  Fe  Fe71  1  0.46454044  0.30639514  0.45156565  1
  Fe  Fe72  1  0.69299681  0.04371872  0.05161645  1
  Fe  Fe73  1  0.69866942  0.53483623  0.04460637  1
  Fe  Fe74  1  0.18979697  0.53424027  0.37762398  1
  Fe  Fe75  1  0.19765037  0.03156487  0.71314940  1
  Fe  Fe76  1  0.69928795  0.52840090  0.72125997  1
  Fe  Fe77  1  0.19614832  0.53251990  0.71428653  1
  Fe  Fe78  1  0.19169999  0.03371589  0.37745595  1
  Fe  Fe79  1  0.69337399  0.53604941  0.38163821  1
  Fe  Fe80  1  0.19436005  0.03018668  0.04585811  1
  Fe  Fe81  1  0.19284513  0.53524506  0.04548063  1
  Fe  Fe82  1  0.02968553  0.69824652  0.55001574  1
  Fe  Fe83  1  0.03555306  0.19308013  0.54509079  1
  Fe  Fe84  1  0.54245345  0.69404175  0.88474773  1
  Fe  Fe85  1  0.53667453  0.18807447  0.54871624  1
  Fe  Fe86  1  0.53771314  0.68693080  0.54787463  1
  Fe  Fe87  1  0.03873762  0.19084171  0.87634633  1
  Fe  Fe88  1  0.03168100  0.18647227  0.20285597  1
  Fe  Fe89  1  0.53337044  0.19236435  0.21630495  1
  Fe  Fe90  1  0.02942541  0.69605907  0.21242554  1
  Fe  Fe91  1  0.54335028  0.19109249  0.88338222  1
  Fe  Fe92  1  0.31190838  0.96320961  0.29046445  1
  Fe  Fe93  1  0.80613580  0.46513254  0.28111545  1
  Fe  Fe94  1  0.79075316  0.97398340  0.62836269  1
  Fe  Fe95  1  0.80413361  0.97542216  0.95273507  1
  Fe  Fe96  1  0.30468844  0.46524325  0.28231090  1
  Fe  Fe97  1  0.31445252  0.96152685  0.95797893  1
  Fe  Fe98  1  0.30876310  0.96137563  0.61979283  1
  Fe  Fe99  1  0.31033671  0.46494611  0.61932659  1
  Fe  Fe100  1  0.30822731  0.46294480  0.94949976  1
  Fe  Fe101  1  0.80821858  0.45932048  0.61833762  1
  S  S102  1  0.35956839  0.13884319  0.08368278  1
  S  S103  1  0.35834507  0.14066031  0.41785450  1
  S  S104  1  0.36314440  0.13749306  0.75121671  1
  S  S105  1  0.36179046  0.63719839  0.08018714  1
  S  S106  1  0.35921371  0.63676589  0.41802984  1
  S  S107  1  0.36226361  0.63857923  0.75031848  1
  S  S108  1  0.85665631  0.14919307  0.07426412  1
  S  S109  1  0.86144324  0.15240003  0.42212807  1
  S  S110  1  0.87259056  0.14270095  0.74968728  1
  S  S111  1  0.85895532  0.64081990  0.08738233  1
  S  S112  1  0.85957217  0.64050548  0.41719317  1
  S  S113  1  0.85661229  0.63549569  0.74769261  1
  S  S114  1  0.13911820  0.35917322  0.24598782  1
  S  S115  1  0.14239996  0.35945071  0.57878232  1
  S  S116  1  0.14174269  0.35851035  0.91465540  1
  S  S117  1  0.14437146  0.85788133  0.25308289  1
  S  S118  1  0.14190932  0.85797821  0.58563188  1
  S  S119  1  0.14582015  0.86096151  0.91509180  1
  S  S120  1  0.63860994  0.36179844  0.25308597  1
  S  S121  1  0.63666460  0.36131401  0.58429096  1
  S  S122  1  0.63467599  0.36546885  0.91595732  1
  S  S123  1  0.62941054  0.87324128  0.25350068  1
  S  S124  1  0.63676578  0.85196013  0.57837063  1
  S  S125  1  0.63898889  0.86484755  0.91630128  1
  S  S126  1  0.07437745  0.17419038  0.04242829  1
  S  S127  1  0.06960240  0.17314921  0.37184672  1
  S  S128  1  0.07884595  0.16759635  0.70639020  1
  S  S129  1  0.06823531  0.66573802  0.04472110  1
  S  S130  1  0.06500496  0.66740208  0.37748719  1
  S  S131  1  0.07114900  0.66188708  0.70459353  1
  S  S132  1  0.56485264  0.17599462  0.04530860  1
  S  S133  1  0.56479836  0.17402344  0.38231398  1
  S  S134  1  0.55943012  0.16368714  0.70931513  1
  S  S135  1  0.57598403  0.67560214  0.04372320  1
  S  S136  1  0.56138747  0.65682536  0.37403413  1
  S  S137  1  0.57073822  0.66676072  0.70998171  1
  S  S138  1  0.33058843  0.43344880  0.12358240  1
  S  S139  1  0.33113783  0.43376468  0.45586019  1
  S  S140  1  0.32885952  0.42963590  0.78702802  1
  S  S141  1  0.32598558  0.91957405  0.12153857  1
  S  S142  1  0.33158133  0.92897123  0.45984081  1
  S  S143  1  0.33545577  0.93091095  0.79266600  1
  S  S144  1  0.83108391  0.43547946  0.12682307  1
  S  S145  1  0.83190073  0.43397612  0.45524665  1
  S  S146  1  0.85039305  0.44289975  0.79309299  1
  S  S147  1  0.83338890  0.94743537  0.11681568  1
  S  S148  1  0.82697460  0.93328058  0.46581720  1
  S  S149  1  0.81401913  0.93729013  0.78384331  1
  S  S150  1  0.43149693  0.33532044  0.29158558  1
  S  S151  1  0.43108100  0.33094919  0.62298427  1
  S  S152  1  0.42919709  0.33231310  0.95987216  1
  S  S153  1  0.42405305  0.82136036  0.28642314  1
  S  S154  1  0.43321190  0.82333542  0.62167799  1
  S  S155  1  0.42992412  0.82050256  0.95513995  1
  S  S156  1  0.93726824  0.33539810  0.28868873  1
  S  S157  1  0.93635998  0.33066275  0.62107758  1
  S  S158  1  0.93975128  0.33439342  0.95037382  1
  S  S159  1  0.93453196  0.82984211  0.29541927  1
  S  S160  1  0.92646427  0.83008604  0.62610446  1
  S  S161  1  0.91432888  0.83707272  0.94950311  1
  S  S162  1  0.17749881  0.06868145  0.21145923  1
  S  S163  1  0.17412787  0.06770326  0.54274004  1
  S  S164  1  0.17802059  0.06767277  0.87711933  1
  S  S165  1  0.16764391  0.56601934  0.20886272  1
  S  S166  1  0.16928424  0.56648823  0.54036159  1
  S  S167  1  0.17168097  0.56187582  0.87641332  1
  S  S168  1  0.67062785  0.08537142  0.20558231  1
  S  S169  1  0.66752963  0.06392344  0.54304139  1
  S  S170  1  0.65205093  0.06066277  0.87201086  1
  S  S171  1  0.66974804  0.56368218  0.20837045  1
  S  S172  1  0.67095858  0.56217071  0.54381982  1
  S  S173  1  0.67609049  0.57464715  0.88222406  1
  O  O174  1  0.36730738  0.21703000  0.07285544  1
  O  O175  1  0.36499728  0.21978004  0.40891645  1
  O  O176  1  0.36906491  0.21444655  0.73800033  1
  O  O177  1  0.37329929  0.71611222  0.07116279  1
  O  O178  1  0.36738215  0.71740282  0.41364544  1
  O  O179  1  0.37087079  0.71703904  0.73979207  1
  O  O180  1  0.87028300  0.22756493  0.06724702  1
  O  O181  1  0.87476210  0.23365990  0.41719446  1
  O  O182  1  0.89712221  0.21160389  0.73164063  1
  O  O183  1  0.86593089  0.72136167  0.08929149  1
  O  O184  1  0.86917578  0.71994163  0.41239415  1
  O  O185  1  0.86025166  0.70518824  0.72531032  1
  O  O186  1  0.27885267  0.12906527  0.08814658  1
  O  O187  1  0.27759158  0.13043463  0.42335737  1
  O  O188  1  0.28389905  0.12860482  0.75924498  1
  O  O189  1  0.28023478  0.63200017  0.08486951  1
  O  O190  1  0.28052991  0.62730758  0.42703857  1
  O  O191  1  0.28260404  0.63078810  0.75773400  1
  O  O192  1  0.77878571  0.14320357  0.08385720  1
  O  O193  1  0.78604863  0.14784702  0.43422654  1
  O  O194  1  0.80110236  0.15216651  0.76942681  1
  O  O195  1  0.78105839  0.62346046  0.09934801  1
  O  O196  1  0.78079258  0.62988780  0.42531438  1
  O  O197  1  0.77588904  0.62424571  0.75416000  1
  O  O198  1  0.13097904  0.27904411  0.25151101  1
  O  O199  1  0.13610061  0.27767953  0.58113895  1
  O  O200  1  0.13566263  0.28001407  0.92488277  1
  O  O201  1  0.13452595  0.78152300  0.26635732  1
  O  O202  1  0.13146921  0.77892555  0.59356540  1
  O  O203  1  0.13984934  0.78267252  0.92120559  1
  O  O204  1  0.62673536  0.28553702  0.26456029  1
  O  O205  1  0.62674204  0.28191212  0.58850389  1
  O  O206  1  0.61795071  0.29173555  0.93152642  1
  O  O207  1  0.61706620  0.80147731  0.27248784  1
  O  O208  1  0.63350390  0.77072390  0.58352618  1
  O  O209  1  0.63607772  0.78555443  0.92371996  1
  O  O210  1  0.21802862  0.36893805  0.23714534  1
  O  O211  1  0.22001856  0.37119461  0.56848306  1
  O  O212  1  0.21961523  0.36635525  0.90313126  1
  O  O213  1  0.22712131  0.86598404  0.25289276  1
  O  O214  1  0.22248892  0.86551486  0.57973610  1
  O  O215  1  0.22616404  0.87411972  0.90745135  1
  O  O216  1  0.71778126  0.36852681  0.24520939  1
  O  O217  1  0.71362165  0.36966396  0.57122626  1
  O  O218  1  0.70708176  0.36738393  0.89961784  1
  O  O219  1  0.70457117  0.87528986  0.23884979  1
  O  O220  1  0.71970475  0.86855287  0.58018678  1
  O  O221  1  0.71520007  0.88002458  0.90435606  1
  O  O222  1  0.41544671  0.13621215  0.15491182  1
  O  O223  1  0.41512780  0.13527226  0.48757316  1
  O  O224  1  0.42198390  0.13361412  0.82064766  1
  O  O225  1  0.41810800  0.62563498  0.14574330  1
  O  O226  1  0.41887175  0.62505163  0.48403873  1
  O  O227  1  0.42115466  0.63151226  0.81767334  1
  O  O228  1  0.91628324  0.13902393  0.14115575  1
  O  O229  1  0.92317493  0.14106947  0.48957805  1
  O  O230  1  0.93419253  0.12496151  0.81121514  1
  O  O231  1  0.91967650  0.62558065  0.15344991  1
  O  O232  1  0.91894979  0.62901780  0.48431770  1
  O  O233  1  0.91434282  0.63581677  0.81808675  1
  O  O234  1  0.37081093  0.07848756  0.01819223  1
  O  O235  1  0.36680940  0.08132523  0.35085834  1
  O  O236  1  0.37148116  0.07566316  0.68491606  1
  O  O237  1  0.36868137  0.57832227  0.01062079  1
  O  O238  1  0.36583635  0.58006168  0.34811886  1
  O  O239  1  0.36799825  0.57946205  0.68101540  1
  O  O240  1  0.85959259  0.09013486  0.00319506  1
  O  O241  1  0.86918174  0.09627432  0.35431730  1
  O  O242  1  0.86405324  0.07501437  0.67826357  1
  O  O243  1  0.86521713  0.58527020  0.01803371  1
  O  O244  1  0.86863403  0.58220027  0.34887732  1
  O  O245  1  0.86829882  0.56780254  0.68417556  1
  O  O246  1  0.07977845  0.37073227  0.18013538  1
  O  O247  1  0.08147934  0.37203286  0.51371941  1
  O  O248  1  0.08124411  0.36579387  0.84774195  1
  O  O249  1  0.09023505  0.86313061  0.18331534  1
  O  O250  1  0.08507745  0.86584481  0.51727609  1
  O  O251  1  0.08741023  0.87172895  0.84969197  1
  O  O252  1  0.57961430  0.36981266  0.18456582  1
  O  O253  1  0.57536433  0.37479342  0.51886506  1
  O  O254  1  0.56799625  0.37661317  0.85390840  1
  O  O255  1  0.56689540  0.86684874  0.17569013  1
  O  O256  1  0.58377263  0.85499666  0.50469548  1
  O  O257  1  0.57551919  0.86837510  0.84771174  1
  O  O258  1  0.13366081  0.41660924  0.31621689  1
  O  O259  1  0.13547025  0.41425507  0.64926089  1
  O  O260  1  0.13772805  0.41752411  0.98426344  1
  O  O261  1  0.13322843  0.92026866  0.31885570  1
  O  O262  1  0.13522570  0.91716164  0.65405363  1
  O  O263  1  0.13966691  0.91998205  0.98539911  1
  O  O264  1  0.63085004  0.42380131  0.31999435  1
  O  O265  1  0.63061984  0.42027526  0.65335379  1
  O  O266  1  0.63573314  0.42953191  0.98754167  1
  O  O267  1  0.61692994  0.94202563  0.30807707  1
  O  O268  1  0.61631436  0.90628431  0.63980450  1
  O  O269  1  0.62814651  0.92350718  0.98280237  1
  O  O270  1  0.03427299  0.20493041  0.10112416  1
  O  O271  1  0.03347897  0.20352434  0.43320227  1
  O  O272  1  0.05643442  0.19789758  0.77451356  1
  O  O273  1  0.04559507  0.69019314  0.11353606  1
  O  O274  1  0.03065515  0.69729684  0.43946385  1
  O  O275  1  0.04183039  0.67802929  0.76723358  1
  O  O276  1  0.52610130  0.20378382  0.10536274  1
  O  O277  1  0.52407544  0.20857309  0.44163827  1
  O  O278  1  0.53000306  0.20535354  0.77531241  1
  O  O279  1  0.53408209  0.70112611  0.10053261  1
  O  O280  1  0.52709979  0.69051121  0.43769953  1
  O  O281  1  0.53303183  0.69749744  0.76990722  1
  O  O282  1  0.30037705  0.46856429  0.06194389  1
  O  O283  1  0.29999995  0.46769282  0.39334842  1
  O  O284  1  0.29751965  0.46617776  0.72536126  1
  O  O285  1  0.30225574  0.96375418  0.06567162  1
  O  O286  1  0.30311018  0.96812456  0.40110585  1
  O  O287  1  0.30504550  0.96808303  0.73190915  1
  O  O288  1  0.79594663  0.46682555  0.06448540  1
  O  O289  1  0.80202029  0.47140471  0.39488735  1
  O  O290  1  0.79593365  0.45526653  0.72288628  1
  O  O291  1  0.79323275  0.98384296  0.05250889  1
  O  O292  1  0.80933600  0.97170598  0.40928863  1
  O  O293  1  0.78006629  0.97676687  0.72593371  1
  O  O294  1  0.46403004  0.30178863  0.22870397  1
  O  O295  1  0.46531395  0.29808142  0.56143291  1
  O  O296  1  0.45702185  0.29920162  0.89453962  1
  O  O297  1  0.45118359  0.79733827  0.22013713  1
  O  O298  1  0.47032470  0.79429590  0.56128777  1
  O  O299  1  0.47208979  0.79304603  0.89752574  1
  O  O300  1  0.97108291  0.30529855  0.22636561  1
  O  O301  1  0.98027439  0.30384504  0.56525983  1
  O  O302  1  0.97503219  0.29378465  0.88941918  1
  O  O303  1  0.97788479  0.79700825  0.24195001  1
  O  O304  1  0.96596089  0.80476870  0.56394778  1
  O  O305  1  0.91789362  0.80979034  0.87307915  1
  O  O306  1  0.20570116  0.02968305  0.27119333  1
  O  O307  1  0.20322706  0.02879027  0.60235005  1
  O  O308  1  0.20946821  0.03334189  0.93897319  1
  O  O309  1  0.20125309  0.53090676  0.27157316  1
  O  O310  1  0.20127168  0.53050707  0.60121958  1
  O  O311  1  0.20795758  0.52418253  0.93609742  1
  O  O312  1  0.70458885  0.07043480  0.27569948  1
  O  O313  1  0.69611283  0.02937096  0.60735549  1
  O  O314  1  0.69695944  0.03613883  0.93950615  1
  O  O315  1  0.70462065  0.52614878  0.26902678  1
  O  O316  1  0.70097191  0.52713463  0.60517743  1
  O  O317  1  0.69554899  0.54183171  0.94521976  1
  O  O318  1  0.09778094  0.09664290  0.04387347  1
  O  O319  1  0.08980307  0.09333663  0.36876414  1
  O  O320  1  0.09519336  0.08399262  0.69557162  1
  O  O321  1  0.09156488  0.58290300  0.03487814  1
  O  O322  1  0.07958316  0.58322240  0.37060842  1
  O  O323  1  0.09146282  0.57773360  0.68561022  1
  O  O324  1  0.58315703  0.09462017  0.03791458  1
  O  O325  1  0.58340336  0.09781841  0.38365340  1
  O  O326  1  0.55253054  0.07963407  0.70038699  1
  O  O327  1  0.60328984  0.59761741  0.04848108  1
  O  O328  1  0.58170000  0.57564998  0.37687731  1
  O  O329  1  0.59015895  0.58601487  0.70672529  1
  O  O330  1  0.41238785  0.41539885  0.12988080  1
  O  O331  1  0.41414518  0.41872150  0.46229189  1
  O  O332  1  0.40763107  0.40829999  0.78768694  1
  O  O333  1  0.40116181  0.88958447  0.11891603  1
  O  O334  1  0.41104679  0.90588790  0.46436696  1
  O  O335  1  0.41736806  0.91334965  0.79580171  1
  O  O336  1  0.91239721  0.41739325  0.12522993  1
  O  O337  1  0.91526268  0.41908807  0.45924278  1
  O  O338  1  0.93358252  0.44637379  0.79032846  1
  O  O339  1  0.90803286  0.92570891  0.10815593  1
  O  O340  1  0.91405772  0.92160277  0.48637530  1
  O  O341  1  0.89361564  0.92407924  0.78763654  1
  O  O342  1  0.41598131  0.41811254  0.29480417  1
  O  O343  1  0.41576391  0.41342230  0.62482664  1
  O  O344  1  0.41309233  0.41499811  0.96675248  1
  O  O345  1  0.40692868  0.90333040  0.30313400  1
  O  O346  1  0.41496684  0.90522729  0.62829751  1
  O  O347  1  0.41691666  0.90339321  0.96077714  1
  O  O348  1  0.92013475  0.41848443  0.29492216  1
  O  O349  1  0.92029278  0.41291147  0.62418213  1
  O  O350  1  0.93884028  0.41684528  0.95380871  1
  O  O351  1  0.91891142  0.90847455  0.29196112  1
  O  O352  1  0.89713588  0.90767618  0.62771428  1
  O  O353  1  0.89430338  0.92298847  0.96302768  1
  O  O354  1  0.10025233  0.09446399  0.21176569  1
  O  O355  1  0.09505986  0.09015985  0.53944634  1
  O  O356  1  0.09685231  0.08486858  0.87289327  1
  O  O357  1  0.08596902  0.58013789  0.20609793  1
  O  O358  1  0.08690660  0.58211815  0.53394778  1
  O  O359  1  0.09314948  0.57703817  0.87807296  1
  O  O360  1  0.58613295  0.09802709  0.19246748  1
  O  O361  1  0.58872218  0.08912665  0.54750433  1
  O  O362  1  0.57132110  0.07641428  0.87901948  1
  O  O363  1  0.58555420  0.56294600  0.19652611  1
  O  O364  1  0.58697629  0.57619641  0.53760936  1
  O  O365  1  0.59236102  0.59183308  0.86582740  1
  O  O366  1  0.14432924  0.23054416  0.06132531  1
  O  O367  1  0.14099953  0.22715584  0.38940497  1
  O  O368  1  0.14915997  0.21764073  0.71439848  1
  O  O369  1  0.13691630  0.71893803  0.05480841  1
  O  O370  1  0.13842529  0.71586143  0.39341253  1
  O  O371  1  0.14147282  0.71567208  0.71901755  1
  O  O372  1  0.63465900  0.22979566  0.06384012  1
  O  O373  1  0.63416433  0.23158389  0.40111052  1
  O  O374  1  0.63719502  0.19886793  0.72309922  1
  O  O375  1  0.64080397  0.73161249  0.05511650  1
  O  O376  1  0.63187168  0.70629156  0.38673328  1
  O  O377  1  0.63922259  0.72031534  0.72307749  1
  O  O378  1  0.27916151  0.36275427  0.10973585  1
  O  O379  1  0.28148327  0.36147977  0.44086452  1
  O  O380  1  0.27480883  0.35998960  0.77194634  1
  O  O381  1  0.26495763  0.85513056  0.10445217  1
  O  O382  1  0.27520209  0.86014054  0.44346655  1
  O  O383  1  0.28382716  0.85988041  0.77619566  1
  O  O384  1  0.78333439  0.36743407  0.12320951  1
  O  O385  1  0.78143171  0.36255254  0.43882168  1
  O  O386  1  0.83215234  0.36129414  0.79028841  1
  O  O387  1  0.77817169  0.87996053  0.10303881  1
  O  O388  1  0.77852191  0.85765249  0.44221329  1
  O  O389  1  0.76339172  0.86371021  0.76486303  1
  O  O390  1  0.35972366  0.28732133  0.28032078  1
  O  O391  1  0.35773383  0.28257315  0.60879615  1
  O  O392  1  0.35775938  0.28312919  0.95008260  1
  O  O393  1  0.35323681  0.76745575  0.27111674  1
  O  O394  1  0.36143977  0.77119399  0.60426553  1
  O  O395  1  0.35589948  0.76995133  0.93100745  1
  O  O396  1  0.86653394  0.28541319  0.27604985  1
  O  O397  1  0.86371137  0.28004458  0.59925757  1
  O  O398  1  0.86333433  0.29249962  0.93379242  1
  O  O399  1  0.86420104  0.77797083  0.28051338  1
  O  O400  1  0.85833071  0.77062591  0.60277743  1
  O  O401  1  0.84779932  0.79002914  0.95363977  1
  O  O402  1  0.23541204  0.13674142  0.22865046  1
  O  O403  1  0.23022828  0.13724910  0.56068059  1
  O  O404  1  0.22906293  0.14000396  0.89238624  1
  O  O405  1  0.21771638  0.63818781  0.22438856  1
  O  O406  1  0.21993776  0.63876741  0.55631083  1
  O  O407  1  0.22377083  0.63292093  0.89124535  1
  O  O408  1  0.71520846  0.15642927  0.20565175  1
  O  O409  1  0.72164397  0.13310123  0.55926681  1
  O  O410  1  0.69227207  0.13290890  0.87492772  1
  O  O411  1  0.71206130  0.64099367  0.23017328  1
  O  O412  1  0.71931676  0.63465305  0.55811281  1
  O  O413  1  0.72889611  0.64463169  0.89894048  1
  O  O414  1  0.49166234  0.33491003  0.03084075  1
  O  O415  1  0.49228615  0.34075628  0.36443366  1
  O  O416  1  0.48913619  0.33530702  0.69613237  1
  O  O417  1  0.48295368  0.81653809  0.02746214  1
  O  O418  1  0.48622203  0.81414122  0.35342930  1
  O  O419  1  0.49121341  0.82479625  0.69442321  1
  O  O420  1  0.99516590  0.33149450  0.02412236  1
  O  O421  1  0.99831411  0.33965390  0.36147582  1
  O  O422  1  0.99087869  0.33140597  0.69536504  1
  O  O423  1  0.98670527  0.83872396  0.00792475  1
  O  O424  1  0.98921718  0.83829551  0.37430297  1
  O  O425  1  0.98606424  0.83478805  0.69626014  1
  O  O426  1  0.17165480  0.00949457  0.13855318  1
  O  O427  1  0.17082744  0.00915919  0.46972170  1
  O  O428  1  0.17665526  0.00845845  0.80498706  1
  O  O429  1  0.16833441  0.50680584  0.13769220  1
  O  O430  1  0.16853806  0.50731892  0.46779842  1
  O  O431  1  0.16774500  0.50455313  0.80143782  1
  O  O432  1  0.67165758  0.01815351  0.13803540  1
  O  O433  1  0.65725045  0.00345588  0.47258850  1
  O  O434  1  0.63899892  -0.00461095  0.80288255  1
  O  O435  1  0.68114155  0.51072098  0.13698020  1
  O  O436  1  0.66992429  0.50310172  0.47155948  1
  O  O437  1  0.67745669  0.51091215  0.81362989  1
  O  O438  1  0.01089954  0.17220988  0.29974337  1
  O  O439  1  0.01368760  0.16653613  0.63792644  1
  O  O440  1  0.01731134  0.16874548  0.96871009  1
  O  O441  1  0.00683462  0.66554747  0.30495396  1
  O  O442  1  0.00925494  0.66454413  0.63403719  1
  O  O443  1  0.00278065  0.66061678  0.97788066  1
  O  O444  1  0.50756176  0.17513533  0.30880196  1
  O  O445  1  0.50280055  0.17499329  0.64013931  1
  O  O446  1  0.50557662  0.17565859  0.97324496  1
  O  O447  1  0.50017609  0.64454926  0.30226045  1
  O  O448  1  0.50979794  0.66020285  0.63575268  1
  O  O449  1  0.51557743  0.65967945  0.96760325  1
  O  O450  1  0.33299299  0.49421307  0.19574178  1
  O  O451  1  0.33200547  0.49336418  0.52763524  1
  O  O452  1  0.33290464  0.48984548  0.85897092  1
  O  O453  1  0.33552559  0.97822157  0.19658170  1
  O  O454  1  0.33574246  0.98837682  0.53343638  1
  O  O455  1  0.34066191  0.98983089  0.86631308  1
  O  O456  1  0.84432399  0.49905683  0.20138177  1
  O  O457  1  0.83604117  0.49207841  0.52912148  1
  O  O458  1  0.84682088  0.50384118  0.85952975  1
  O  O459  1  0.84250138  1.00816225  0.18813619  1
  O  O460  1  0.81950704  0.98722943  0.53904755  1
  O  O461  1  0.80946317  0.99370074  0.85698949  1
