# generated using pymatgen
data_Na31Fe20(SO4)36
_symmetry_space_group_name_H-M   'P 1'
_cell_length_a   18.07778677
_cell_length_b   18.07179942
_cell_length_c   19.70570057
_cell_angle_alpha   107.57372343
_cell_angle_beta   107.60619417
_cell_angle_gamma   90.71981586
_symmetry_Int_Tables_number   1
_chemical_formula_structural   Na31Fe20(SO4)36
_chemical_formula_sum   'Na62 Fe40 S72 O288'
_cell_volume   5811.51249195
_cell_formula_units_Z   2
loop_
 _symmetry_equiv_pos_site_id
 _symmetry_equiv_pos_as_xyz
  1  'x, y, z'
loop_
 _atom_site_type_symbol
 _atom_site_label
 _atom_site_symmetry_multiplicity
 _atom_site_fract_x
 _atom_site_fract_y
 _atom_site_fract_z
 _atom_site_occupancy
  Na  Na0  1  0.13546465  0.36702945  0.08935234  1
  Na  Na1  1  0.13106882  0.36404541  0.41586380  1
  Na  Na2  1  0.13665997  0.36214593  0.75206950  1
  Na  Na3  1  0.12904929  0.86680995  0.08173596  1
  Na  Na4  1  0.13555446  0.85950675  0.41036774  1
  Na  Na5  1  0.13237688  0.87179997  0.73947291  1
  Na  Na6  1  0.63239858  0.36831704  0.08560027  1
  Na  Na7  1  0.63275646  0.36910787  0.41656493  1
  Na  Na8  1  0.63120508  0.36238914  0.74207999  1
  Na  Na9  1  0.64758789  0.86950351  0.08478285  1
  Na  Na10  1  0.63693829  0.87286500  0.42032758  1
  Na  Na11  1  0.62455938  0.86470344  0.74340149  1
  Na  Na12  1  0.36058840  0.13056914  0.24056822  1
  Na  Na13  1  0.37254596  0.13646018  0.58530404  1
  Na  Na14  1  0.36170064  0.12342922  0.90631736  1
  Na  Na15  1  0.35701044  0.65719524  0.25385523  1
  Na  Na16  1  0.36492372  0.64125409  0.59421879  1
  Na  Na17  1  0.37557192  0.64861375  0.93424413  1
  Na  Na18  1  0.85699139  0.12423895  0.23985470  1
  Na  Na19  1  0.86165215  0.12502716  0.58491079  1
  Na  Na20  1  0.87152340  0.12754483  0.92121210  1
  Na  Na21  1  0.86399967  0.63340654  0.24242999  1
  Na  Na22  1  0.87105517  0.64774822  0.58601306  1
  Na  Na23  1  0.86158887  0.63598005  0.92032263  1
  Na  Na24  1  0.48992019  0.52290973  0.75090782  1
  Na  Na25  1  0.99145513  0.51194137  0.75359369  1
  Na  Na26  1  0.94206829  0.00082592  0.39321723  1
  Na  Na27  1  0.97193528  0.01060981  0.76024631  1
  Na  Na28  1  0.51834419  -0.04121178  0.89907723  1
  Na  Na29  1  0.48259896  0.51558702  0.10415682  1
  Na  Na30  1  0.49171246  0.52193165  0.39849365  1
  Na  Na31  1  0.49309658  0.03805489  0.41169417  1
  Na  Na32  1  0.99225273  0.54798936  0.42705933  1
  Na  Na33  1  0.50845058  0.48754014  0.91693568  1
  Na  Na34  1  0.51272363  0.99712572  0.58909855  1
  Na  Na35  1  0.00585153  0.49204320  0.93129715  1
  Na  Na36  1  0.50922989  0.47990255  0.57503726  1
  Na  Na37  1  0.51782773  0.95700998  0.13774100  1
  Na  Na38  1  0.00123579  0.50799937  0.58175244  1
  Na  Na39  1  0.01309832  0.97914905  0.59573309  1
  Na  Na40  1  0.01031296  0.49454174  0.23707808  1
  Na  Na41  1  0.00824316  0.98569140  0.24113044  1
  Na  Na42  1  0.73857157  0.23263964  0.00907448  1
  Na  Na43  1  0.25616134  0.75822283  0.66074866  1
  Na  Na44  1  0.23887746  0.22917242  0.67317906  1
  Na  Na45  1  0.73572412  0.23862202  0.67243535  1
  Na  Na46  1  0.23813012  0.23691043  0.01200993  1
  Na  Na47  1  0.76437511  0.77059207  0.32325705  1
  Na  Na48  1  0.75880819  0.76657393  0.66035583  1
  Na  Na49  1  0.25669330  0.75582840  0.00805926  1
  Na  Na50  1  0.25782251  0.25664054  0.31958832  1
  Na  Na51  1  0.74115101  0.24565994  0.33883650  1
  Na  Na52  1  0.74129888  0.23676435  0.84051088  1
  Na  Na53  1  0.76680673  0.76636980  0.15304256  1
  Na  Na54  1  0.26371913  0.76211583  0.82870649  1
  Na  Na55  1  0.25556929  0.76122277  0.48784056  1
  Na  Na56  1  0.73734715  0.24042937  0.51007545  1
  Na  Na57  1  0.23955830  0.23486754  0.84129464  1
  Na  Na58  1  0.25011036  0.24679103  0.49794531  1
  Na  Na59  1  0.76261350  0.76957724  0.49438377  1
  Na  Na60  1  0.73942163  0.74293937  0.84350168  1
  Na  Na61  1  0.73770891  0.23558514  0.17151484  1
  Fe  Fe62  1  0.46995119  0.30227975  0.78346597  1
  Fe  Fe63  1  0.97006011  0.80873274  0.78786866  1
  Fe  Fe64  1  0.45832429  0.81179433  0.44889149  1
  Fe  Fe65  1  0.96839649  0.80011831  0.11628533  1
  Fe  Fe66  1  0.46300351  0.30785808  0.11857228  1
  Fe  Fe67  1  0.96228565  0.31012623  0.45181013  1
  Fe  Fe68  1  0.96408759  0.30590289  0.11735386  1
  Fe  Fe69  1  0.97065570  0.79767167  0.45359816  1
  Fe  Fe70  1  0.47006890  0.29556703  0.45106873  1
  Fe  Fe71  1  0.96310490  0.31055645  0.78474008  1
  Fe  Fe72  1  0.19273044  0.53242433  0.71759809  1
  Fe  Fe73  1  0.19029686  0.03215602  0.37742742  1
  Fe  Fe74  1  0.19722976  0.53526206  0.05455302  1
  Fe  Fe75  1  0.19463384  0.53337500  0.38498111  1
  Fe  Fe76  1  0.69341727  0.53705969  0.04636444  1
  Fe  Fe77  1  0.18715509  0.03665886  0.04499170  1
  Fe  Fe78  1  0.68297546  0.54076524  0.37380978  1
  Fe  Fe79  1  0.70343322  0.02950029  0.70931815  1
  Fe  Fe80  1  0.69290332  0.53737041  0.71482025  1
  Fe  Fe81  1  0.70247429  0.02863661  0.37689558  1
  Fe  Fe82  1  0.53210378  0.70786600  0.88219024  1
  Fe  Fe83  1  0.53516335  0.18479462  0.20387447  1
  Fe  Fe84  1  0.03475069  0.18839340  0.21129307  1
  Fe  Fe85  1  0.53952454  0.17997120  0.87606005  1
  Fe  Fe86  1  0.03444481  0.19527959  0.88369127  1
  Fe  Fe87  1  0.52672159  0.69916778  0.55084004  1
  Fe  Fe88  1  0.04366827  0.68443507  0.21189761  1
  Fe  Fe89  1  0.03715273  0.69404750  0.88538332  1
  Fe  Fe90  1  0.52926661  0.70906878  0.21303008  1
  Fe  Fe91  1  0.03287000  0.19075804  0.54707731  1
  Fe  Fe92  1  0.30780529  0.46177792  0.62053847  1
  Fe  Fe93  1  0.30091300  0.97065279  0.62562165  1
  Fe  Fe94  1  0.80650917  0.46265415  0.95061857  1
  Fe  Fe95  1  0.80901135  0.96360011  0.96315867  1
  Fe  Fe96  1  0.30852678  0.46454907  0.95383513  1
  Fe  Fe97  1  0.30733125  0.96212038  0.28278475  1
  Fe  Fe98  1  0.80442752  0.47019058  0.61454584  1
  Fe  Fe99  1  0.30586664  0.46077759  0.28329174  1
  Fe  Fe100  1  0.31146497  0.96531487  0.95468604  1
  Fe  Fe101  1  0.80319713  0.46719198  0.28299299  1
  S  S102  1  0.35643873  0.14313877  0.08066307  1
  S  S103  1  0.35406533  0.13927072  0.41220542  1
  S  S104  1  0.36198915  0.14339661  0.74924573  1
  S  S105  1  0.36095061  0.63865664  0.08462765  1
  S  S106  1  0.35873483  0.63773870  0.41620188  1
  S  S107  1  0.35879311  0.63698987  0.75472504  1
  S  S108  1  0.86038817  0.14225320  0.08233624  1
  S  S109  1  0.85736129  0.14833196  0.42066595  1
  S  S110  1  0.86088510  0.14604780  0.75266314  1
  S  S111  1  0.86412996  0.63349763  0.08209236  1
  S  S112  1  0.85140837  0.64128123  0.41246297  1
  S  S113  1  0.86109833  0.64034476  0.74985435  1
  S  S114  1  0.13701473  0.36044061  0.25261504  1
  S  S115  1  0.13857537  0.35796567  0.58459672  1
  S  S116  1  0.13957994  0.36264254  0.91685946  1
  S  S117  1  0.14284926  0.85558543  0.24892959  1
  S  S118  1  0.14011582  0.85737289  0.57712872  1
  S  S119  1  0.14299439  0.85861622  0.91746926  1
  S  S120  1  0.63780016  0.36185847  0.24874236  1
  S  S121  1  0.64216505  0.36330167  0.58076697  1
  S  S122  1  0.64098036  0.35812303  0.91630635  1
  S  S123  1  0.64785952  0.86003418  0.25169896  1
  S  S124  1  0.63610440  0.85834701  0.58475761  1
  S  S125  1  0.64693582  0.85693352  0.91680103  1
  S  S126  1  0.06901082  0.17713607  0.04580082  1
  S  S127  1  0.06257809  0.17175366  0.37551724  1
  S  S128  1  0.05866978  0.17177036  0.71068348  1
  S  S129  1  0.07037905  0.66574093  0.04015674  1
  S  S130  1  0.06445155  0.66036099  0.37100532  1
  S  S131  1  0.06580889  0.66049218  0.71184729  1
  S  S132  1  0.56575738  0.17159808  0.04147806  1
  S  S133  1  0.57352653  0.17045386  0.37308972  1
  S  S134  1  0.57107199  0.16820673  0.70901038  1
  S  S135  1  0.57288566  0.66992579  0.04209722  1
  S  S136  1  0.56515757  0.67866531  0.37777201  1
  S  S137  1  0.56381049  0.66078444  0.70812391  1
  S  S138  1  0.32942824  0.43057080  0.12441139  1
  S  S139  1  0.33124604  0.42814685  0.45751107  1
  S  S140  1  0.33165676  0.42682286  0.79129379  1
  S  S141  1  0.31988901  0.93553120  0.11839086  1
  S  S142  1  0.32771814  0.93733896  0.45974810  1
  S  S143  1  0.32539266  0.93080770  0.78887233  1
  S  S144  1  0.82636227  0.42889956  0.12105964  1
  S  S145  1  0.82924175  0.43875358  0.45547214  1
  S  S146  1  0.82911612  0.43498503  0.78889875  1
  S  S147  1  0.84493993  0.93343544  0.12796431  1
  S  S148  1  0.83801249  0.93573944  0.45969703  1
  S  S149  1  0.83066789  0.93030164  0.79739301  1
  S  S150  1  0.43204457  0.32731880  0.29113765  1
  S  S151  1  0.43470686  0.33423932  0.62385347  1
  S  S152  1  0.43413618  0.33328854  0.95715295  1
  S  S153  1  0.43596678  0.84107979  0.30052212  1
  S  S154  1  0.42723324  0.83166903  0.61995205  1
  S  S155  1  0.43929450  0.83527517  0.96163249  1
  S  S156  1  0.92916579  0.33628575  0.29194617  1
  S  S157  1  0.93242333  0.33925693  0.62512163  1
  S  S158  1  0.93309286  0.33265425  0.95646982  1
  S  S159  1  0.94263293  0.81928194  0.28562671  1
  S  S160  1  0.93843075  0.83179947  0.62686690  1
  S  S161  1  0.93042900  0.82264388  0.95303321  1
  S  S162  1  0.16645837  0.06570244  0.20952930  1
  S  S163  1  0.16629533  0.06979480  0.53766358  1
  S  S164  1  0.16277308  0.06595339  0.87489236  1
  S  S165  1  0.17331192  0.56222340  0.21120630  1
  S  S166  1  0.17153319  0.55947687  0.54590761  1
  S  S167  1  0.17140448  0.56529337  0.87994263  1
  S  S168  1  0.67326764  0.06762836  0.21156265  1
  S  S169  1  0.67225421  0.06354249  0.54110350  1
  S  S170  1  0.67916198  0.06209142  0.87634633  1
  S  S171  1  0.66780192  0.57333162  0.20867530  1
  S  S172  1  0.66706713  0.57393158  0.54076497  1
  S  S173  1  0.66687635  0.56325442  0.87238504  1
  O  O174  1  0.36761823  0.22232115  0.07261497  1
  O  O175  1  0.36593081  0.21993228  0.40719479  1
  O  O176  1  0.37706098  0.21978878  0.73537816  1
  O  O177  1  0.36760231  0.71113975  0.06828975  1
  O  O178  1  0.36612196  0.71506720  0.40654480  1
  O  O179  1  0.35912149  0.71128001  0.74003120  1
  O  O180  1  0.87437078  0.21718979  0.06619045  1
  O  O181  1  0.86263820  0.23110954  0.42001302  1
  O  O182  1  0.86707160  0.22657664  0.74529405  1
  O  O183  1  0.87277114  0.71217488  0.07448012  1
  O  O184  1  0.86375513  0.72191528  0.40841985  1
  O  O185  1  0.87091923  0.71791830  0.74042634  1
  O  O186  1  0.27773538  0.13614875  0.08865732  1
  O  O187  1  0.27173138  0.13184175  0.41388066  1
  O  O188  1  0.28481752  0.14257568  0.75859912  1
  O  O189  1  0.28371847  0.62596535  0.09457307  1
  O  O190  1  0.28092996  0.62751121  0.42669922  1
  O  O191  1  0.28267652  0.62085491  0.76676314  1
  O  O192  1  0.78302650  0.13992466  0.09079402  1
  O  O193  1  0.77742081  0.13388787  0.42715219  1
  O  O194  1  0.77938932  0.13525839  0.75535727  1
  O  O195  1  0.78701391  0.62573235  0.09515414  1
  O  O196  1  0.77005960  0.63384239  0.41615877  1
  O  O197  1  0.78223698  0.63106445  0.75825171  1
  O  O198  1  0.12497043  0.28240718  0.26158128  1
  O  O199  1  0.12792987  0.27976039  0.59388393  1
  O  O200  1  0.13239472  0.28263275  0.92294947  1
  O  O201  1  0.13403885  0.77831483  0.25886803  1
  O  O202  1  0.13877515  0.78010308  0.58636165  1
  O  O203  1  0.13333845  0.77976333  0.92704079  1
  O  O204  1  0.62957177  0.28215745  0.25546802  1
  O  O205  1  0.63883384  0.28686492  0.59063735  1
  O  O206  1  0.63295591  0.27915406  0.92406131  1
  O  O207  1  0.62809489  0.78509252  0.26522621  1
  O  O208  1  0.61977109  0.78328014  0.59994308  1
  O  O209  1  0.63638527  0.77230270  0.91394387  1
  O  O210  1  0.21570708  0.36679471  0.24451436  1
  O  O211  1  0.21696961  0.36485154  0.57508920  1
  O  O212  1  0.21712075  0.37194186  0.90579548  1
  O  O213  1  0.22098482  0.86863047  0.24264327  1
  O  O214  1  0.21826605  0.87480595  0.56772390  1
  O  O215  1  0.22428479  0.86777368  0.91456058  1
  O  O216  1  0.71597868  0.37089146  0.23807296  1
  O  O217  1  0.71888607  0.37787156  0.56838627  1
  O  O218  1  0.71908595  0.36746854  0.90626267  1
  O  O219  1  0.72794412  0.85936258  0.24890352  1
  O  O220  1  0.71392944  0.85855770  0.57727257  1
  O  O221  1  0.73267735  0.86773666  0.92068040  1
  O  O222  1  0.41580151  0.13569534  0.14892446  1
  O  O223  1  0.40956119  0.12861402  0.47881418  1
  O  O224  1  0.42140367  0.13763755  0.81835494  1
  O  O225  1  0.42180868  0.63570853  0.15511500  1
  O  O226  1  0.41903458  0.62914234  0.48422408  1
  O  O227  1  0.42161558  0.63550716  0.82464577  1
  O  O228  1  0.92033159  0.13923429  0.15223698  1
  O  O229  1  0.91501948  0.13957512  0.48961950  1
  O  O230  1  0.91586626  0.14272776  0.82562224  1
  O  O231  1  0.92552854  0.62156270  0.14617207  1
  O  O232  1  0.90695083  0.62812680  0.47806194  1
  O  O233  1  0.92039189  0.63021991  0.81704153  1
  O  O234  1  0.36385299  0.08469046  0.01221473  1
  O  O235  1  0.36277018  0.08213137  0.34280857  1
  O  O236  1  0.36772151  0.08134050  0.68222858  1
  O  O237  1  0.37300662  0.57257748  0.02105279  1
  O  O238  1  0.36730099  0.57670707  0.34906638  1
  O  O239  1  0.37076941  0.57381625  0.68997710  1
  O  O240  1  0.86776420  0.07811781  0.01657673  1
  O  O241  1  0.86845074  0.09525249  0.35327902  1
  O  O242  1  0.87633564  0.08793008  0.69066938  1
  O  O243  1  0.86557520  0.57492534  0.01067484  1
  O  O244  1  0.85952297  0.58448586  0.34221186  1
  O  O245  1  0.86851050  0.57976749  0.68166660  1
  O  O246  1  0.07741312  0.37119602  0.18564783  1
  O  O247  1  0.07930745  0.36669149  0.51681097  1
  O  O248  1  0.07859616  0.37304441  0.85073565  1
  O  O249  1  0.08284122  0.86245981  0.17999236  1
  O  O250  1  0.08083873  0.85849384  0.50420506  1
  O  O251  1  0.08797279  0.86157281  0.84544875  1
  O  O252  1  0.57746636  0.37145503  0.18271261  1
  O  O253  1  0.57989742  0.37019330  0.51338196  1
  O  O254  1  0.58098148  0.36750928  0.84893327  1
  O  O255  1  0.59216707  0.86992633  0.18502663  1
  O  O256  1  0.57684760  0.86628382  0.51677668  1
  O  O257  1  0.59759615  0.86746712  0.84702721  1
  O  O258  1  0.13004530  0.42055881  0.32083970  1
  O  O259  1  0.13179972  0.41779572  0.65292813  1
  O  O260  1  0.13239414  0.42018059  0.98606232  1
  O  O261  1  0.13058407  0.91663806  0.31498188  1
  O  O262  1  0.12529876  0.91787789  0.63890247  1
  O  O263  1  0.13037258  0.91796838  0.98225392  1
  O  O264  1  0.63416708  0.42019504  0.31918461  1
  O  O265  1  0.63371868  0.42448060  0.64810184  1
  O  O266  1  0.63331601  0.41780751  0.98425289  1
  O  O267  1  0.64340135  0.92333052  0.32198056  1
  O  O268  1  0.62993201  0.92292333  0.65085462  1
  O  O269  1  0.63238122  0.90971876  0.98234719  1
  O  O270  1  0.03480681  0.20803781  0.10908722  1
  O  O271  1  0.02475905  0.20066765  0.43632298  1
  O  O272  1  0.02617942  0.21039837  0.77424215  1
  O  O273  1  0.03604938  0.69723104  0.10232596  1
  O  O274  1  0.02340910  0.68621431  0.42704171  1
  O  O275  1  0.03483266  0.69589309  0.77677135  1
  O  O276  1  0.52682355  0.20644134  0.10166989  1
  O  O277  1  0.53180143  0.19489831  0.42924444  1
  O  O278  1  0.53954271  0.19761378  0.77533927  1
  O  O279  1  0.53472260  0.68629154  0.10023746  1
  O  O280  1  0.52621527  0.70369948  0.43751989  1
  O  O281  1  0.52987127  0.67892370  0.76983074  1
  O  O282  1  0.29732508  0.46587672  0.06238331  1
  O  O283  1  0.30091249  0.46535167  0.39711894  1
  O  O284  1  0.29803872  0.45910260  0.72812027  1
  O  O285  1  0.29075030  0.97832273  0.06047449  1
  O  O286  1  0.29865793  0.97275485  0.39721913  1
  O  O287  1  0.29661689  0.96722791  0.72903120  1
  O  O288  1  0.79708502  0.46388798  0.05909047  1
  O  O289  1  0.80046745  0.47355478  0.39353958  1
  O  O290  1  0.79937813  0.47036820  0.72720596  1
  O  O291  1  0.81847691  0.96873545  0.06553960  1
  O  O292  1  0.80578773  0.97597018  0.40090493  1
  O  O293  1  0.80617483  0.97454217  0.74370019  1
  O  O294  1  0.46758002  0.30140752  0.22950977  1
  O  O295  1  0.46929288  0.31426865  0.56298705  1
  O  O296  1  0.47046527  0.30470387  0.89666432  1
  O  O297  1  0.46672360  0.80861236  0.23770785  1
  O  O298  1  0.45714507  0.79804601  0.55231993  1
  O  O299  1  0.47440553  0.80380190  0.89904631  1
  O  O300  1  0.96318607  0.30523585  0.22987410  1
  O  O301  1  0.96833051  0.30784537  0.56457917  1
  O  O302  1  0.97247914  0.30264755  0.89748920  1
  O  O303  1  0.97646466  0.78162009  0.22327341  1
  O  O304  1  0.96833761  0.80315071  0.56265753  1
  O  O305  1  0.97038096  0.79962907  0.89313812  1
  O  O306  1  0.19762259  0.02541294  0.26758365  1
  O  O307  1  0.19967769  0.03865836  0.59947060  1
  O  O308  1  0.19446359  0.03341523  0.93909950  1
  O  O309  1  0.20312515  0.52582515  0.27299878  1
  O  O310  1  0.20724541  0.52483963  0.60855199  1
  O  O311  1  0.20275310  0.53109032  0.94239286  1
  O  O312  1  0.69665954  0.04449739  0.28158935  1
  O  O313  1  0.70550641  0.02806873  0.60043548  1
  O  O314  1  0.71134695  0.02298494  0.93381415  1
  O  O315  1  0.69543417  0.53149252  0.26650632  1
  O  O316  1  0.69877870  0.53756121  0.60176263  1
  O  O317  1  0.69951576  0.52752998  0.93409599  1
  O  O318  1  0.09023476  0.09847569  0.04398370  1
  O  O319  1  0.07962575  0.08966583  0.36787499  1
  O  O320  1  0.06377759  0.08985202  0.70466494  1
  O  O321  1  0.09065955  0.58533045  0.03898230  1
  O  O322  1  0.08410577  0.57787095  0.36858820  1
  O  O323  1  0.08480270  0.57855821  0.71383480  1
  O  O324  1  0.58261728  0.09331042  0.03952278  1
  O  O325  1  0.60049604  0.09237739  0.37428139  1
  O  O326  1  0.59935303  0.09076036  0.70714440  1
  O  O327  1  0.58845268  0.58463378  0.02402768  1
  O  O328  1  0.58113720  0.59530716  0.37045326  1
  O  O329  1  0.58011795  0.57553958  0.69224865  1
  O  O330  1  0.41063202  0.41409581  0.12558699  1
  O  O331  1  0.41119163  0.40699085  0.45940032  1
  O  O332  1  0.41436920  0.41182722  0.79571154  1
  O  O333  1  0.39578740  0.91177647  0.11724401  1
  O  O334  1  0.41128838  0.92287014  0.46808666  1
  O  O335  1  0.40542432  0.91284132  0.79843082  1
  O  O336  1  0.90820228  0.41112300  0.12845496  1
  O  O337  1  0.91176147  0.42073072  0.46306846  1
  O  O338  1  0.91295121  0.42117534  0.79651017  1
  O  O339  1  0.92205877  0.90261203  0.12647958  1
  O  O340  1  0.91167931  0.90452003  0.44704000  1
  O  O341  1  0.91143591  0.91047408  0.79981381  1
  O  O342  1  0.41271678  0.40973850  0.29998975  1
  O  O343  1  0.41814008  0.41905838  0.63881082  1
  O  O344  1  0.41948172  0.41737021  0.96476267  1
  O  O345  1  0.41737008  0.92324360  0.30473038  1
  O  O346  1  0.40529322  0.91079959  0.61958358  1
  O  O347  1  0.41558020  0.91400029  0.95855938  1
  O  O348  1  0.91480338  0.41968375  0.29854821  1
  O  O349  1  0.91647184  0.42221777  0.62878665  1
  O  O350  1  0.91460094  0.41333139  0.95657767  1
  O  O351  1  0.93760266  0.90153119  0.29027430  1
  O  O352  1  0.93290993  0.91623741  0.64519394  1
  O  O353  1  0.90671987  0.90224335  0.96093548  1
  O  O354  1  0.08618084  0.08413701  0.21107341  1
  O  O355  1  0.08383427  0.08716048  0.53428121  1
  O  O356  1  0.08405319  0.09309013  0.87649460  1
  O  O357  1  0.09075497  0.57690409  0.20597350  1
  O  O358  1  0.08946382  0.56769739  0.54083685  1
  O  O359  1  0.08822349  0.57994753  0.87373631  1
  O  O360  1  0.58931753  0.08481136  0.19643443  1
  O  O361  1  0.58792791  0.06712809  0.52755212  1
  O  O362  1  0.59901472  0.08081383  0.87757563  1
  O  O363  1  0.58892387  0.59602664  0.20662516  1
  O  O364  1  0.58442549  0.58881902  0.53577165  1
  O  O365  1  0.58595926  0.58145803  0.87040463  1
  O  O366  1  0.13621801  0.23205212  0.05816706  1
  O  O367  1  0.13420008  0.22455898  0.39469883  1
  O  O368  1  0.13484127  0.21792939  0.72781056  1
  O  O369  1  0.13722933  0.71774345  0.04843101  1
  O  O370  1  0.13511681  0.71202924  0.38720292  1
  O  O371  1  0.13695658  0.70827874  0.72161798  1
  O  O372  1  0.63643280  0.22762685  0.06060770  1
  O  O373  1  0.64205165  0.22871832  0.39252936  1
  O  O374  1  0.63811108  0.22689229  0.72476308  1
  O  O375  1  0.64513699  0.72131365  0.06346521  1
  O  O376  1  0.63804307  0.72945958  0.39853663  1
  O  O377  1  0.63593203  0.71155271  0.72601676  1
  O  O378  1  0.27861675  0.35997282  0.11030000  1
  O  O379  1  0.27674409  0.35868545  0.44207771  1
  O  O380  1  0.28237560  0.35498596  0.77891682  1
  O  O381  1  0.26155671  0.86884621  0.10035906  1
  O  O382  1  0.27813561  0.86464472  0.44195585  1
  O  O383  1  0.27019032  0.85946190  0.77114710  1
  O  O384  1  0.77420501  0.35843321  0.10648496  1
  O  O385  1  0.77693879  0.36860707  0.44091507  1
  O  O386  1  0.77953429  0.36264063  0.77294197  1
  O  O387  1  0.78654945  0.86940791  0.11514176  1
  O  O388  1  0.78004854  0.86935819  0.44570033  1
  O  O389  1  0.77613793  0.85919650  0.77639059  1
  O  O390  1  0.36222812  0.27448702  0.27560473  1
  O  O391  1  0.36251502  0.28285655  0.60566550  1
  O  O392  1  0.36118180  0.28426481  0.94095280  1
  O  O393  1  0.36771033  0.79251019  0.29574041  1
  O  O394  1  0.35653825  0.77766741  0.60496951  1
  O  O395  1  0.36830068  0.78139871  0.94524595  1
  O  O396  1  0.85687614  0.28724232  0.27848764  1
  O  O397  1  0.86068687  0.29015438  0.61200320  1
  O  O398  1  0.86189090  0.28110344  0.93996714  1
  O  O399  1  0.86580824  0.77409277  0.26684161  1
  O  O400  1  0.86195329  0.78521414  0.60925259  1
  O  O401  1  0.86299911  0.76478314  0.93241825  1
  O  O402  1  0.21813554  0.13703661  0.22678096  1
  O  O403  1  0.21465818  0.14270321  0.54834055  1
  O  O404  1  0.21785993  0.13584390  0.88989493  1
  O  O405  1  0.22235869  0.63293097  0.22530684  1
  O  O406  1  0.21943402  0.63276960  0.56118794  1
  O  O407  1  0.22070538  0.63734667  0.89450206  1
  O  O408  1  0.72365851  0.14136648  0.22816523  1
  O  O409  1  0.71755635  0.14104528  0.56088975  1
  O  O410  1  0.73004672  0.13629306  0.89509643  1
  O  O411  1  0.72485697  0.64068484  0.22591162  1
  O  O412  1  0.71778649  0.64554424  0.55615271  1
  O  O413  1  0.71931881  0.63148786  0.88383254  1
  O  O414  1  0.49225879  0.33507572  0.03026114  1
  O  O415  1  0.49320515  0.32873959  0.36282718  1
  O  O416  1  0.49399719  0.33089536  0.69459685  1
  O  O417  1  0.49863027  0.84416229  0.03380999  1
  O  O418  1  0.49954512  0.84866197  0.37401406  1
  O  O419  1  0.48971864  0.83386938  0.68728250  1
  O  O420  1  0.99096582  0.33789264  0.03046841  1
  O  O421  1  0.98908527  0.33675168  0.36411321  1
  O  O422  1  0.99209016  0.34464469  0.69901094  1
  O  O423  1  0.99121828  0.82167906  0.02333671  1
  O  O424  1  0.99639582  0.81281792  0.35707278  1
  O  O425  1  0.99514539  0.81776733  0.69494827  1
  O  O426  1  0.16029764  0.00971157  0.13471410  1
  O  O427  1  0.16089786  0.01001082  0.46377484  1
  O  O428  1  0.15176397  0.00556060  0.80384034  1
  O  O429  1  0.17089847  0.50112945  0.13923479  1
  O  O430  1  0.17427680  0.50136659  0.47390889  1
  O  O431  1  0.17036532  0.50402619  0.80867815  1
  O  O432  1  0.67977995  0.00429079  0.14896511  1
  O  O433  1  0.68383342  0.01180633  0.46850782  1
  O  O434  1  0.67448195  0.00879248  0.80095155  1
  O  O435  1  0.66192259  0.51348152  0.13440802  1
  O  O436  1  0.66424592  0.51452844  0.46756901  1
  O  O437  1  0.66080213  0.50180287  0.79889297  1
  O  O438  1  0.00427065  0.17293125  0.30381454  1
  O  O439  1  0.00268302  0.17939713  0.63983551  1
  O  O440  1  0.00615595  0.17367963  0.97487810  1
  O  O441  1  0.00800127  0.65086988  0.29414620  1
  O  O442  1  0.00293532  0.64835208  0.64082978  1
  O  O443  1  0.00621660  0.65570164  0.96693746  1
  O  O444  1  0.51721854  0.16332162  0.29767175  1
  O  O445  1  0.50799751  0.16056692  0.63981096  1
  O  O446  1  0.50881998  0.17301034  0.96820932  1
  O  O447  1  0.50828270  0.67992454  0.30591833  1
  O  O448  1  0.50359591  0.66425437  0.63806786  1
  O  O449  1  0.51556114  0.67579068  0.97040096  1
  O  O450  1  0.33388869  0.49056988  0.19700748  1
  O  O451  1  0.33784816  0.48779093  0.53149123  1
  O  O452  1  0.33489225  0.48845788  0.86296028  1
  O  O453  1  0.32432469  0.99353339  0.19298246  1
  O  O454  1  0.32663485  0.99695567  0.53073943  1
  O  O455  1  0.32053411  0.98908351  0.86101249  1
  O  O456  1  0.82779643  0.49028965  0.19249019  1
  O  O457  1  0.83222891  0.49993897  0.52764426  1
  O  O458  1  0.82957022  0.49384204  0.86086643  1
  O  O459  1  0.86130810  0.99601945  0.19989208  1
  O  O460  1  0.85883553  0.99324153  0.53463253  1
  O  O461  1  0.83454399  0.98377368  0.87431220  1
