# generated using pymatgen
data_Na31Fe20(SO4)36
_symmetry_space_group_name_H-M   'P 1'
_cell_length_a   18.07982966
_cell_length_b   18.08289724
_cell_length_c   19.70689871
_cell_angle_alpha   107.57508686
_cell_angle_beta   107.54753566
_cell_angle_gamma   90.75294503
_symmetry_Int_Tables_number   1
_chemical_formula_structural   Na31Fe20(SO4)36
_chemical_formula_sum   'Na62 Fe40 S72 O288'
_cell_volume   5817.74362481
_cell_formula_units_Z   2
loop_
 _symmetry_equiv_pos_site_id
 _symmetry_equiv_pos_as_xyz
  1  'x, y, z'
loop_
 _atom_site_type_symbol
 _atom_site_label
 _atom_site_symmetry_multiplicity
 _atom_site_fract_x
 _atom_site_fract_y
 _atom_site_fract_z
 _atom_site_occupancy
  Na  Na0  1  0.13847317  0.36098988  0.08230226  1
  Na  Na1  1  0.13016557  0.37170522  0.41831157  1
  Na  Na2  1  0.14995111  0.38141925  0.76605221  1
  Na  Na3  1  0.13446433  0.86926539  0.08427750  1
  Na  Na4  1  0.13089953  0.86861813  0.42572825  1
  Na  Na5  1  0.11858585  0.84307589  0.72477363  1
  Na  Na6  1  0.63593567  0.36661895  0.08768346  1
  Na  Na7  1  0.63343871  0.37020733  0.42300013  1
  Na  Na8  1  0.63460441  0.35890438  0.74231040  1
  Na  Na9  1  0.63522712  0.87387119  0.08283290  1
  Na  Na10  1  0.64280024  0.86057591  0.42391118  1
  Na  Na11  1  0.62972825  0.84252050  0.71703942  1
  Na  Na12  1  0.35969764  0.13820685  0.24618211  1
  Na  Na13  1  0.36635886  0.12009223  0.58287523  1
  Na  Na14  1  0.36909139  0.13441675  0.92114323  1
  Na  Na15  1  0.36601090  0.63637395  0.25207568  1
  Na  Na16  1  0.37097704  0.63626619  0.58819817  1
  Na  Na17  1  0.35117545  0.62679247  0.90400801  1
  Na  Na18  1  0.86021814  0.12786205  0.24151896  1
  Na  Na19  1  0.86607550  0.12808555  0.58360100  1
  Na  Na20  1  0.86036871  0.13053554  0.91095979  1
  Na  Na21  1  0.87551111  0.64946806  0.27479269  1
  Na  Na22  1  0.86610057  0.70709149  0.60802214  1
  Na  Na23  1  0.86579316  0.62885723  0.91288056  1
  Na  Na24  1  0.49785117  0.55190996  0.48977051  1
  Na  Na25  1  0.50848134  -0.02276032  0.45415956  1
  Na  Na26  1  1.01542601  0.50082036  0.73047303  1
  Na  Na27  1  0.97789511  0.00933240  0.08371745  1
  Na  Na28  1  1.00433974  0.51298453  0.06098537  1
  Na  Na29  1  0.46625421  0.00556629  0.73094078  1
  Na  Na30  1  1.00287029  0.01436686  0.75686532  1
  Na  Na31  1  0.48883407  0.50916620  0.73378136  1
  Na  Na32  1  0.45583438  0.50853014  0.07691342  1
  Na  Na33  1  0.53707389  0.98861366  0.93727056  1
  Na  Na34  1  0.48762910  0.50616601  0.91902307  1
  Na  Na35  1  0.50839717  0.48946537  0.26079263  1
  Na  Na36  1  -0.01267276  0.49534181  0.27397948  1
  Na  Na37  1  0.00634704  0.93846576  0.54586370  1
  Na  Na38  1  0.51176791  0.99354942  0.24486315  1
  Na  Na39  1  -0.01689220  0.56873352  0.55475471  1
  Na  Na40  1  0.00793999  0.98347234  0.27230652  1
  Na  Na41  1  0.00565585  0.93964716  0.89403377  1
  Na  Na42  1  0.74141351  0.24082636  0.34058299  1
  Na  Na43  1  0.74272821  0.23756428  0.00536255  1
  Na  Na44  1  0.25045025  0.25289435  0.66771691  1
  Na  Na45  1  0.24858765  0.74779899  0.00185190  1
  Na  Na46  1  0.75775814  0.75514943  -0.00881108  1
  Na  Na47  1  0.74618643  0.73790818  0.35251452  1
  Na  Na48  1  0.24009537  0.74426800  0.34089768  1
  Na  Na49  1  0.24050413  0.73079094  0.66978738  1
  Na  Na50  1  0.25620501  0.25889221  0.32248658  1
  Na  Na51  1  0.24422255  0.24770620  0.00930285  1
  Na  Na52  1  0.75400578  0.25446143  0.82453988  1
  Na  Na53  1  0.24360681  0.74041415  0.83211149  1
  Na  Na54  1  0.75038065  0.74783624  0.17129740  1
  Na  Na55  1  0.26175207  0.26277701  0.83637972  1
  Na  Na56  1  0.76340343  0.75626286  0.80582041  1
  Na  Na57  1  0.24783088  0.74589407  0.17129188  1
  Na  Na58  1  0.73703905  0.23368340  0.17220195  1
  Na  Na59  1  0.74665504  0.24808595  0.51290732  1
  Na  Na60  1  0.24433881  0.24472397  0.50009309  1
  Na  Na61  1  0.23992243  0.74759961  0.50968159  1
  Fe  Fe62  1  0.96402647  0.80808803  0.12069494  1
  Fe  Fe63  1  0.46698506  0.79821334  0.45893292  1
  Fe  Fe64  1  0.46788694  0.80327348  0.77992737  1
  Fe  Fe65  1  0.96541653  0.30455080  0.78460423  1
  Fe  Fe66  1  0.46340399  0.30789011  0.11869804  1
  Fe  Fe67  1  0.46208708  0.31281228  0.45356919  1
  Fe  Fe68  1  0.96631123  0.30552236  0.11870483  1
  Fe  Fe69  1  0.96724247  0.30928390  0.45507485  1
  Fe  Fe70  1  0.46575361  0.30739168  0.78809160  1
  Fe  Fe71  1  0.46815474  0.80490411  0.11813059  1
  Fe  Fe72  1  0.69427199  0.53145311  0.04708492  1
  Fe  Fe73  1  0.68911767  0.03866712  0.38529011  1
  Fe  Fe74  1  0.20260126  0.02699966  0.70940933  1
  Fe  Fe75  1  0.19287010  0.03769428  0.04675294  1
  Fe  Fe76  1  0.68570220  0.03794661  0.70998019  1
  Fe  Fe77  1  0.69536377  0.53858070  0.39623935  1
  Fe  Fe78  1  0.69240545  0.53466235  0.71349358  1
  Fe  Fe79  1  0.19928936  0.03148470  0.38455401  1
  Fe  Fe80  1  0.19138879  0.53525416  0.37824838  1
  Fe  Fe81  1  0.19759588  0.53023445  0.03629278  1
  Fe  Fe82  1  0.03618922  0.19103098  0.88077960  1
  Fe  Fe83  1  0.53586267  0.69024991  0.21615479  1
  Fe  Fe84  1  0.03401913  0.69570626  0.21469670  1
  Fe  Fe85  1  0.53481831  0.19007684  0.88225536  1
  Fe  Fe86  1  0.53768823  0.68921437  0.87874903  1
  Fe  Fe87  1  0.03130224  0.70345573  0.87489862  1
  Fe  Fe88  1  0.53439524  0.18974822  0.21190047  1
  Fe  Fe89  1  0.03471976  0.18758408  0.54437721  1
  Fe  Fe90  1  0.53090204  0.19791371  0.55013933  1
  Fe  Fe91  1  0.03655161  0.19088329  0.21320352  1
  Fe  Fe92  1  0.31717600  0.96324002  0.95822800  1
  Fe  Fe93  1  0.81216943  0.46256886  0.62361375  1
  Fe  Fe94  1  0.80774192  0.96719081  0.28960810  1
  Fe  Fe95  1  0.80754584  0.46170341  0.94983935  1
  Fe  Fe96  1  0.29814351  0.46814920  0.61966783  1
  Fe  Fe97  1  0.81440273  0.95501971  0.61915801  1
  Fe  Fe98  1  0.31372727  0.96421823  0.28922871  1
  Fe  Fe99  1  0.80535969  0.46548423  0.29146958  1
  Fe  Fe100  1  0.30768099  0.46313495  0.28546341  1
  Fe  Fe101  1  0.79419700  0.96849700  0.95007573  1
  S  S102  1  0.35902069  0.14149524  0.08445902  1
  S  S103  1  0.35955771  0.14224848  0.41525508  1
  S  S104  1  0.35944949  0.14212291  0.75466125  1
  S  S105  1  0.36028773  0.64434974  0.08224629  1
  S  S106  1  0.35413047  0.63969617  0.41100965  1
  S  S107  1  0.36379222  0.63723584  0.75167562  1
  S  S108  1  0.86041447  0.14012348  0.08237467  1
  S  S109  1  0.85921062  0.14403346  0.41588605  1
  S  S110  1  0.85950217  0.13911470  0.75079401  1
  S  S111  1  0.86021045  0.63773234  0.08109329  1
  S  S112  1  0.85544135  0.63587118  0.41587315  1
  S  S113  1  0.86259872  0.63537547  0.75326053  1
  S  S114  1  0.13833494  0.35918061  0.24843044  1
  S  S115  1  0.13905068  0.35434562  0.58226955  1
  S  S116  1  0.13811590  0.35746648  0.91669499  1
  S  S117  1  0.14147845  0.86117977  0.24882288  1
  S  S118  1  0.15297675  0.85930740  0.58776967  1
  S  S119  1  0.14998717  0.86118127  0.92104828  1
  S  S120  1  0.63886393  0.36186266  0.25393370  1
  S  S121  1  0.63655598  0.36135077  0.58373041  1
  S  S122  1  0.64309383  0.35564247  0.91753320  1
  S  S123  1  0.63936987  0.85935220  0.25057346  1
  S  S124  1  0.63505892  0.87020986  0.57716947  1
  S  S125  1  0.64182552  0.85165513  0.91209917  1
  S  S126  1  0.06617216  0.16487384  0.03925371  1
  S  S127  1  0.06857617  0.16794098  0.37332315  1
  S  S128  1  0.07653339  0.17081746  0.71187586  1
  S  S129  1  0.07029288  0.67790621  0.04266556  1
  S  S130  1  0.06942164  0.66732438  0.37112034  1
  S  S131  1  0.05752949  0.67490844  0.70881524  1
  S  S132  1  0.56669092  0.17259038  0.04692507  1
  S  S133  1  0.56405397  0.17238942  0.37663566  1
  S  S134  1  0.56185252  0.17140821  0.71091534  1
  S  S135  1  0.56933681  0.66823146  0.04299552  1
  S  S136  1  0.56423316  0.66699100  0.37393001  1
  S  S137  1  0.56586113  0.66151791  0.70791148  1
  S  S138  1  0.33106958  0.43625844  0.12544024  1
  S  S139  1  0.32792589  0.43459365  0.45610023  1
  S  S140  1  0.33735953  0.43266517  0.79171125  1
  S  S141  1  0.33331364  0.93279952  0.12641001  1
  S  S142  1  0.33004055  0.92757391  0.45378790  1
  S  S143  1  0.33609932  0.93130563  0.79702707  1
  S  S144  1  0.83162356  0.43134817  0.12627885  1
  S  S145  1  0.82643953  0.42603525  0.45728711  1
  S  S146  1  0.82721721  0.42563905  0.79004414  1
  S  S147  1  0.83404720  0.93272690  0.12574152  1
  S  S148  1  0.82209061  0.93683381  0.44976266  1
  S  S149  1  0.82306915  0.94086578  0.78939497  1
  S  S150  1  0.43294203  0.33073196  0.29111032  1
  S  S151  1  0.42762908  0.32857683  0.62307933  1
  S  S152  1  0.44205305  0.33429106  0.96039445  1
  S  S153  1  0.43586142  0.82792828  0.29110383  1
  S  S154  1  0.43006201  0.82486437  0.61987228  1
  S  S155  1  0.43666364  0.82454963  0.95608983  1
  S  S156  1  0.92869872  0.32256794  0.28655237  1
  S  S157  1  0.93572779  0.32422602  0.62377279  1
  S  S158  1  0.93163771  0.32665800  0.95713068  1
  S  S159  1  0.93355735  0.83142127  0.28991754  1
  S  S160  1  0.94091280  0.86837800  0.63455202  1
  S  S161  1  0.93166314  0.83355880  0.95851980  1
  S  S162  1  0.17056206  0.06588814  0.21001300  1
  S  S163  1  0.17303448  0.07090411  0.54330755  1
  S  S164  1  0.17847777  0.06876679  0.87834238  1
  S  S165  1  0.17068246  0.56792339  0.20208260  1
  S  S166  1  0.17289920  0.56657490  0.53836303  1
  S  S167  1  0.16136408  0.57574949  0.87319482  1
  S  S168  1  0.66627550  0.06464481  0.21191049  1
  S  S169  1  0.66480495  0.07641956  0.54101402  1
  S  S170  1  0.66128558  0.06253614  0.87016169  1
  S  S171  1  0.66666310  0.56340700  0.20620866  1
  S  S172  1  0.68708906  0.57031077  0.55247636  1
  S  S173  1  0.66966881  0.56061968  0.87695496  1
  O  O174  1  0.36783059  0.21995943  0.07474509  1
  O  O175  1  0.36786278  0.22178349  0.40760023  1
  O  O176  1  0.36462189  0.22452677  0.75264529  1
  O  O177  1  0.36918357  0.72687368  0.08099599  1
  O  O178  1  0.36951823  0.71707678  0.40037084  1
  O  O179  1  0.37439860  0.71565757  0.74179798  1
  O  O180  1  0.87388476  0.21822131  0.07254060  1
  O  O181  1  0.87210972  0.22289095  0.40819004  1
  O  O182  1  0.87120018  0.21895680  0.74635968  1
  O  O183  1  0.86849269  0.71473683  0.06881234  1
  O  O184  1  0.86952694  0.70745545  0.39948670  1
  O  O185  1  0.85927942  0.70506418  0.73083592  1
  O  O186  1  0.27965864  0.13145543  0.09092222  1
  O  O187  1  0.27959562  0.13189277  0.42097569  1
  O  O188  1  0.27971719  0.12872504  0.76120897  1
  O  O189  1  0.28057861  0.63412269  0.08848437  1
  O  O190  1  0.27064479  0.63616063  0.40888206  1
  O  O191  1  0.28801076  0.62936720  0.76210207  1
  O  O192  1  0.78542504  0.13584695  0.09523616  1
  O  O193  1  0.77849882  0.13955499  0.42154955  1
  O  O194  1  0.78460623  0.13242803  0.76726715  1
  O  O195  1  0.78045406  0.62883636  0.08752798  1
  O  O196  1  0.76837188  0.62649717  0.40508181  1
  O  O197  1  0.78774968  0.61973113  0.76849932  1
  O  O198  1  0.12888354  0.28062969  0.25769625  1
  O  O199  1  0.13241018  0.27048192  0.58147134  1
  O  O200  1  0.12738769  0.27941229  0.92890745  1
  O  O201  1  0.13277930  0.78062926  0.25343815  1
  O  O202  1  0.14691338  0.78831459  0.60870255  1
  O  O203  1  0.13137174  0.78260438  0.92894546  1
  O  O204  1  0.62986448  0.28209397  0.26070838  1
  O  O205  1  0.62629891  0.28385314  0.59390936  1
  O  O206  1  0.63391345  0.27666557  0.92552142  1
  O  O207  1  0.63116354  0.77886266  0.25584325  1
  O  O208  1  0.63561103  0.79556663  0.58970856  1
  O  O209  1  0.63416497  0.77083553  0.91844986  1
  O  O210  1  0.21924262  0.36993169  0.24640182  1
  O  O211  1  0.21753300  0.36506108  0.57217068  1
  O  O212  1  0.21439159  0.36583784  0.90729016  1
  O  O213  1  0.21989291  0.87079828  0.23993038  1
  O  O214  1  0.22996704  0.87434601  0.58152814  1
  O  O215  1  0.23411724  0.86399336  0.92595874  1
  O  O216  1  0.71736080  0.36913401  0.24383517  1
  O  O217  1  0.71448768  0.36897148  0.57354738  1
  O  O218  1  0.72377676  0.36526248  0.91309740  1
  O  O219  1  0.71802629  0.87018813  0.24293577  1
  O  O220  1  0.70653490  0.89197165  0.56116983  1
  O  O221  1  0.72320813  0.86163017  0.90857707  1
  O  O222  1  0.41699765  0.13622908  0.15413245  1
  O  O223  1  0.41700402  0.13486452  0.48401301  1
  O  O224  1  0.41740418  0.13475081  0.82412766  1
  O  O225  1  0.41809041  0.63457047  0.15113258  1
  O  O226  1  0.40467013  0.63206201  0.48102623  1
  O  O227  1  0.42618259  0.62841476  0.81876798  1
  O  O228  1  0.92387770  0.12877744  0.14719124  1
  O  O229  1  0.91518220  0.13530602  0.48476416  1
  O  O230  1  0.92376968  0.12655356  0.81433629  1
  O  O231  1  0.91860056  0.63278539  0.15024632  1
  O  O232  1  0.89900843  0.63373460  0.49031180  1
  O  O233  1  0.92354215  0.64772188  0.82962345  1
  O  O234  1  0.36903566  0.08223895  0.01794691  1
  O  O235  1  0.36832126  0.08414676  0.34720908  1
  O  O236  1  0.37146942  0.08775543  0.68845930  1
  O  O237  1  0.37143280  0.58963756  0.01535259  1
  O  O238  1  0.36501916  0.57853861  0.34520112  1
  O  O239  1  0.37272701  0.57706777  0.68396888  1
  O  O240  1  0.86415215  0.07982519  0.01265268  1
  O  O241  1  0.86637060  0.08486469  0.34763089  1
  O  O242  1  0.85910583  0.08143763  0.67933695  1
  O  O243  1  0.87063639  0.57599428  0.01501969  1
  O  O244  1  0.87226806  0.56874006  0.35491612  1
  O  O245  1  0.88198624  0.56705163  0.69999004  1
  O  O246  1  0.08237130  0.36301841  0.17679961  1
  O  O247  1  0.08014129  0.36272192  0.51332858  1
  O  O248  1  0.07634410  0.36232386  0.84859750  1
  O  O249  1  0.08162136  0.87140539  0.18240296  1
  O  O250  1  0.09127450  0.85736598  0.51844314  1
  O  O251  1  0.10074373  0.87130354  0.85183137  1
  O  O252  1  0.57892408  0.37151231  0.18714252  1
  O  O253  1  0.57676618  0.36762026  0.51506476  1
  O  O254  1  0.58669757  0.36285769  0.84807750  1
  O  O255  1  0.58025264  0.86767950  0.18193796  1
  O  O256  1  0.56913351  0.87064969  0.50684071  1
  O  O257  1  0.58571622  0.85842258  0.84196852  1
  O  O258  1  0.12377898  0.41882495  0.31244257  1
  O  O259  1  0.13124581  0.40685214  0.65094409  1
  O  O260  1  0.13021871  0.41760146  0.98474836  1
  O  O261  1  0.13294602  0.91840399  0.31778176  1
  O  O262  1  0.13796321  0.92597360  0.65219515  1
  O  O263  1  0.13718826  0.92086635  0.98742277  1
  O  O264  1  0.63150449  0.42063219  0.32222764  1
  O  O265  1  0.62902223  0.42205044  0.65075237  1
  O  O266  1  0.63365172  0.41469957  0.98485300  1
  O  O267  1  0.62754602  0.91683546  0.31742748  1
  O  O268  1  0.62217567  0.93158814  0.64173157  1
  O  O269  1  0.63053508  0.90823204  0.97807556  1
  O  O270  1  0.03293969  0.19750466  0.10243267  1
  O  O271  1  0.03013102  0.19494403  0.43253246  1
  O  O272  1  0.03604032  0.19772627  0.77075174  1
  O  O273  1  0.03071769  0.70413046  0.10224362  1
  O  O274  1  0.03665037  0.68268515  0.43061963  1
  O  O275  1  0.03298035  0.70645485  0.77909640  1
  O  O276  1  0.53008699  0.20805570  0.10833549  1
  O  O277  1  0.52793581  0.20251785  0.43727543  1
  O  O278  1  0.52430064  0.20263156  0.77192526  1
  O  O279  1  0.53207731  0.69755780  0.10368019  1
  O  O280  1  0.52664088  0.69778325  0.43222182  1
  O  O281  1  0.53122758  0.69670925  0.77087685  1
  O  O282  1  0.30619996  0.47430014  0.06694648  1
  O  O283  1  0.29613170  0.47225109  0.39546428  1
  O  O284  1  0.31075043  0.45772610  0.72474936  1
  O  O285  1  0.30605909  0.97283019  0.06838764  1
  O  O286  1  0.30187521  0.96473484  0.39008554  1
  O  O287  1  0.30571909  0.97128684  0.74023074  1
  O  O288  1  0.80268401  0.46774452  0.06501755  1
  O  O289  1  0.79175946  0.46412476  0.39814269  1
  O  O290  1  0.79193631  0.45777773  0.72699655  1
  O  O291  1  0.81317980  0.96550450  0.06356220  1
  O  O292  1  0.78694523  0.97915677  0.39190057  1
  O  O293  1  0.78515374  0.97225610  0.72521777  1
  O  O294  1  0.46884737  0.29885433  0.22986503  1
  O  O295  1  0.46279416  0.29871753  0.56051977  1
  O  O296  1  0.47753540  0.29629262  0.89948320  1
  O  O297  1  0.47264214  0.79776751  0.23020177  1
  O  O298  1  0.46445262  0.79368677  0.55756535  1
  O  O299  1  0.47372515  0.79607878  0.89534283  1
  O  O300  1  0.96716898  0.29472687  0.22624300  1
  O  O301  1  0.97295883  0.29546570  0.56311416  1
  O  O302  1  0.96654220  0.29604980  0.89570092  1
  O  O303  1  0.96718826  0.79966854  0.22428112  1
  O  O304  1  0.96308138  0.82400037  0.57064827  1
  O  O305  1  0.97512740  0.80820413  0.90327459  1
  O  O306  1  0.19962074  0.02902635  0.27045444  1
  O  O307  1  0.19836272  0.04104949  0.60735741  1
  O  O308  1  0.20497603  0.02780183  0.93656347  1
  O  O309  1  0.19687214  0.52738951  0.25966716  1
  O  O310  1  0.20410326  0.52843381  0.59688048  1
  O  O311  1  0.18476346  0.54275008  0.93564481  1
  O  O312  1  0.69862882  0.03278565  0.27703973  1
  O  O313  1  0.69568322  0.05233051  0.60829128  1
  O  O314  1  0.68961180  0.02487065  0.92892588  1
  O  O315  1  0.69449952  0.52559033  0.26526016  1
  O  O316  1  0.71911177  0.53111827  0.61289477  1
  O  O317  1  0.70061524  0.52403551  0.93842118  1
  O  O318  1  0.08168892  0.08251299  0.03565882  1
  O  O319  1  0.09311643  0.08870619  0.36977686  1
  O  O320  1  0.10096532  0.09247208  0.71154336  1
  O  O321  1  0.08711166  0.59644678  0.03529421  1
  O  O322  1  0.09171403  0.58446205  0.35012878  1
  O  O323  1  0.05724525  0.58954653  0.68889520  1
  O  O324  1  0.58377663  0.09432890  0.04620345  1
  O  O325  1  0.58136574  0.09006268  0.37002466  1
  O  O326  1  0.57764341  0.09050368  0.70756131  1
  O  O327  1  0.58713203  0.58641287  0.03814307  1
  O  O328  1  0.58557550  0.58695576  0.37400175  1
  O  O329  1  0.58846893  0.58320745  0.71523948  1
  O  O330  1  0.41441676  0.41763480  0.13243179  1
  O  O331  1  0.40960065  0.41921446  0.45808943  1
  O  O332  1  0.42110355  0.41167615  0.80018003  1
  O  O333  1  0.41382212  0.91177289  0.13119436  1
  O  O334  1  0.40521848  0.89561450  0.44796373  1
  O  O335  1  0.41808090  0.91427975  0.79908577  1
  O  O336  1  0.91378432  0.41360871  0.13261620  1
  O  O337  1  0.90425833  0.40512900  0.45289171  1
  O  O338  1  0.90584820  0.40495631  0.78882488  1
  O  O339  1  0.91966494  0.91952654  0.14237880  1
  O  O340  1  0.90080991  0.92549188  0.44827645  1
  O  O341  1  0.90619567  0.93981469  0.79677499  1
  O  O342  1  0.41584073  0.41204138  0.29294871  1
  O  O343  1  0.40573591  0.40778122  0.62522584  1
  O  O344  1  0.43337903  0.41551677  0.96248367  1
  O  O345  1  0.42379942  0.91183724  0.29924252  1
  O  O346  1  0.41438658  0.90491859  0.62749574  1
  O  O347  1  0.42009286  0.90621617  0.96259657  1
  O  O348  1  0.90697179  0.40216295  0.28900792  1
  O  O349  1  0.91414830  0.40425511  0.62676227  1
  O  O350  1  0.91392698  0.40856740  0.96345132  1
  O  O351  1  0.90973074  0.91046971  0.28782262  1
  O  O352  1  0.93508606  0.95380551  0.63413812  1
  O  O353  1  0.91014018  0.91365539  0.95950189  1
  O  O354  1  0.08705813  0.08045005  0.20151463  1
  O  O355  1  0.09078189  0.08871818  0.53052830  1
  O  O356  1  0.09616047  0.08625326  0.87247564  1
  O  O357  1  0.08846033  0.58642352  0.19252576  1
  O  O358  1  0.09622990  0.58914113  0.53725671  1
  O  O359  1  0.08229868  0.60556091  0.86909766  1
  O  O360  1  0.58644810  0.08716544  0.21398131  1
  O  O361  1  0.58321198  0.09718942  0.53493462  1
  O  O362  1  0.57880775  0.08064689  0.86737953  1
  O  O363  1  0.58291868  0.57811397  0.19754162  1
  O  O364  1  0.61618219  0.60162301  0.56207646  1
  O  O365  1  0.58730925  0.57662016  0.87230520  1
  O  O366  1  0.13713454  0.21437618  0.05168213  1
  O  O367  1  0.13634434  0.22430298  0.38829614  1
  O  O368  1  0.14408557  0.22821655  0.72861430  1
  O  O369  1  0.14268746  0.73109730  0.06420989  1
  O  O370  1  0.13858679  0.72305911  0.38601539  1
  O  O371  1  0.13717333  0.71517779  0.72793422  1
  O  O372  1  0.63762828  0.22632393  0.06262591  1
  O  O373  1  0.63623237  0.22382394  0.39366049  1
  O  O374  1  0.63356968  0.22250516  0.72819119  1
  O  O375  1  0.64019994  0.72080041  0.05952198  1
  O  O376  1  0.63166176  0.71980323  0.38360065  1
  O  O377  1  0.63620081  0.71270950  0.72120395  1
  O  O378  1  0.27938775  0.36531198  0.10937632  1
  O  O379  1  0.27749234  0.36141740  0.43747653  1
  O  O380  1  0.28581496  0.36235220  0.78094933  1
  O  O381  1  0.27818241  0.86357728  0.10923056  1
  O  O382  1  0.27070674  0.86248549  0.43780749  1
  O  O383  1  0.28588075  0.85967896  0.78282840  1
  O  O384  1  0.77922371  0.36012133  0.10961761  1
  O  O385  1  0.77295814  0.35601171  0.44304263  1
  O  O386  1  0.77491602  0.35848224  0.78267133  1
  O  O387  1  0.78451291  0.85873841  0.10743116  1
  O  O388  1  0.77077985  0.86399275  0.42794803  1
  O  O389  1  0.78077211  0.86484330  0.77460333  1
  O  O390  1  0.36209534  0.28036917  0.27758840  1
  O  O391  1  0.35973766  0.27331188  0.60960835  1
  O  O392  1  0.36803018  0.28735272  0.94606554  1
  O  O393  1  0.36134742  0.77959496  0.27174090  1
  O  O394  1  0.36076736  0.77097562  0.60618503  1
  O  O395  1  0.36552277  0.77197489  0.93941443  1
  O  O396  1  0.85893159  0.26816168  0.26957676  1
  O  O397  1  0.86688727  0.26986156  0.60816455  1
  O  O398  1  0.86041017  0.27526922  0.94238585  1
  O  O399  1  0.86303125  0.77809059  0.27358206  1
  O  O400  1  0.85927585  0.84142055  0.62871686  1
  O  O401  1  0.86259145  0.77751733  0.93912719  1
  O  O402  1  0.22042941  0.13854521  0.22774584  1
  O  O403  1  0.22675377  0.14103943  0.55722307  1
  O  O404  1  0.23055518  0.14182946  0.90095205  1
  O  O405  1  0.22424849  0.64020229  0.22353092  1
  O  O406  1  0.23000927  0.63446526  0.55208465  1
  O  O407  1  0.21937968  0.64327405  0.88941051  1
  O  O408  1  0.71822487  0.13678446  0.22738684  1
  O  O409  1  0.71689944  0.14078226  0.54335564  1
  O  O410  1  0.71213446  0.13571147  0.88805586  1
  O  O411  1  0.71645131  0.63673041  0.22371348  1
  O  O412  1  0.74664666  0.62726581  0.55541144  1
  O  O413  1  0.72099167  0.63231088  0.89465358  1
  O  O414  1  0.49829927  0.33476938  0.03455072  1
  O  O415  1  0.49274468  0.33489288  0.36408124  1
  O  O416  1  0.48991267  0.33409254  0.69502799  1
  O  O417  1  0.49553694  0.82510464  0.02856111  1
  O  O418  1  0.49227377  0.82441634  0.36254797  1
  O  O419  1  0.49216444  0.82202029  0.69064530  1
  O  O420  1  0.99215412  0.32968818  0.02942208  1
  O  O421  1  0.98836377  0.32595277  0.35867936  1
  O  O422  1  0.99588359  0.33058824  0.69690954  1
  O  O423  1  0.98752571  0.84173192  0.03520312  1
  O  O424  1  0.99506830  0.83758687  0.35869598  1
  O  O425  1  0.99753344  0.87426788  0.70825176  1
  O  O426  1  0.17171264  0.00831936  0.13760191  1
  O  O427  1  0.17557831  0.00906510  0.47337056  1
  O  O428  1  0.17873410  0.01386484  0.80517808  1
  O  O429  1  0.17087595  0.51185588  0.12844776  1
  O  O430  1  0.16792294  0.50698964  0.46311890  1
  O  O431  1  0.15194605  0.51474848  0.80194089  1
  O  O432  1  0.66077132  0.00493850  0.14214317  1
  O  O433  1  0.65457056  0.00862577  0.47006570  1
  O  O434  1  0.65639961  0.00709171  0.79533315  1
  O  O435  1  0.66787501  0.50577452  0.13352545  1
  O  O436  1  0.66716069  0.50447732  0.47759563  1
  O  O437  1  0.66846876  0.50178936  0.80513861  1
  O  O438  1  0.00836240  0.16080518  0.29923803  1
  O  O439  1  0.01671700  0.16461667  0.63835063  1
  O  O440  1  0.00493785  0.16203070  0.96742837  1
  O  O441  1  0.00869228  0.66760445  0.29765688  1
  O  O442  1  0.00072587  0.69518508  0.64833109  1
  O  O443  1  0.01381240  0.68315773  0.97157997  1
  O  O444  1  0.50543494  0.17074233  0.30406881  1
  O  O445  1  0.50338499  0.17107625  0.63877587  1
  O  O446  1  0.50797469  0.17163886  0.97420640  1
  O  O447  1  0.50433425  0.65516745  0.29728622  1
  O  O448  1  0.50533511  0.64921393  0.63604633  1
  O  O449  1  0.51033830  0.66368637  0.96958047  1
  O  O450  1  0.33560798  0.49403896  0.20010792  1
  O  O451  1  0.33032104  0.49094848  0.52915306  1
  O  O452  1  0.34263107  0.49598566  0.86039201  1
  O  O453  1  0.33822689  0.99122069  0.20087345  1
  O  O454  1  0.34301328  0.98975313  0.52379004  1
  O  O455  1  0.34241178  0.98953747  0.87251692  1
  O  O456  1  0.83414995  0.49062698  0.19914084  1
  O  O457  1  0.83637324  0.48406064  0.53177861  1
  O  O458  1  0.83545971  0.48918193  0.86287353  1
  O  O459  1  0.82728902  0.99116934  0.19535589  1
  O  O460  1  0.81945108  0.99080293  0.52310500  1
  O  O461  1  0.81653328  0.99719632  0.86096261  1
