# generated using pymatgen
data_Na31Fe20(SO4)36
_symmetry_space_group_name_H-M   'P 1'
_cell_length_a   18.07152292
_cell_length_b   18.06750227
_cell_length_c   19.70819186
_cell_angle_alpha   107.58840544
_cell_angle_beta   107.55903997
_cell_angle_gamma   90.73473023
_symmetry_Int_Tables_number   1
_chemical_formula_structural   Na31Fe20(SO4)36
_chemical_formula_sum   'Na62 Fe40 S72 O288'
_cell_volume   5809.83699216
_cell_formula_units_Z   2
loop_
 _symmetry_equiv_pos_site_id
 _symmetry_equiv_pos_as_xyz
  1  'x, y, z'
loop_
 _atom_site_type_symbol
 _atom_site_label
 _atom_site_symmetry_multiplicity
 _atom_site_fract_x
 _atom_site_fract_y
 _atom_site_fract_z
 _atom_site_occupancy
  Na  Na0  1  0.14119822  0.36478588  0.09071604  1
  Na  Na1  1  0.13772336  0.37001147  0.42883304  1
  Na  Na2  1  0.12523955  0.35021945  0.73266314  1
  Na  Na3  1  0.13030026  0.87688931  0.08438598  1
  Na  Na4  1  0.13526685  0.87388180  0.41883552  1
  Na  Na5  1  0.12945233  0.86390215  0.74377691  1
  Na  Na6  1  0.64158432  0.36079794  0.08590396  1
  Na  Na7  1  0.63822416  0.36534816  0.41707595  1
  Na  Na8  1  0.62701212  0.34826259  0.73316446  1
  Na  Na9  1  0.63300521  0.86014416  0.07416403  1
  Na  Na10  1  0.62719707  0.86127604  0.42104694  1
  Na  Na11  1  0.63627681  0.87035189  0.75410798  1
  Na  Na12  1  0.34585206  0.13212963  0.22631086  1
  Na  Na13  1  0.37814990  0.13966783  0.59169849  1
  Na  Na14  1  0.36402265  0.12969040  0.91243839  1
  Na  Na15  1  0.37090088  0.63808040  0.25831626  1
  Na  Na16  1  0.35535597  0.63260417  0.57359139  1
  Na  Na17  1  0.36880765  0.62302062  0.91084312  1
  Na  Na18  1  0.86576827  0.13393892  0.24527372  1
  Na  Na19  1  0.87486408  0.13251806  0.58491455  1
  Na  Na20  1  0.87153579  0.13761300  0.92282581  1
  Na  Na21  1  0.86549066  0.63824324  0.25108643  1
  Na  Na22  1  0.85840185  0.63112179  0.57823154  1
  Na  Na23  1  0.84457042  0.63649657  0.91516060  1
  Na  Na24  1  0.95419532  0.50460819  0.07749297  1
  Na  Na25  1  0.99120284  0.50497857  0.75537674  1
  Na  Na26  1  0.48587369  0.03815172  0.43353110  1
  Na  Na27  1  0.51780048  0.49492491  0.05800632  1
  Na  Na28  1  0.97153299  0.50649107  0.42107248  1
  Na  Na29  1  0.99334121  0.01167153  0.74203927  1
  Na  Na30  1  0.50633159  0.50686383  0.42477436  1
  Na  Na31  1  0.49345582  0.01706562  0.06068854  1
  Na  Na32  1  1.00201563  0.06189690  0.44127209  1
  Na  Na33  1  0.03119251  0.98933403  0.94509905  1
  Na  Na34  1  -0.02640050  0.51148465  0.92402725  1
  Na  Na35  1  0.54265428  0.49445830  0.25544778  1
  Na  Na36  1  0.01139580  0.48520870  0.25625761  1
  Na  Na37  1  0.50378939  0.99393734  0.25124829  1
  Na  Na38  1  0.45837842  0.51714002  0.63428827  1
  Na  Na39  1  0.01579596  0.47896645  0.58759109  1
  Na  Na40  1  0.51513008  0.44319831  0.80795003  1
  Na  Na41  1  0.51092115  0.97549974  0.58376535  1
  Na  Na42  1  0.75781531  0.25726314  0.31747092  1
  Na  Na43  1  0.25646133  0.75415210  -0.00724098  1
  Na  Na44  1  0.74443572  0.24205000  0.66969962  1
  Na  Na45  1  0.25343757  0.25459093  0.32384925  1
  Na  Na46  1  0.74753703  0.25255398  0.00740200  1
  Na  Na47  1  0.25671356  0.75484272  0.66016747  1
  Na  Na48  1  0.26556451  0.76312522  0.32884554  1
  Na  Na49  1  0.24187444  0.23203460  0.01703249  1
  Na  Na50  1  0.74009145  0.73811705  0.34114287  1
  Na  Na51  1  0.26513341  0.26500507  0.66199195  1
  Na  Na52  1  0.25998135  0.25582481  0.82798448  1
  Na  Na53  1  0.25444762  0.75397635  0.82585466  1
  Na  Na54  1  0.73342423  0.73338640  0.51061501  1
  Na  Na55  1  0.26783898  0.76289928  0.49017779  1
  Na  Na56  1  0.73920071  0.24431568  0.50208609  1
  Na  Na57  1  0.75307602  0.25655775  0.83875049  1
  Na  Na58  1  0.75202870  0.75582312  0.82753522  1
  Na  Na59  1  0.75897099  0.75769338  0.15497786  1
  Na  Na60  1  0.25987595  0.26608235  0.50253266  1
  Na  Na61  1  0.25694753  0.75795817  0.16046361  1
  Fe  Fe62  1  0.96307755  0.30696235  0.11861376  1
  Fe  Fe63  1  0.96587743  0.81463840  0.45433381  1
  Fe  Fe64  1  0.96854034  0.30783557  0.78872295  1
  Fe  Fe65  1  0.96353029  0.80633119  0.78545713  1
  Fe  Fe66  1  0.46742231  0.30149252  0.45913092  1
  Fe  Fe67  1  0.46834385  0.30614365  0.11920496  1
  Fe  Fe68  1  0.46664625  0.80348534  0.11921468  1
  Fe  Fe69  1  0.96457976  0.81605041  0.12350309  1
  Fe  Fe70  1  0.96480867  0.30035676  0.45527602  1
  Fe  Fe71  1  0.46535887  0.81229569  0.79057631  1
  Fe  Fe72  1  0.19239795  0.53224244  0.04718717  1
  Fe  Fe73  1  0.19873693  0.53007161  0.71350065  1
  Fe  Fe74  1  0.69219036  0.03711634  0.04589181  1
  Fe  Fe75  1  0.18781175  0.04039591  0.38026771  1
  Fe  Fe76  1  0.68948408  0.03292829  0.38118963  1
  Fe  Fe77  1  0.68636292  0.53519776  0.71284851  1
  Fe  Fe78  1  0.69734113  0.03413326  0.71599910  1
  Fe  Fe79  1  0.19754858  0.53034650  0.38385033  1
  Fe  Fe80  1  0.18808326  0.03840098  0.71094141  1
  Fe  Fe81  1  0.69992140  0.52910889  0.03686391  1
  Fe  Fe82  1  0.53313377  0.19578739  0.87488693  1
  Fe  Fe83  1  0.53349893  0.69158097  0.21450129  1
  Fe  Fe84  1  0.03567568  0.69443831  0.54769172  1
  Fe  Fe85  1  0.53275688  0.70075396  0.54471033  1
  Fe  Fe86  1  0.03903291  0.18464955  0.20854867  1
  Fe  Fe87  1  0.53801976  0.68973857  0.87872732  1
  Fe  Fe88  1  0.53609987  0.19168921  0.21369025  1
  Fe  Fe89  1  0.03357382  0.69128189  0.88231338  1
  Fe  Fe90  1  0.03877379  0.19113629  0.88485954  1
  Fe  Fe91  1  0.03639420  0.69401977  0.21533457  1
  Fe  Fe92  1  0.80822377  0.96259601  0.61725404  1
  Fe  Fe93  1  0.30470675  0.96965825  0.28543689  1
  Fe  Fe94  1  0.80740494  0.96484249  0.28476222  1
  Fe  Fe95  1  0.31019849  0.96820923  0.62211673  1
  Fe  Fe96  1  0.80180940  0.46911594  0.61882635  1
  Fe  Fe97  1  0.81088407  0.96544867  0.95538598  1
  Fe  Fe98  1  0.31067066  0.45907752  0.28406849  1
  Fe  Fe99  1  0.80054553  0.46924403  0.28845043  1
  Fe  Fe100  1  0.31151253  0.46089069  0.95501099  1
  Fe  Fe101  1  0.29876510  0.96761531  0.95462134  1
  S  S102  1  0.36456665  0.13840324  0.07975981  1
  S  S103  1  0.35306088  0.14429082  0.41256936  1
  S  S104  1  0.35929911  0.13980444  0.75394510  1
  S  S105  1  0.35847397  0.63868395  0.08324075  1
  S  S106  1  0.35922174  0.63588554  0.41636353  1
  S  S107  1  0.36039709  0.64509049  0.75097325  1
  S  S108  1  0.85952172  0.14067824  0.08411692  1
  S  S109  1  0.84991097  0.14120749  0.41252810  1
  S  S110  1  0.86374526  0.13867731  0.75079652  1
  S  S111  1  0.86381020  0.64506208  0.08410074  1
  S  S112  1  0.86247948  0.64538448  0.41577956  1
  S  S113  1  0.86050659  0.63898717  0.75395703  1
  S  S114  1  0.13810631  0.36129107  0.24977842  1
  S  S115  1  0.13664645  0.36046544  0.58449600  1
  S  S116  1  0.14492375  0.35688394  0.92006241  1
  S  S117  1  0.14177323  0.85868555  0.25131129  1
  S  S118  1  0.14107464  0.86012450  0.58245186  1
  S  S119  1  0.13915294  0.85158829  0.91313769  1
  S  S120  1  0.63955317  0.35850895  0.25220994  1
  S  S121  1  0.64003203  0.36001687  0.57904130  1
  S  S122  1  0.64637217  0.35552951  0.92131882  1
  S  S123  1  0.64104461  0.85744164  0.25034024  1
  S  S124  1  0.64563210  0.86097482  0.58679932  1
  S  S125  1  0.64029754  0.86119715  0.91688666  1
  S  S126  1  0.06814879  0.17345741  0.04650563  1
  S  S127  1  0.06557891  0.17559559  0.37556246  1
  S  S128  1  0.06543344  0.16972820  0.71347707  1
  S  S129  1  0.06822179  0.66837890  0.04379959  1
  S  S130  1  0.07373625  0.66959492  0.37715153  1
  S  S131  1  0.06398543  0.66489191  0.70755229  1
  S  S132  1  0.57262994  0.17313657  0.04064575  1
  S  S133  1  0.56055937  0.16715895  0.37278772  1
  S  S134  1  0.57225631  0.16227965  0.70968049  1
  S  S135  1  0.56866341  0.66969763  0.04314782  1
  S  S136  1  0.56351621  0.66718234  0.37678737  1
  S  S137  1  0.56479808  0.67653084  0.71007950  1
  S  S138  1  0.33613816  0.43250591  0.12587509  1
  S  S139  1  0.33412351  0.43011593  0.45559409  1
  S  S140  1  0.32046490  0.42877860  0.79172095  1
  S  S141  1  0.33344823  0.93008836  0.12380522  1
  S  S142  1  0.33288869  0.94468321  0.45784534  1
  S  S143  1  0.32122997  0.92788203  0.78932922  1
  S  S144  1  0.83236901  0.43752764  0.12961937  1
  S  S145  1  0.83300651  0.43273259  0.45776270  1
  S  S146  1  0.82906732  0.43362283  0.79053803  1
  S  S147  1  0.82568916  0.93233805  0.12292778  1
  S  S148  1  0.82742302  0.93234696  0.45387272  1
  S  S149  1  0.83681901  0.93482682  0.79591687  1
  S  S150  1  0.43195700  0.32587097  0.29220165  1
  S  S151  1  0.43120708  0.33174627  0.62067575  1
  S  S152  1  0.43637955  0.32598844  0.95746155  1
  S  S153  1  0.43535414  0.83397507  0.29078794  1
  S  S154  1  0.43124588  0.82961297  0.62510520  1
  S  S155  1  0.42997974  0.82840056  0.95753865  1
  S  S156  1  0.93254167  0.33241555  0.29317573  1
  S  S157  1  0.92511271  0.33453732  0.62602276  1
  S  S158  1  0.94043018  0.33235198  0.95816828  1
  S  S159  1  0.93422325  0.83193684  0.29058310  1
  S  S160  1  0.93162895  0.82714051  0.62213705  1
  S  S161  1  0.93392403  0.82867371  0.95619608  1
  S  S162  1  0.16898276  0.06378956  0.21062299  1
  S  S163  1  0.17573258  0.07176759  0.54809879  1
  S  S164  1  0.16542024  0.06104250  0.87337544  1
  S  S165  1  0.16965608  0.56779870  0.21038388  1
  S  S166  1  0.16349888  0.56996149  0.54137304  1
  S  S167  1  0.16828125  0.56415255  0.87639270  1
  S  S168  1  0.66525644  0.06226189  0.20624051  1
  S  S169  1  0.67118283  0.06142599  0.54317993  1
  S  S170  1  0.67642464  0.07574536  0.88089442  1
  S  S171  1  0.67081007  0.56675752  0.20294874  1
  S  S172  1  0.66562121  0.56633695  0.54351778  1
  S  S173  1  0.66263457  0.56587973  0.86962384  1
  O  O174  1  0.37785251  0.21685474  0.07057422  1
  O  O175  1  0.36872948  0.22532706  0.40740152  1
  O  O176  1  0.35874792  0.21682692  0.74492718  1
  O  O177  1  0.36604534  0.71804136  0.07505961  1
  O  O178  1  0.35946603  0.71305818  0.40688768  1
  O  O179  1  0.36469021  0.72895090  0.75166038  1
  O  O180  1  0.86747197  0.21896242  0.07312504  1
  O  O181  1  0.86105747  0.22059935  0.40561287  1
  O  O182  1  0.87303313  0.21737393  0.74199413  1
  O  O183  1  0.87280726  0.72713409  0.08392558  1
  O  O184  1  0.87941164  0.72201022  0.40444794  1
  O  O185  1  0.87022384  0.71954255  0.75098914  1
  O  O186  1  0.28854088  0.13123784  0.08902711  1
  O  O187  1  0.27122766  0.14171344  0.41481288  1
  O  O188  1  0.28496951  0.12173508  0.76912336  1
  O  O189  1  0.27816700  0.62866421  0.08893344  1
  O  O190  1  0.28413017  0.62134648  0.43225805  1
  O  O191  1  0.28189008  0.63086412  0.75958161  1
  O  O192  1  0.78166344  0.13040853  0.09305645  1
  O  O193  1  0.76793358  0.13252635  0.41504581  1
  O  O194  1  0.78389500  0.13077020  0.75713328  1
  O  O195  1  0.78363320  0.63159933  0.08799645  1
  O  O196  1  0.78491926  0.64263921  0.42318622  1
  O  O197  1  0.78360354  0.62817055  0.76491173  1
  O  O198  1  0.12881279  0.28217087  0.25604305  1
  O  O199  1  0.12848405  0.28695111  0.59959822  1
  O  O200  1  0.13640333  0.27885353  0.92997271  1
  O  O201  1  0.13352713  0.77924236  0.25991070  1
  O  O202  1  0.13075588  0.78312353  0.59526120  1
  O  O203  1  0.13162374  0.76974389  0.91706768  1
  O  O204  1  0.62963054  0.27665158  0.25528958  1
  O  O205  1  0.64210366  0.28484601  0.59273602  1
  O  O206  1  0.62474763  0.27716323  0.93099712  1
  O  O207  1  0.63050124  0.77922917  0.25962879  1
  O  O208  1  0.63388117  0.77990268  0.58839791  1
  O  O209  1  0.62950431  0.78335248  0.92597119  1
  O  O210  1  0.21462684  0.37171997  0.23832480  1
  O  O211  1  0.21046423  0.37252994  0.57094443  1
  O  O212  1  0.22448306  0.36609230  0.91374484  1
  O  O213  1  0.22239042  0.86711558  0.24528728  1
  O  O214  1  0.22033816  0.86632480  0.57431067  1
  O  O215  1  0.22018008  0.86204006  0.90968953  1
  O  O216  1  0.71985798  0.36895973  0.24831419  1
  O  O217  1  0.71415117  0.37692231  0.56335090  1
  O  O218  1  0.72970248  0.35794989  0.93054755  1
  O  O219  1  0.72172487  0.86647568  0.24635883  1
  O  O220  1  0.72490915  0.86712634  0.57667217  1
  O  O221  1  0.71959314  0.87104575  0.90888657  1
  O  O222  1  0.42734454  0.12857308  0.14586922  1
  O  O223  1  0.40714010  0.13157181  0.47860278  1
  O  O224  1  0.42398076  0.13673916  0.82268914  1
  O  O225  1  0.41568074  0.63300294  0.15293203  1
  O  O226  1  0.42326266  0.62922291  0.48209331  1
  O  O227  1  0.42023286  0.63632356  0.81838921  1
  O  O228  1  0.91970070  0.13664392  0.15272882  1
  O  O229  1  0.90541314  0.13153196  0.47969834  1
  O  O230  1  0.92115006  0.13043672  0.81940169  1
  O  O231  1  0.92092507  0.63464551  0.15396759  1
  O  O232  1  0.92191945  0.63555287  0.48383430  1
  O  O233  1  0.92204844  0.62586863  0.81912599  1
  O  O234  1  0.37291041  0.07790145  0.01125506  1
  O  O235  1  0.36139949  0.08711796  0.34278618  1
  O  O236  1  0.36893754  0.07997572  0.68749536  1
  O  O237  1  0.36908147  0.58022438  0.01650624  1
  O  O238  1  0.36486803  0.57589330  0.34730573  1
  O  O239  1  0.36833976  0.59411115  0.68099473  1
  O  O240  1  0.86819084  0.08076164  0.01681461  1
  O  O241  1  0.85919663  0.08297831  0.34386100  1
  O  O242  1  0.87332181  0.07831742  0.68381529  1
  O  O243  1  0.87788016  0.59013327  0.01826986  1
  O  O244  1  0.87018407  0.58286884  0.34887175  1
  O  O245  1  0.86740363  0.58253364  0.68374211  1
  O  O246  1  0.07610456  0.37418982  0.18563178  1
  O  O247  1  0.07161934  0.36766994  0.51740096  1
  O  O248  1  0.08681871  0.36437755  0.85130142  1
  O  O249  1  0.08472401  0.86304117  0.18097375  1
  O  O250  1  0.08314660  0.86346783  0.51190066  1
  O  O251  1  0.08297762  0.85807357  0.84236936  1
  O  O252  1  0.58259387  0.36682089  0.18187613  1
  O  O253  1  0.57649384  0.35802769  0.50785607  1
  O  O254  1  0.59878772  0.36036999  0.84863551  1
  O  O255  1  0.58469360  0.86335045  0.17986504  1
  O  O256  1  0.58672723  0.87925362  0.52653842  1
  O  O257  1  0.58192761  0.86800562  0.84801781  1
  O  O258  1  0.13215544  0.41948886  0.32035577  1
  O  O259  1  0.12630987  0.42552403  0.65040519  1
  O  O260  1  0.13673697  0.41686193  0.98794314  1
  O  O261  1  0.13285271  0.91727134  0.31827731  1
  O  O262  1  0.13175162  0.92147425  0.64783757  1
  O  O263  1  0.12639489  0.90724861  0.97840726  1
  O  O264  1  0.62642712  0.41451161  0.31740086  1
  O  O265  1  0.62840870  0.42166873  0.64317721  1
  O  O266  1  0.63007634  0.41725033  0.98469222  1
  O  O267  1  0.62867716  0.91796312  0.31561541  1
  O  O268  1  0.64568795  0.91627022  0.66093100  1
  O  O269  1  0.63255516  0.92195673  0.98407249  1
  O  O270  1  0.02877365  0.20801280  0.10601758  1
  O  O271  1  0.02337357  0.19930049  0.43159437  1
  O  O272  1  0.03431035  0.20250777  0.78011804  1
  O  O273  1  0.03450436  0.69926926  0.10608574  1
  O  O274  1  0.03899408  0.69931065  0.43879240  1
  O  O275  1  0.02651121  0.69626517  0.76744095  1
  O  O276  1  0.53535299  0.20229165  0.10127090  1
  O  O277  1  0.52207967  0.19750998  0.43091020  1
  O  O278  1  0.54591513  0.18585610  0.77818763  1
  O  O279  1  0.52833128  0.69496819  0.10283776  1
  O  O280  1  0.52936218  0.70424838  0.43612606  1
  O  O281  1  0.52693014  0.70551015  0.77093737  1
  O  O282  1  0.30606911  0.47037742  0.06565616  1
  O  O283  1  0.30193352  0.45926826  0.38859089  1
  O  O284  1  0.29452610  0.46998855  0.73524757  1
  O  O285  1  0.30979425  0.96287061  0.06196766  1
  O  O286  1  0.29364045  0.98012138  0.39693199  1
  O  O287  1  0.29416113  0.96329521  0.72761173  1
  O  O288  1  0.80894503  0.47633102  0.07158954  1
  O  O289  1  0.81599226  0.47166762  0.39964761  1
  O  O290  1  0.79507900  0.46183418  0.72355766  1
  O  O291  1  0.79558833  0.96906757  0.06173635  1
  O  O292  1  0.79641694  0.97179242  0.39466715  1
  O  O293  1  0.80720742  0.96999820  0.73392947  1
  O  O294  1  0.46938159  0.29729766  0.23147317  1
  O  O295  1  0.46624047  0.30240536  0.55666490  1
  O  O296  1  0.47308910  0.29512915  0.89832258  1
  O  O297  1  0.46774132  0.80073406  0.22540708  1
  O  O298  1  0.46906377  0.79940217  0.56715777  1
  O  O299  1  0.46960621  0.80161865  0.89924937  1
  O  O300  1  0.96909048  0.30520347  0.23234217  1
  O  O301  1  0.95561630  0.30604412  0.56314682  1
  O  O302  1  0.97754854  0.29656944  0.89778845  1
  O  O303  1  0.97420220  0.80341820  0.23171319  1
  O  O304  1  0.97090399  0.80122130  0.56261678  1
  O  O305  1  0.97427648  0.79848145  0.89734197  1
  O  O306  1  0.19967195  0.02770698  0.27421283  1
  O  O307  1  0.20907648  0.03007176  0.60622245  1
  O  O308  1  0.19345971  0.02179028  0.93066112  1
  O  O309  1  0.19879368  0.53267091  0.27208237  1
  O  O310  1  0.18608519  0.54184521  0.60612783  1
  O  O311  1  0.19822196  0.52784476  0.93734278  1
  O  O312  1  0.69307950  0.02325978  0.26546696  1
  O  O313  1  0.70965533  0.02784857  0.60573874  1
  O  O314  1  0.70418272  0.03646813  0.94015351  1
  O  O315  1  0.69672434  0.52950297  0.26225455  1
  O  O316  1  0.70137268  0.54142489  0.61312708  1
  O  O317  1  0.69380333  0.53375565  0.93173965  1
  O  O318  1  0.08522799  0.09535977  0.04668956  1
  O  O319  1  0.08586936  0.09483630  0.37364733  1
  O  O320  1  0.08255699  0.08768627  0.71125381  1
  O  O321  1  0.08515694  0.58589933  0.03806056  1
  O  O322  1  0.09022084  0.58673856  0.36986135  1
  O  O323  1  0.08012060  0.58302878  0.70443785  1
  O  O324  1  0.58633890  0.09021813  0.03526724  1
  O  O325  1  0.57982751  0.08569268  0.37296351  1
  O  O326  1  0.59264130  0.07941818  0.69726541  1
  O  O327  1  0.59019419  0.58952225  0.03752656  1
  O  O328  1  0.57253385  0.58468179  0.37128314  1
  O  O329  1  0.58242084  0.59488612  0.70559778  1
  O  O330  1  0.41889318  0.41739050  0.13274326  1
  O  O331  1  0.41248635  0.40191981  0.45410663  1
  O  O332  1  0.39602843  0.40157802  0.79393064  1
  O  O333  1  0.41642557  0.91078512  0.13562602  1
  O  O334  1  0.41449156  0.93832063  0.46028711  1
  O  O335  1  0.40123568  0.90740247  0.79629989  1
  O  O336  1  0.91588065  0.41865159  0.13665373  1
  O  O337  1  0.91663982  0.41429929  0.47243694  1
  O  O338  1  0.91204630  0.41537294  0.79437767  1
  O  O339  1  0.90498369  0.91192284  0.12461106  1
  O  O340  1  0.90707526  0.91311726  0.45404538  1
  O  O341  1  0.91963820  0.91809410  0.80088774  1
  O  O342  1  0.42082266  0.41040804  0.30188441  1
  O  O343  1  0.39859545  0.40462142  0.61771058  1
  O  O344  1  0.41657619  0.40714616  0.96076149  1
  O  O345  1  0.41356656  0.91461889  0.29137774  1
  O  O346  1  0.40926444  0.90898032  0.62331143  1
  O  O347  1  0.40706295  0.90800037  0.96212537  1
  O  O348  1  0.91407317  0.41511571  0.29864667  1
  O  O349  1  0.91130482  0.41948494  0.63637960  1
  O  O350  1  0.92711826  0.41268330  0.95910691  1
  O  O351  1  0.91349806  0.91199110  0.29488483  1
  O  O352  1  0.91325715  0.90905802  0.62950253  1
  O  O353  1  0.91767004  0.91009082  0.95896077  1
  O  O354  1  0.08906681  0.08389310  0.20962625  1
  O  O355  1  0.09888773  0.09106808  0.55150511  1
  O  O356  1  0.08269804  0.07853622  0.86949287  1
  O  O357  1  0.08628299  0.58269691  0.20233292  1
  O  O358  1  0.07800271  0.58357784  0.52476131  1
  O  O359  1  0.08649636  0.58326898  0.87346980  1
  O  O360  1  0.58213431  0.07839143  0.19988837  1
  O  O361  1  0.59069473  0.07186682  0.54131740  1
  O  O362  1  0.59825115  0.10072058  0.88007194  1
  O  O363  1  0.58664918  0.58211883  0.19432709  1
  O  O364  1  0.59045024  0.59862006  0.54708938  1
  O  O365  1  0.57883469  0.58012398  0.86199837  1
  O  O366  1  0.13677345  0.22782592  0.06118967  1
  O  O367  1  0.13615428  0.23014536  0.39527917  1
  O  O368  1  0.13903552  0.21820689  0.72957090  1
  O  O369  1  0.13875054  0.71951169  0.05623813  1
  O  O370  1  0.14497688  0.72072965  0.39124347  1
  O  O371  1  0.13592731  0.71558609  0.72297401  1
  O  O372  1  0.64502552  0.22232924  0.05785480  1
  O  O373  1  0.63172022  0.21859929  0.38764767  1
  O  O374  1  0.64405651  0.21533349  0.72634479  1
  O  O375  1  0.63735273  0.72579622  0.06313057  1
  O  O376  1  0.63847357  0.71394346  0.39077380  1
  O  O377  1  0.63575240  0.72892449  0.72810376  1
  O  O378  1  0.28513783  0.36083795  0.10847796  1
  O  O379  1  0.27835375  0.36374402  0.44488743  1
  O  O380  1  0.26104387  0.36207999  0.77528287  1
  O  O381  1  0.28004459  0.85911423  0.10791591  1
  O  O382  1  0.28659797  0.86832230  0.43991019  1
  O  O383  1  0.26587019  0.85739889  0.77136315  1
  O  O384  1  0.78094177  0.36638353  0.11276488  1
  O  O385  1  0.77910512  0.36115707  0.43539048  1
  O  O386  1  0.78020980  0.36157012  0.77913349  1
  O  O387  1  0.77160941  0.86408849  0.10968364  1
  O  O388  1  0.77403352  0.86197689  0.43732325  1
  O  O389  1  0.78623770  0.86440145  0.78277835  1
  O  O390  1  0.35812296  0.27789944  0.27304951  1
  O  O391  1  0.36762715  0.27033844  0.60720397  1
  O  O392  1  0.36568304  0.27447108  0.94403690  1
  O  O393  1  0.36340388  0.78115484  0.27413076  1
  O  O394  1  0.35968202  0.77644199  0.60944330  1
  O  O395  1  0.36118388  0.77180860  0.94010398  1
  O  O396  1  0.86244595  0.27981267  0.27720680  1
  O  O397  1  0.85269240  0.28605047  0.61406825  1
  O  O398  1  0.86878383  0.28120671  0.94242414  1
  O  O399  1  0.86403052  0.77702611  0.27164492  1
  O  O400  1  0.86233170  0.77293027  0.60409859  1
  O  O401  1  0.86216382  0.77680014  0.93662813  1
  O  O402  1  0.22114987  0.13593526  0.22982909  1
  O  O403  1  0.23146908  0.13986926  0.56311933  1
  O  O404  1  0.21626062  0.13391088  0.89166846  1
  O  O405  1  0.22013408  0.64006125  0.22591822  1
  O  O406  1  0.21250409  0.64254053  0.55472829  1
  O  O407  1  0.22090943  0.63490995  0.89210108  1
  O  O408  1  0.71670007  0.13367659  0.22439038  1
  O  O409  1  0.72015102  0.13444336  0.55674940  1
  O  O410  1  0.73309763  0.14405085  0.89717998  1
  O  O411  1  0.72088276  0.64018364  0.22129189  1
  O  O412  1  0.72278727  0.62602299  0.54543475  1
  O  O413  1  0.70951670  0.63799287  0.88011949  1
  O  O414  1  0.49594684  0.33480099  0.03284936  1
  O  O415  1  0.48963714  0.32226835  0.36410211  1
  O  O416  1  0.49505231  0.34270923  0.69115334  1
  O  O417  1  0.48907893  0.83263144  0.03130290  1
  O  O418  1  0.49539618  0.83819344  0.36002277  1
  O  O419  1  0.48752101  0.83780928  0.70072897  1
  O  O420  1  0.99681765  0.33569580  0.03302906  1
  O  O421  1  0.99145925  0.33697584  0.36696745  1
  O  O422  1  0.98668356  0.33528384  0.69772333  1
  O  O423  1  0.99099996  0.83014656  0.02947183  1
  O  O424  1  0.99316169  0.83370728  0.36312504  1
  O  O425  1  0.99085775  0.82923569  0.69504817  1
  O  O426  1  0.16821060  0.00502747  0.14139086  1
  O  O427  1  0.16834891  0.01360692  0.47198467  1
  O  O428  1  0.16037508  0.00533096  0.79765016  1
  O  O429  1  0.17081086  0.50830208  0.13893881  1
  O  O430  1  0.16957984  0.50795769  0.47330297  1
  O  O431  1  0.16225655  0.50591096  0.80271595  1
  O  O432  1  0.66245647  0.00498650  0.13228514  1
  O  O433  1  0.67105884  0.00273750  0.47019975  1
  O  O434  1  0.67184707  0.01546254  0.80852252  1
  O  O435  1  0.67021533  0.50963091  0.12934427  1
  O  O436  1  0.64701903  0.49661444  0.47688984  1
  O  O437  1  0.66072886  0.50380548  0.79744866  1
  O  O438  1  0.01005164  0.17173257  0.30063943  1
  O  O439  1  0.00471744  0.16951297  0.64581628  1
  O  O440  1  0.00854500  0.16960175  0.97207829  1
  O  O441  1  0.01289903  0.66765172  0.30505082  1
  O  O442  1  0.00612281  0.66209358  0.63377693  1
  O  O443  1  0.00666088  0.66382354  0.97126816  1
  O  O444  1  0.50363215  0.15770476  0.29671851  1
  O  O445  1  0.50943958  0.16487469  0.64475799  1
  O  O446  1  0.51377204  0.17305995  0.96791346  1
  O  O447  1  0.50809486  0.66761831  0.30139565  1
  O  O448  1  0.50541389  0.67401747  0.63774964  1
  O  O449  1  0.50989682  0.66903558  0.97084626  1
  O  O450  1  0.33605603  0.49117916  0.19833856  1
  O  O451  1  0.34547604  0.49641820  0.52349210  1
  O  O452  1  0.32567446  0.48829676  0.86711428  1
  O  O453  1  0.33361353  0.99095857  0.19504167  1
  O  O454  1  0.33079754  0.99815763  0.53162066  1
  O  O455  1  0.32107099  0.98689155  0.86105863  1
  O  O456  1  0.83607417  0.49528698  0.20403282  1
  O  O457  1  0.82850392  0.49062864  0.52876158  1
  O  O458  1  0.83458418  0.49741980  0.85912818  1
  O  O459  1  0.83027066  0.99329704  0.19573474  1
  O  O460  1  0.83334145  0.99033920  0.52811909  1
  O  O461  1  0.83964113  0.99583263  0.86807995  1
