# generated using pymatgen
data_Na31Fe20(SO4)36
_symmetry_space_group_name_H-M   'P 1'
_cell_length_a   18.07982235
_cell_length_b   18.07602001
_cell_length_c   19.71824092
_cell_angle_alpha   107.57116754
_cell_angle_beta   107.56763901
_cell_angle_gamma   90.72200310
_symmetry_Int_Tables_number   1
_chemical_formula_structural   Na31Fe20(SO4)36
_chemical_formula_sum   'Na62 Fe40 S72 O288'
_cell_volume   5818.68923882
_cell_formula_units_Z   2
loop_
 _symmetry_equiv_pos_site_id
 _symmetry_equiv_pos_as_xyz
  1  'x, y, z'
loop_
 _atom_site_type_symbol
 _atom_site_label
 _atom_site_symmetry_multiplicity
 _atom_site_fract_x
 _atom_site_fract_y
 _atom_site_fract_z
 _atom_site_occupancy
  Na  Na0  1  0.13703385  0.36514101  0.08443946  1
  Na  Na1  1  0.13733038  0.36073098  0.41363920  1
  Na  Na2  1  0.11994586  0.38629955  0.74813678  1
  Na  Na3  1  0.13663890  0.86612298  0.07678903  1
  Na  Na4  1  0.13163304  0.84540378  0.39329971  1
  Na  Na5  1  0.12989838  0.86863905  0.75198143  1
  Na  Na6  1  0.65446195  0.33735071  0.07235257  1
  Na  Na7  1  0.62966034  0.36391859  0.41200913  1
  Na  Na8  1  0.65171353  0.36998349  0.77480915  1
  Na  Na9  1  0.62540217  0.86359503  0.08060732  1
  Na  Na10  1  0.64218802  0.87475963  0.43230425  1
  Na  Na11  1  0.62753644  0.87201426  0.74808184  1
  Na  Na12  1  0.36348041  0.12797085  0.24017254  1
  Na  Na13  1  0.37499596  0.12779688  0.58604172  1
  Na  Na14  1  0.36345219  0.13276592  0.91434287  1
  Na  Na15  1  0.35882136  0.64186020  0.25281733  1
  Na  Na16  1  0.36656332  0.63002193  0.58519792  1
  Na  Na17  1  0.36852299  0.64083860  0.92764317  1
  Na  Na18  1  0.86566170  0.14254812  0.24862718  1
  Na  Na19  1  0.85941073  0.13663687  0.58063454  1
  Na  Na20  1  0.84983909  0.16971101  0.92059397  1
  Na  Na21  1  0.86832467  0.64086482  0.25023246  1
  Na  Na22  1  0.87352437  0.62320545  0.58173119  1
  Na  Na23  1  0.86594800  0.63709957  0.91789513  1
  Na  Na24  1  0.99974892  0.01554202  0.08027844  1
  Na  Na25  1  0.98501711  0.01114721  0.43829929  1
  Na  Na26  1  0.48195211  -0.00228039  0.07988514  1
  Na  Na27  1  0.49947587  0.51802404  0.07911383  1
  Na  Na28  1  0.97914642  0.53269476  0.08018578  1
  Na  Na29  1  0.49362927  0.51271136  0.72912544  1
  Na  Na30  1  1.01825340  0.45541887  0.49000314  1
  Na  Na31  1  0.48359827  0.50256313  0.43535546  1
  Na  Na32  1  0.48308138  0.00202180  0.43225081  1
  Na  Na33  1  -0.00415050  0.50952611  0.25367725  1
  Na  Na34  1  0.50952203  0.49527714  0.25193047  1
  Na  Na35  1  0.50783452  0.95797195  0.24541621  1
  Na  Na36  1  0.00535453  0.97445392  0.24999198  1
  Na  Na37  1  0.50644243  0.99335336  0.90278642  1
  Na  Na38  1  -0.00800604  0.52465766  0.89330088  1
  Na  Na39  1  0.03834454  0.99561259  0.91372060  1
  Na  Na40  1  0.52261940  0.48837205  0.91014888  1
  Na  Na41  1  -0.04400977  1.01349574  0.65047220  1
  Na  Na42  1  0.24391483  0.23759668  0.00562503  1
  Na  Na43  1  0.74454932  0.24881788  0.68002708  1
  Na  Na44  1  0.24909378  0.25464693  0.67117256  1
  Na  Na45  1  0.24261991  0.23672317  0.33556049  1
  Na  Na46  1  0.24247273  0.74414190  0.00875386  1
  Na  Na47  1  0.75567089  0.75807158  0.33388376  1
  Na  Na48  1  0.23730969  0.73458434  0.67459337  1
  Na  Na49  1  0.75665587  0.75826867  0.65875831  1
  Na  Na50  1  0.76950205  0.26693272  0.32115092  1
  Na  Na51  1  0.74844147  0.74870482  -0.00256672  1
  Na  Na52  1  0.25051714  0.75096336  0.49065491  1
  Na  Na53  1  0.24368241  0.23992513  0.50539344  1
  Na  Na54  1  0.76157654  0.76378112  0.49927123  1
  Na  Na55  1  0.75864826  0.25934949  0.49344341  1
  Na  Na56  1  0.24008450  0.23478724  0.16792684  1
  Na  Na57  1  0.75413262  0.75916711  0.82718998  1
  Na  Na58  1  0.24848897  0.24915514  0.83343566  1
  Na  Na59  1  0.75445114  0.75335959  0.16386493  1
  Na  Na60  1  0.21878150  0.71690272  0.83472940  1
  Na  Na61  1  0.22884453  0.73798182  0.18303795  1
  Fe  Fe62  1  0.96142593  0.31831310  0.79230552  1
  Fe  Fe63  1  0.96601794  0.79980579  0.78997279  1
  Fe  Fe64  1  0.96938498  0.80495516  0.45714778  1
  Fe  Fe65  1  0.96143956  0.31373795  0.11422496  1
  Fe  Fe66  1  0.96893398  0.79564571  0.11892693  1
  Fe  Fe67  1  0.46919426  0.30179092  0.78447096  1
  Fe  Fe68  1  0.45903006  0.80822951  0.78296573  1
  Fe  Fe69  1  0.46712258  0.30489522  0.45425751  1
  Fe  Fe70  1  0.47151313  0.30328340  0.11557130  1
  Fe  Fe71  1  0.46221415  0.81160844  0.45643682  1
  Fe  Fe72  1  0.19210721  0.03385945  0.37768135  1
  Fe  Fe73  1  0.69071826  0.53534163  0.71101365  1
  Fe  Fe74  1  0.19200215  0.53620306  0.37808762  1
  Fe  Fe75  1  0.19012645  0.53349764  0.04811592  1
  Fe  Fe76  1  0.18802365  0.03498441  0.70797455  1
  Fe  Fe77  1  0.69983267  0.52802627  0.04245017  1
  Fe  Fe78  1  0.69501479  0.03452582  0.38385000  1
  Fe  Fe79  1  0.69329670  0.04044662  0.04929253  1
  Fe  Fe80  1  0.70236155  0.03254592  0.71446722  1
  Fe  Fe81  1  0.69178497  0.53787162  0.38007754  1
  Fe  Fe82  1  0.03763428  0.68458437  0.54767099  1
  Fe  Fe83  1  0.53816004  0.19385978  0.55130889  1
  Fe  Fe84  1  0.03159163  0.19899841  0.21321331  1
  Fe  Fe85  1  0.52929806  0.69780643  0.88144807  1
  Fe  Fe86  1  0.03155354  0.19689998  0.87885075  1
  Fe  Fe87  1  0.03141513  0.20250457  0.54402025  1
  Fe  Fe88  1  0.53849136  0.18468198  0.87744162  1
  Fe  Fe89  1  0.53139432  0.70371578  0.21345193  1
  Fe  Fe90  1  0.53447032  0.69584657  0.54972663  1
  Fe  Fe91  1  0.53916607  0.19109728  0.21450132  1
  Fe  Fe92  1  0.31109309  0.46371565  0.95129883  1
  Fe  Fe93  1  0.81304070  0.46575752  0.62244566  1
  Fe  Fe94  1  0.29739215  0.96765104  0.95121823  1
  Fe  Fe95  1  0.81079109  0.46500026  0.28471435  1
  Fe  Fe96  1  0.30353494  0.46570075  0.62406159  1
  Fe  Fe97  1  0.30622276  0.96343179  0.61775219  1
  Fe  Fe98  1  0.80854887  0.96749777  0.28912163  1
  Fe  Fe99  1  0.30849710  0.46236078  0.28344266  1
  Fe  Fe100  1  0.30365675  0.96568587  0.27802163  1
  Fe  Fe101  1  0.80645344  0.96756323  0.95404320  1
  S  S102  1  0.36457253  0.14039776  0.08127240  1
  S  S103  1  0.36210341  0.13757215  0.41577457  1
  S  S104  1  0.36040254  0.13784471  0.74737767  1
  S  S105  1  0.36199316  0.63673073  0.08888606  1
  S  S106  1  0.36371927  0.63730950  0.41562223  1
  S  S107  1  0.35864062  0.64038019  0.74897452  1
  S  S108  1  0.86014328  0.14233636  0.08224212  1
  S  S109  1  0.85694297  0.14243682  0.41620318  1
  S  S110  1  0.86046090  0.14793293  0.75320233  1
  S  S111  1  0.85508133  0.64259871  0.08303370  1
  S  S112  1  0.85827138  0.64075066  0.41624916  1
  S  S113  1  0.85336696  0.64130187  0.74961678  1
  S  S114  1  0.14393850  0.35884852  0.24912657  1
  S  S115  1  0.14732454  0.35523651  0.58182648  1
  S  S116  1  0.14416256  0.35805037  0.91589979  1
  S  S117  1  0.13824036  0.86196966  0.24551713  1
  S  S118  1  0.14216344  0.85622595  0.58219717  1
  S  S119  1  0.13800265  0.85901685  0.91267779  1
  S  S120  1  0.63986499  0.36083299  0.24888194  1
  S  S121  1  0.64081972  0.36061108  0.58241575  1
  S  S122  1  0.63827446  0.35650975  0.91904695  1
  S  S123  1  0.64484670  0.86114916  0.25281791  1
  S  S124  1  0.63866929  0.86036311  0.58513096  1
  S  S125  1  0.63664127  0.86407864  0.91819850  1
  S  S126  1  0.06064549  0.17275966  0.04123821  1
  S  S127  1  0.06661711  0.16475309  0.37150692  1
  S  S128  1  0.06711005  0.17446732  0.70632615  1
  S  S129  1  0.06498886  0.66709466  0.04198510  1
  S  S130  1  0.06404859  0.66527197  0.37748297  1
  S  S131  1  0.06535333  0.67158394  0.71087222  1
  S  S132  1  0.56520377  0.15892535  0.03821287  1
  S  S133  1  0.56679045  0.16612466  0.37393390  1
  S  S134  1  0.57416780  0.17099364  0.71062859  1
  S  S135  1  0.56939145  0.66738366  0.04251164  1
  S  S136  1  0.57058728  0.67631194  0.37716047  1
  S  S137  1  0.56664021  0.67465845  0.71056681  1
  S  S138  1  0.33860117  0.42739854  0.12502799  1
  S  S139  1  0.33062267  0.42799378  0.45666492  1
  S  S140  1  0.34319614  0.43159164  0.79574463  1
  S  S141  1  0.33204664  0.93537884  0.12046968  1
  S  S142  1  0.32353960  0.93108845  0.45487298  1
  S  S143  1  0.32405554  0.93296596  0.78642878  1
  S  S144  1  0.83371367  0.43873048  0.12802585  1
  S  S145  1  0.81916311  0.43148593  0.45119400  1
  S  S146  1  0.82818777  0.44145824  0.78937037  1
  S  S147  1  0.82949527  0.93024913  0.12415342  1
  S  S148  1  0.83646335  0.93612917  0.46227559  1
  S  S149  1  0.82977638  0.92847581  0.79262657  1
  S  S150  1  0.43364759  0.32838868  0.28956737  1
  S  S151  1  0.43282470  0.32529629  0.62330160  1
  S  S152  1  0.43348833  0.32654244  0.95638538  1
  S  S153  1  0.43327994  0.83510456  0.29502943  1
  S  S154  1  0.42642095  0.82629260  0.62071850  1
  S  S155  1  0.42883103  0.83433606  0.95342740  1
  S  S156  1  0.94040527  0.33720070  0.29107146  1
  S  S157  1  0.93150616  0.32890460  0.62453855  1
  S  S158  1  0.94576584  0.34722865  0.96195265  1
  S  S159  1  0.93438238  0.83650035  0.29549695  1
  S  S160  1  0.92965552  0.81663301  0.62136753  1
  S  S161  1  0.92923243  0.83089197  0.95873486  1
  S  S162  1  0.16593026  0.06709845  0.20601806  1
  S  S163  1  0.17040905  0.06986684  0.54149871  1
  S  S164  1  0.16995604  0.07295155  0.87164328  1
  S  S165  1  0.16860735  0.55819250  0.20902134  1
  S  S166  1  0.17527430  0.56344658  0.53915386  1
  S  S167  1  0.18009355  0.56124227  0.88536216  1
  S  S168  1  0.67057244  0.06670494  0.21108098  1
  S  S169  1  0.66924930  0.07117190  0.54432735  1
  S  S170  1  0.67096001  0.06650297  0.87696847  1
  S  S171  1  0.67023768  0.57041581  0.20951765  1
  S  S172  1  0.66506946  0.56831708  0.53939744  1
  S  S173  1  0.65885268  0.56893205  0.87060065  1
  O  O174  1  0.37930601  0.21725045  0.06923536  1
  O  O175  1  0.37152981  0.21615791  0.40673141  1
  O  O176  1  0.37092086  0.21582303  0.73707105  1
  O  O177  1  0.36504732  0.70951603  0.07226825  1
  O  O178  1  0.37492329  0.71576340  0.40862267  1
  O  O179  1  0.37154015  0.71536287  0.73300883  1
  O  O180  1  0.86926262  0.21998457  0.07342915  1
  O  O181  1  0.86158113  0.22039992  0.41009454  1
  O  O182  1  0.86842551  0.23048725  0.75176975  1
  O  O183  1  0.86276163  0.72692931  0.08357278  1
  O  O184  1  0.87041965  0.72162500  0.41144946  1
  O  O185  1  0.86496030  0.72433027  0.74658588  1
  O  O186  1  0.28814375  0.13822194  0.09146012  1
  O  O187  1  0.28315900  0.13045120  0.42450547  1
  O  O188  1  0.28079924  0.13188860  0.75538038  1
  O  O189  1  0.28584934  0.62239254  0.10166532  1
  O  O190  1  0.28527884  0.62851290  0.42416847  1
  O  O191  1  0.28007768  0.63417610  0.75314580  1
  O  O192  1  0.78368267  0.13029404  0.09352813  1
  O  O193  1  0.78052902  0.12780551  0.42919286  1
  O  O194  1  0.78091533  0.13384895  0.75773483  1
  O  O195  1  0.77244406  0.63242016  0.08538104  1
  O  O196  1  0.77846223  0.63580293  0.42414151  1
  O  O197  1  0.77050099  0.63541206  0.75147236  1
  O  O198  1  0.13427060  0.27910136  0.25645875  1
  O  O199  1  0.13754877  0.27135607  0.58171286  1
  O  O200  1  0.13583681  0.27724953  0.92118489  1
  O  O201  1  0.13397172  0.78661465  0.25672108  1
  O  O202  1  0.13504270  0.77762975  0.59097992  1
  O  O203  1  0.13833176  0.78022317  0.91859936  1
  O  O204  1  0.62958188  0.28397361  0.26141963  1
  O  O205  1  0.63223426  0.28129052  0.59014523  1
  O  O206  1  0.62108347  0.27983254  0.92904662  1
  O  O207  1  0.63398149  0.78087432  0.25796524  1
  O  O208  1  0.62578441  0.78262858  0.59695031  1
  O  O209  1  0.62534318  0.78605552  0.92793587  1
  O  O210  1  0.22298932  0.36477064  0.23926631  1
  O  O211  1  0.23084876  0.36283267  0.58008014  1
  O  O212  1  0.22242487  0.36720662  0.90636571  1
  O  O213  1  0.21546209  0.87616202  0.23419772  1
  O  O214  1  0.22117101  0.86733967  0.57445736  1
  O  O215  1  0.20993459  0.87606527  0.89402236  1
  O  O216  1  0.72143393  0.37117367  0.24950519  1
  O  O217  1  0.71890381  0.37037287  0.57307923  1
  O  O218  1  0.71145091  0.36363733  0.90550410  1
  O  O219  1  0.72667596  0.86878071  0.24954988  1
  O  O220  1  0.71336295  0.86300816  0.57106560  1
  O  O221  1  0.71536848  0.86956508  0.90908598  1
  O  O222  1  0.42566899  0.13180229  0.14883652  1
  O  O223  1  0.42137629  0.12896576  0.48345163  1
  O  O224  1  0.41879706  0.13120349  0.81613759  1
  O  O225  1  0.42344460  0.63622759  0.16020751  1
  O  O226  1  0.42323789  0.62649768  0.48291860  1
  O  O227  1  0.41732708  0.63727628  0.81998123  1
  O  O228  1  0.92173941  0.13284850  0.14945305  1
  O  O229  1  0.91979908  0.13132438  0.48112559  1
  O  O230  1  0.91790349  0.13986368  0.82248484  1
  O  O231  1  0.91039553  0.63202360  0.15017376  1
  O  O232  1  0.91579534  0.62843350  0.48193754  1
  O  O233  1  0.90777514  0.63031872  0.81562220  1
  O  O234  1  0.37069653  0.07817575  0.01380318  1
  O  O235  1  0.36942892  0.07762891  0.34800669  1
  O  O236  1  0.36637692  0.07746016  0.67978615  1
  O  O237  1  0.37683894  0.57194185  0.02698725  1
  O  O238  1  0.37188965  0.57751383  0.34762227  1
  O  O239  1  0.37250801  0.57661744  0.68536459  1
  O  O240  1  0.86812225  0.08203280  0.01447848  1
  O  O241  1  0.86207732  0.08331055  0.34588650  1
  O  O242  1  0.87162867  0.09507530  0.68533117  1
  O  O243  1  0.86462971  0.59070014  0.01411887  1
  O  O244  1  0.86235999  0.58405179  0.34581816  1
  O  O245  1  0.85868620  0.58695053  0.67814120  1
  O  O246  1  0.08510641  0.36891199  0.18301115  1
  O  O247  1  0.09488551  0.36311788  0.51195073  1
  O  O248  1  0.08402857  0.36800300  0.84984617  1
  O  O249  1  0.07688577  0.86948947  0.17767943  1
  O  O250  1  0.08347467  0.86220649  0.51305051  1
  O  O251  1  0.07081251  0.86472355  0.84478464  1
  O  O252  1  0.58590214  0.36235001  0.17537739  1
  O  O253  1  0.58077272  0.36582875  0.51312016  1
  O  O254  1  0.57366336  0.36872182  0.85431242  1
  O  O255  1  0.58915693  0.87300348  0.18707572  1
  O  O256  1  0.57536469  0.86843470  0.51916219  1
  O  O257  1  0.57693779  0.87302535  0.85071101  1
  O  O258  1  0.14000802  0.41692899  0.31888797  1
  O  O259  1  0.13787421  0.40909869  0.64885535  1
  O  O260  1  0.13933009  0.41383432  0.98660404  1
  O  O261  1  0.12841146  0.92429212  0.31219435  1
  O  O262  1  0.13324128  0.91595577  0.64933198  1
  O  O263  1  0.12872651  0.91791171  0.97837608  1
  O  O264  1  0.62178143  0.42298934  0.31004162  1
  O  O265  1  0.63214026  0.41926249  0.64979412  1
  O  O266  1  0.63241905  0.41757417  0.98885775  1
  O  O267  1  0.63701168  0.91802952  0.32302800  1
  O  O268  1  0.63641391  0.92112966  0.65432489  1
  O  O269  1  0.63090422  0.92482283  0.98629212  1
  O  O270  1  0.02864581  0.21069601  0.10465953  1
  O  O271  1  0.03371311  0.18614296  0.43312942  1
  O  O272  1  0.03122517  0.20217524  0.76745581  1
  O  O273  1  0.03002236  0.69730658  0.10337822  1
  O  O274  1  0.03223578  0.69669978  0.44302638  1
  O  O275  1  0.01892631  0.70536172  0.76321790  1
  O  O276  1  0.53559571  0.19589326  0.10316794  1
  O  O277  1  0.53081582  0.19642218  0.43535893  1
  O  O278  1  0.53408567  0.19927243  0.77023404  1
  O  O279  1  0.53550529  0.68875780  0.10391708  1
  O  O280  1  0.53572440  0.70238584  0.43915476  1
  O  O281  1  0.53117776  0.70485361  0.77227004  1
  O  O282  1  0.30516644  0.45823006  0.06199513  1
  O  O283  1  0.30467068  0.46665902  0.39688687  1
  O  O284  1  0.31476201  0.46496096  0.73485091  1
  O  O285  1  0.30059554  0.96714279  0.05782887  1
  O  O286  1  0.29436958  0.96711826  0.39307538  1
  O  O287  1  0.29589948  0.97155557  0.72645918  1
  O  O288  1  0.80229950  0.47177928  0.06664970  1
  O  O289  1  0.78962228  0.47427524  0.39381841  1
  O  O290  1  0.79530032  0.47312401  0.72320089  1
  O  O291  1  0.80040347  0.96859274  0.06468915  1
  O  O292  1  0.80432425  0.96975269  0.39842638  1
  O  O293  1  0.80522147  0.96800889  0.73566468  1
  O  O294  1  0.47004334  0.30041036  0.22861008  1
  O  O295  1  0.46909578  0.29581845  0.56143960  1
  O  O296  1  0.46154304  0.29293677  0.89088378  1
  O  O297  1  0.47338033  0.80955129  0.23807288  1
  O  O298  1  0.46535726  0.79555864  0.56125350  1
  O  O299  1  0.46133069  0.80106931  0.88800074  1
  O  O300  1  0.97096150  0.30319795  0.22463657  1
  O  O301  1  0.97271578  0.30163753  0.56868451  1
  O  O302  1  0.97885306  0.30413667  0.89911174  1
  O  O303  1  0.96755190  0.81755022  0.23384761  1
  O  O304  1  0.97411348  0.78801792  0.56584972  1
  O  O305  1  0.96093117  0.80867152  0.89507310  1
  O  O306  1  0.20118942  0.03883341  0.27302004  1
  O  O307  1  0.19724363  0.02979284  0.60033153  1
  O  O308  1  0.19993814  0.03779983  0.93158822  1
  O  O309  1  0.20791863  0.52503676  0.27260064  1
  O  O310  1  0.20467503  0.52692228  0.59800312  1
  O  O311  1  0.21547930  0.52849514  0.95180904  1
  O  O312  1  0.69815963  0.02848703  0.27121726  1
  O  O313  1  0.69056451  0.03610426  0.60419325  1
  O  O314  1  0.70155614  0.02947434  0.93874784  1
  O  O315  1  0.69989312  0.53212619  0.26928963  1
  O  O316  1  0.69381793  0.53084676  0.59885799  1
  O  O317  1  0.67966948  0.53206113  0.92967883  1
  O  O318  1  0.06767286  0.09036134  0.03567002  1
  O  O319  1  0.08255439  0.08038202  0.35579842  1
  O  O320  1  0.08409512  0.09177043  0.69870837  1
  O  O321  1  0.08818951  0.58704481  0.04454933  1
  O  O322  1  0.08656872  0.58469871  0.37471952  1
  O  O323  1  0.09299470  0.60060798  0.72204520  1
  O  O324  1  0.57601026  0.07507279  0.03487962  1
  O  O325  1  0.58320417  0.08364723  0.36737487  1
  O  O326  1  0.60060744  0.09506011  0.71191167  1
  O  O327  1  0.58770136  0.58405016  0.02963178  1
  O  O328  1  0.58741577  0.59304067  0.36740697  1
  O  O329  1  0.58560915  0.59379906  0.70639155  1
  O  O330  1  0.42237317  0.41335858  0.13070397  1
  O  O331  1  0.41215628  0.40878390  0.46082525  1
  O  O332  1  0.42558874  0.41220773  0.80086640  1
  O  O333  1  0.41600141  0.92774860  0.13244293  1
  O  O334  1  0.40543967  0.91465584  0.45969440  1
  O  O335  1  0.40623227  0.91564748  0.79280692  1
  O  O336  1  0.91715066  0.42331528  0.13240483  1
  O  O337  1  0.89469703  0.40753903  0.44884788  1
  O  O338  1  0.90922801  0.42171092  0.79135774  1
  O  O339  1  0.90915298  0.90803021  0.12669676  1
  O  O340  1  0.91505472  0.91090875  0.46040061  1
  O  O341  1  0.90921776  0.90110313  0.79640779  1
  O  O342  1  0.41885309  0.41209095  0.29824137  1
  O  O343  1  0.41133295  0.40511449  0.62743075  1
  O  O344  1  0.42136202  0.41055506  0.96543754  1
  O  O345  1  0.41453160  0.91802664  0.30039816  1
  O  O346  1  0.40512708  0.90454896  0.62048828  1
  O  O347  1  0.40682118  0.91434051  0.95220822  1
  O  O348  1  0.91502515  0.41545338  0.28780626  1
  O  O349  1  0.90949092  0.40804415  0.62542685  1
  O  O350  1  0.94547324  0.42892909  0.96394496  1
  O  O351  1  0.91898747  0.92173290  0.31195455  1
  O  O352  1  0.90456801  0.89182409  0.61874534  1
  O  O353  1  0.91283255  0.91469609  0.97473373  1
  O  O354  1  0.08719021  0.09269002  0.20745597  1
  O  O355  1  0.09172257  0.09406844  0.53895045  1
  O  O356  1  0.08992867  0.09426552  0.87096995  1
  O  O357  1  0.08623416  0.56180565  0.20343079  1
  O  O358  1  0.09309462  0.58022363  0.53357143  1
  O  O359  1  0.10118244  0.57702035  0.88413283  1
  O  O360  1  0.58718781  0.08157267  0.20282144  1
  O  O361  1  0.58539287  0.08857317  0.52792180  1
  O  O362  1  0.58724916  0.07789564  0.87182298  1
  O  O363  1  0.58787440  0.58717089  0.20565823  1
  O  O364  1  0.58404087  0.58874945  0.53577377  1
  O  O365  1  0.57452939  0.58652438  0.85764322  1
  O  O366  1  0.13689913  0.21794344  0.05704476  1
  O  O367  1  0.14049076  0.21514822  0.38950812  1
  O  O368  1  0.13933256  0.22592679  0.72332856  1
  O  O369  1  0.13675170  0.71978941  0.05801501  1
  O  O370  1  0.13394476  0.71764497  0.39152076  1
  O  O371  1  0.13070496  0.73215681  0.72522819  1
  O  O372  1  0.63797811  0.20189898  0.04737315  1
  O  O373  1  0.63811617  0.21752060  0.38971524  1
  O  O374  1  0.63747972  0.23040395  0.72323365  1
  O  O375  1  0.63952975  0.72166820  0.05915086  1
  O  O376  1  0.64226913  0.72811469  0.39405965  1
  O  O377  1  0.63641795  0.72771527  0.72525650  1
  O  O378  1  0.29119809  0.35508859  0.11467278  1
  O  O379  1  0.27802798  0.35605552  0.43748290  1
  O  O380  1  0.29293506  0.36049857  0.78415314  1
  O  O381  1  0.28514120  0.86179104  0.10748749  1
  O  O382  1  0.27319336  0.85999187  0.44019043  1
  O  O383  1  0.27239333  0.86133303  0.76739448  1
  O  O384  1  0.78708104  0.36832696  0.12025820  1
  O  O385  1  0.76126084  0.36294260  0.43172891  1
  O  O386  1  0.77726005  0.37042953  0.77409472  1
  O  O387  1  0.77304180  0.86225254  0.10856791  1
  O  O388  1  0.78178763  0.86677142  0.44765484  1
  O  O389  1  0.77230225  0.85982554  0.77513253  1
  O  O390  1  0.36156032  0.27760781  0.27265853  1
  O  O391  1  0.36427661  0.26965957  0.60738818  1
  O  O392  1  0.36029952  0.28002581  0.94518063  1
  O  O393  1  0.36243669  0.78305834  0.27814489  1
  O  O394  1  0.35772047  0.77085598  0.60436872  1
  O  O395  1  0.36006779  0.78156013  0.94152287  1
  O  O396  1  0.87364990  0.28327001  0.28138163  1
  O  O397  1  0.86056841  0.27443137  0.60639836  1
  O  O398  1  0.87074280  0.30571902  0.94934659  1
  O  O399  1  0.86137370  0.78516589  0.27679671  1
  O  O400  1  0.86192097  0.75781758  0.60221208  1
  O  O401  1  0.85644957  0.77920146  0.94078808  1
  O  O402  1  0.22000218  0.13590435  0.21721365  1
  O  O403  1  0.22864628  0.13734896  0.55998277  1
  O  O404  1  0.22306948  0.14308826  0.88460089  1
  O  O405  1  0.21349104  0.63320129  0.22494910  1
  O  O406  1  0.22530278  0.63632777  0.55449625  1
  O  O407  1  0.23236388  0.63465201  0.90485262  1
  O  O408  1  0.72121030  0.13895645  0.22994187  1
  O  O409  1  0.72085824  0.14325087  0.56162274  1
  O  O410  1  0.71743710  0.13984633  0.89423330  1
  O  O411  1  0.72167598  0.64305177  0.22810456  1
  O  O412  1  0.71775418  0.63809318  0.55334856  1
  O  O413  1  0.71069723  0.64089811  0.88858439  1
  O  O414  1  0.49608688  0.32472226  0.02546182  1
  O  O415  1  0.49200201  0.32865911  0.36192727  1
  O  O416  1  0.49417672  0.32896492  0.69479163  1
  O  O417  1  0.49266693  0.84372298  0.02291196  1
  O  O418  1  0.49093040  0.84141339  0.37074109  1
  O  O419  1  0.48573723  0.83211790  0.69453214  1
  O  O420  1  1.00269791  0.34313053  0.03472005  1
  O  O421  1  1.00473640  0.34916859  0.36075520  1
  O  O422  1  0.98670377  0.33396022  0.70041257  1
  O  O423  1  0.98946480  0.82483128  0.02693745  1
  O  O424  1  0.99304305  0.82994409  0.36470902  1
  O  O425  1  0.98471524  0.82259160  0.69779621  1
  O  O426  1  0.15455856  0.00355283  0.13652632  1
  O  O427  1  0.16394079  0.01117442  0.46734728  1
  O  O428  1  0.16263754  0.01370038  0.79704083  1
  O  O429  1  0.17561826  0.50055322  0.13856899  1
  O  O430  1  0.17284802  0.50533102  0.46526308  1
  O  O431  1  0.18567952  0.50259005  0.81853544  1
  O  O432  1  0.67147071  0.00884219  0.13892135  1
  O  O433  1  0.67302110  0.01142718  0.47336430  1
  O  O434  1  0.67226428  0.00773781  0.80578719  1
  O  O435  1  0.66796396  0.51325762  0.13651758  1
  O  O436  1  0.65795981  0.50882177  0.46485342  1
  O  O437  1  0.66013468  0.51020233  0.79845648  1
  O  O438  1  0.00759027  0.17188215  0.30258233  1
  O  O439  1  0.00824517  0.17332414  0.63413396  1
  O  O440  1  0.00406062  0.17755755  0.97029602  1
  O  O441  1  0.00158579  0.65855472  0.30796302  1
  O  O442  1  0.01044977  0.65803950  0.63182488  1
  O  O443  1  0.00642817  0.65684899  0.96893553  1
  O  O444  1  0.50742801  0.16559090  0.30172529  1
  O  O445  1  0.51185455  0.16215201  0.63675089  1
  O  O446  1  0.50304760  0.15559144  0.96651181  1
  O  O447  1  0.51082307  0.67667543  0.30621026  1
  O  O448  1  0.50621609  0.67130756  0.63840461  1
  O  O449  1  0.50907826  0.66984633  0.97178480  1
  O  O450  1  0.34264701  0.48867605  0.19763825  1
  O  O451  1  0.33264317  0.48499551  0.52960563  1
  O  O452  1  0.34983114  0.49200180  0.86972424  1
  O  O453  1  0.32622638  0.99469551  0.19184037  1
  O  O454  1  0.32562886  0.99159260  0.52673832  1
  O  O455  1  0.32486679  0.99186656  0.85856000  1
  O  O456  1  0.83959285  0.50104736  0.20162768  1
  O  O457  1  0.82303577  0.48824116  0.52575377  1
  O  O458  1  0.83239063  0.50357579  0.85794861  1
  O  O459  1  0.83677001  0.98966367  0.19866265  1
  O  O460  1  0.84628279  0.99774688  0.53324177  1
  O  O461  1  0.83761715  0.98566762  0.86793762  1
