# generated using pymatgen
data_Na31Fe20(SO4)36
_symmetry_space_group_name_H-M   'P 1'
_cell_length_a   18.07646261
_cell_length_b   18.08061037
_cell_length_c   19.71359132
_cell_angle_alpha   107.60441203
_cell_angle_beta   107.58159126
_cell_angle_gamma   90.71621240
_symmetry_Int_Tables_number   1
_chemical_formula_structural   Na31Fe20(SO4)36
_chemical_formula_sum   'Na62 Fe40 S72 O288'
_cell_volume   5816.07379713
_cell_formula_units_Z   2
loop_
 _symmetry_equiv_pos_site_id
 _symmetry_equiv_pos_as_xyz
  1  'x, y, z'
loop_
 _atom_site_type_symbol
 _atom_site_label
 _atom_site_symmetry_multiplicity
 _atom_site_fract_x
 _atom_site_fract_y
 _atom_site_fract_z
 _atom_site_occupancy
  Na  Na0  1  0.13360613  0.36732651  0.08667633  1
  Na  Na1  1  0.14354423  0.37364674  0.42887128  1
  Na  Na2  1  0.13277041  0.36413220  0.74513583  1
  Na  Na3  1  0.13639584  0.86827252  0.08701131  1
  Na  Na4  1  0.13985045  0.85343280  0.41511750  1
  Na  Na5  1  0.14587473  0.82820581  0.71739348  1
  Na  Na6  1  0.62926214  0.37054592  0.08350674  1
  Na  Na7  1  0.63001098  0.36204205  0.41181628  1
  Na  Na8  1  0.63445805  0.37239242  0.75284655  1
  Na  Na9  1  0.64448630  0.86633588  0.09151433  1
  Na  Na10  1  0.61994854  0.86807860  0.41731228  1
  Na  Na11  1  0.63254386  0.86921411  0.75321669  1
  Na  Na12  1  0.35491024  0.13492393  0.24532865  1
  Na  Na13  1  0.36903899  0.12762474  0.57652433  1
  Na  Na14  1  0.37747790  0.13456830  0.91736217  1
  Na  Na15  1  0.37634945  0.62950019  0.25510289  1
  Na  Na16  1  0.36627820  0.64187704  0.59027947  1
  Na  Na17  1  0.35486887  0.63562512  0.90654931  1
  Na  Na18  1  0.84946435  0.13023810  0.22996085  1
  Na  Na19  1  0.86716153  0.13001470  0.58256294  1
  Na  Na20  1  0.86346751  0.13603663  0.91991323  1
  Na  Na21  1  0.87895136  0.64844065  0.27628955  1
  Na  Na22  1  0.86370913  0.63901899  0.58790233  1
  Na  Na23  1  0.86061934  0.63080227  0.90748922  1
  Na  Na24  1  0.48846543  0.02937809  0.76464165  1
  Na  Na25  1  0.99602197  0.00483496  0.74999870  1
  Na  Na26  1  0.98955648  0.51027233  0.08982911  1
  Na  Na27  1  0.49454318  0.52200152  0.40485510  1
  Na  Na28  1  1.01309802  -0.02108785  0.42422248  1
  Na  Na29  1  0.98765974  0.51123456  0.73369995  1
  Na  Na30  1  0.54872126  -0.01144965  0.02504645  1
  Na  Na31  1  0.97589059  0.00990612  0.08282420  1
  Na  Na32  1  0.45568154  0.51513395  0.73519508  1
  Na  Na33  1  0.52051595  0.48937567  0.58851157  1
  Na  Na34  1  0.01000829  0.98298146  0.91839755  1
  Na  Na35  1  0.01870952  0.99239783  0.25597113  1
  Na  Na36  1  -0.01540405  0.53883081  0.52251989  1
  Na  Na37  1  0.50427420  0.47844388  0.92934022  1
  Na  Na38  1  -0.00123472  0.49004615  0.27155960  1
  Na  Na39  1  -0.00041070  0.93993880  0.56889631  1
  Na  Na40  1  0.44635496  1.00571048  0.33398472  1
  Na  Na41  1  0.01242213  0.49202640  0.91580428  1
  Na  Na42  1  0.74099908  0.73790696  0.67475730  1
  Na  Na43  1  0.74998222  0.74722168  0.34393546  1
  Na  Na44  1  0.74440506  0.24738741  0.67011709  1
  Na  Na45  1  0.75376421  0.25147168  0.31709046  1
  Na  Na46  1  0.74413605  0.74275478  0.00433280  1
  Na  Na47  1  0.25393576  0.25358896  -0.00336649  1
  Na  Na48  1  0.72298435  0.22257879  0.01556333  1
  Na  Na49  1  0.26393125  0.26671458  0.65370226  1
  Na  Na50  1  0.27550261  0.76931275  0.33303474  1
  Na  Na51  1  0.26173824  0.76428529  -0.01238260  1
  Na  Na52  1  0.75103654  0.74301647  0.50416355  1
  Na  Na53  1  0.73246104  0.23836406  0.84387040  1
  Na  Na54  1  0.26778338  0.77277814  0.16495558  1
  Na  Na55  1  0.23579772  0.74059688  0.52016164  1
  Na  Na56  1  0.24066261  0.24554064  0.17732777  1
  Na  Na57  1  0.73766430  0.73640987  0.83734831  1
  Na  Na58  1  0.74973935  0.74210523  0.17635968  1
  Na  Na59  1  0.74550979  0.24768966  0.49884802  1
  Na  Na60  1  0.26309851  0.26730350  0.48715367  1
  Na  Na61  1  0.25696036  0.25821245  0.82653842  1
  Fe  Fe62  1  0.46094531  0.81541946  0.78997227  1
  Fe  Fe63  1  0.46577597  0.81422115  0.12303664  1
  Fe  Fe64  1  0.96718379  0.80610777  0.11923575  1
  Fe  Fe65  1  0.46562814  0.31092548  0.12216502  1
  Fe  Fe66  1  0.96402998  0.30482699  0.78360678  1
  Fe  Fe67  1  0.96336727  0.30790459  0.11899226  1
  Fe  Fe68  1  0.46956981  0.30042684  0.78826600  1
  Fe  Fe69  1  0.96385024  0.30765123  0.45321439  1
  Fe  Fe70  1  0.97180298  0.80040190  0.78062074  1
  Fe  Fe71  1  0.46161305  0.30936071  0.45106356  1
  Fe  Fe72  1  0.19863274  0.53586831  0.38953566  1
  Fe  Fe73  1  0.68717211  0.03271545  0.70888427  1
  Fe  Fe74  1  0.19520474  0.53791564  0.05171090  1
  Fe  Fe75  1  0.68988065  0.53108472  0.37636240  1
  Fe  Fe76  1  0.19930374  0.03393061  0.38021994  1
  Fe  Fe77  1  0.19356106  0.03458782  0.71388569  1
  Fe  Fe78  1  0.19835147  0.53485468  0.70829065  1
  Fe  Fe79  1  0.69537836  0.53604714  0.04604298  1
  Fe  Fe80  1  0.68558568  0.03320062  0.37625472  1
  Fe  Fe81  1  0.19439761  0.03438368  0.04995900  1
  Fe  Fe82  1  0.03393742  0.19288266  0.88149428  1
  Fe  Fe83  1  0.53291691  0.18736015  0.54114828  1
  Fe  Fe84  1  0.04075075  0.68990912  0.88003309  1
  Fe  Fe85  1  0.52947346  0.70584793  0.54633009  1
  Fe  Fe86  1  0.53511396  0.68775105  0.21028249  1
  Fe  Fe87  1  0.03071977  0.19037717  0.54603020  1
  Fe  Fe88  1  0.53511556  0.18535901  0.20914162  1
  Fe  Fe89  1  0.03689303  0.69494374  0.22023553  1
  Fe  Fe90  1  0.53332632  0.69227323  0.87677086  1
  Fe  Fe91  1  0.03511647  0.19475270  0.21755396  1
  Fe  Fe92  1  0.80577808  0.46645149  0.94920959  1
  Fe  Fe93  1  0.31309495  0.96691177  0.61777987  1
  Fe  Fe94  1  0.30857607  0.46810956  0.95745032  1
  Fe  Fe95  1  0.79408967  0.46903481  0.62080662  1
  Fe  Fe96  1  0.31210342  0.96598748  0.95360334  1
  Fe  Fe97  1  0.80747901  0.96625080  0.28631726  1
  Fe  Fe98  1  0.80105972  0.96693742  0.95229202  1
  Fe  Fe99  1  0.30661922  0.46520329  0.28882040  1
  Fe  Fe100  1  0.80583422  0.46080170  0.28475807  1
  Fe  Fe101  1  0.80679113  0.96142031  0.61760605  1
  S  S102  1  0.35545505  0.14418169  0.08424785  1
  S  S103  1  0.35600495  0.14752957  0.41634146  1
  S  S104  1  0.35520907  0.14289218  0.74779253  1
  S  S105  1  0.35750864  0.64321137  0.08207643  1
  S  S106  1  0.36153978  0.64175277  0.41609592  1
  S  S107  1  0.35808282  0.64872347  0.75609871  1
  S  S108  1  0.86296979  0.14035211  0.08057194  1
  S  S109  1  0.85690301  0.14122521  0.41425127  1
  S  S110  1  0.85899972  0.13798770  0.75043469  1
  S  S111  1  0.86359830  0.63925115  0.08197051  1
  S  S112  1  0.85605219  0.63311790  0.41614969  1
  S  S113  1  0.86276667  0.63927226  0.75147823  1
  S  S114  1  0.13629588  0.36212202  0.25045726  1
  S  S115  1  0.13627227  0.35580176  0.58519237  1
  S  S116  1  0.13877377  0.36041352  0.91729908  1
  S  S117  1  0.13937929  0.86067472  0.25111930  1
  S  S118  1  0.14450877  0.86605907  0.58016515  1
  S  S119  1  0.14032757  0.86174946  0.91730155  1
  S  S120  1  0.63973113  0.35878949  0.24995845  1
  S  S121  1  0.63806946  0.35375262  0.57897646  1
  S  S122  1  0.64296306  0.36005996  0.91779558  1
  S  S123  1  0.64424134  0.85540481  0.25013293  1
  S  S124  1  0.64492840  0.85723259  0.58414885  1
  S  S125  1  0.64188882  0.85558767  0.91792509  1
  S  S126  1  0.06742182  0.16982387  0.04177664  1
  S  S127  1  0.06696213  0.17073495  0.37740540  1
  S  S128  1  0.06450581  0.16825751  0.71040611  1
  S  S129  1  0.06852671  0.66917350  0.04311770  1
  S  S130  1  0.07158884  0.66412809  0.37592680  1
  S  S131  1  0.06393777  0.65511473  0.70649162  1
  S  S132  1  0.56487408  0.17864383  0.05140477  1
  S  S133  1  0.56234713  0.16826187  0.37280843  1
  S  S134  1  0.56737423  0.17085476  0.70637960  1
  S  S135  1  0.56929178  0.67022950  0.04176033  1
  S  S136  1  0.57150779  0.66873522  0.37511406  1
  S  S137  1  0.55813205  0.67067456  0.70868144  1
  S  S138  1  0.32463219  0.43081302  0.12333071  1
  S  S139  1  0.33994459  0.44257560  0.46356038  1
  S  S140  1  0.33207035  0.43203015  0.79327797  1
  S  S141  1  0.32855997  0.93706589  0.12129188  1
  S  S142  1  0.32951290  0.93649854  0.45390903  1
  S  S143  1  0.33007301  0.93914073  0.79363313  1
  S  S144  1  0.83442321  0.43406496  0.12407873  1
  S  S145  1  0.82342549  0.42701999  0.45725790  1
  S  S146  1  0.83526334  0.43094198  0.79136291  1
  S  S147  1  0.83695907  0.93100836  0.12463899  1
  S  S148  1  0.83103672  0.93779024  0.45496721  1
  S  S149  1  0.83538458  0.93019125  0.79220056  1
  S  S150  1  0.43102239  0.32994501  0.28912095  1
  S  S151  1  0.44150131  0.33026035  0.62449166  1
  S  S152  1  0.42975230  0.33315756  0.95889518  1
  S  S153  1  0.43309550  0.82073179  0.27900668  1
  S  S154  1  0.43647361  0.83745694  0.63220639  1
  S  S155  1  0.43676191  0.83178832  0.96125169  1
  S  S156  1  0.93077435  0.32588482  0.29059515  1
  S  S157  1  0.92487216  0.32852460  0.62326076  1
  S  S158  1  0.93374463  0.33269461  0.95638641  1
  S  S159  1  0.93619077  0.83283717  0.29054474  1
  S  S160  1  0.93227820  0.83064800  0.62519914  1
  S  S161  1  0.93315494  0.82799916  0.95524519  1
  S  S162  1  0.16035376  0.06806085  0.20546354  1
  S  S163  1  0.16870755  0.07198180  0.54262763  1
  S  S164  1  0.16602016  0.06776702  0.87574241  1
  S  S165  1  0.17129050  0.56877893  0.20982846  1
  S  S166  1  0.17648848  0.56873825  0.54640661  1
  S  S167  1  0.16904338  0.56306750  0.87737947  1
  S  S168  1  0.66707569  0.06155443  0.21100321  1
  S  S169  1  0.67401481  0.06755781  0.54284834  1
  S  S170  1  0.67321602  0.06475651  0.87488961  1
  S  S171  1  0.67730167  0.56961299  0.20944195  1
  S  S172  1  0.66463201  0.56760040  0.54021233  1
  S  S173  1  0.66940321  0.56564781  0.87504666  1
  O  O174  1  0.36286628  0.22403424  0.07792471  1
  O  O175  1  0.36532329  0.23119604  0.41907127  1
  O  O176  1  0.36435914  0.22358992  0.74210235  1
  O  O177  1  0.36683059  0.72376830  0.07709198  1
  O  O178  1  0.36944559  0.71475990  0.40147809  1
  O  O179  1  0.36606655  0.73132681  0.75888917  1
  O  O180  1  0.87693426  0.21681626  0.06753754  1
  O  O181  1  0.86747830  0.22051178  0.40696869  1
  O  O182  1  0.86829194  0.21651140  0.74135480  1
  O  O183  1  0.87311125  0.71654292  0.07076335  1
  O  O184  1  0.86547570  0.70697847  0.40195214  1
  O  O185  1  0.87602745  0.71588392  0.73912450  1
  O  O186  1  0.27626748  0.13381491  0.09333008  1
  O  O187  1  0.27798739  0.13721905  0.42623422  1
  O  O188  1  0.27429678  0.13453635  0.75360751  1
  O  O189  1  0.27892760  0.63498646  0.09204088  1
  O  O190  1  0.28371743  0.62981637  0.42580230  1
  O  O191  1  0.28267061  0.63172085  0.76775811  1
  O  O192  1  0.78607112  0.13422809  0.08789346  1
  O  O193  1  0.77809724  0.13323530  0.42245373  1
  O  O194  1  0.77954441  0.12879877  0.75667707  1
  O  O195  1  0.78431393  0.63324230  0.08984411  1
  O  O196  1  0.77236963  0.62409153  0.41795670  1
  O  O197  1  0.78804953  0.63608708  0.76506988  1
  O  O198  1  0.12807667  0.28225035  0.25534747  1
  O  O199  1  0.11759342  0.28091748  0.59943168  1
  O  O200  1  0.12872734  0.28190369  0.92622297  1
  O  O201  1  0.12712455  0.78349603  0.26261126  1
  O  O202  1  0.13490446  0.78858609  0.58595656  1
  O  O203  1  0.13035756  0.78429876  0.92869792  1
  O  O204  1  0.62898373  0.28062500  0.25896533  1
  O  O205  1  0.63414861  0.27044363  0.57872442  1
  O  O206  1  0.64002653  0.28309803  0.92631542  1
  O  O207  1  0.63923124  0.77447944  0.25487755  1
  O  O208  1  0.63599262  0.77802469  0.59385632  1
  O  O209  1  0.63388461  0.77170721  0.91761313  1
  O  O210  1  0.21328908  0.37216064  0.23859322  1
  O  O211  1  0.21217347  0.35244380  0.57297009  1
  O  O212  1  0.21891571  0.36903024  0.91230693  1
  O  O213  1  0.21629677  0.86745922  0.24301076  1
  O  O214  1  0.22599384  0.87881214  0.57665282  1
  O  O215  1  0.22032044  0.87179263  0.91423915  1
  O  O216  1  0.71997345  0.36740107  0.24434146  1
  O  O217  1  0.71714433  0.36750670  0.57134849  1
  O  O218  1  0.72000078  0.37526809  0.90593858  1
  O  O219  1  0.72322533  0.86797983  0.24144539  1
  O  O220  1  0.72650826  0.86402868  0.57836543  1
  O  O221  1  0.72086004  0.86471470  0.90846589  1
  O  O222  1  0.41425693  0.13559004  0.15138947  1
  O  O223  1  0.41624095  0.13375630  0.48110225  1
  O  O224  1  0.41291374  0.13251816  0.81308618  1
  O  O225  1  0.41708023  0.62988307  0.14616359  1
  O  O226  1  0.42199551  0.63718614  0.48545775  1
  O  O227  1  0.42084522  0.63511107  0.82211554  1
  O  O228  1  0.92367476  0.13330744  0.14944937  1
  O  O229  1  0.91575332  0.13351996  0.48301001  1
  O  O230  1  0.91764436  0.13190338  0.81997465  1
  O  O231  1  0.92222954  0.63066370  0.14966401  1
  O  O232  1  0.90774192  0.62801000  0.48703580  1
  O  O233  1  0.92626741  0.62916101  0.81676852  1
  O  O234  1  0.36033590  0.08681400  0.01430475  1
  O  O235  1  0.36115688  0.09578235  0.34542165  1
  O  O236  1  0.36203240  0.08639719  0.67746109  1
  O  O237  1  0.36005703  0.58699902  0.01020984  1
  O  O238  1  0.37140689  0.57568784  0.35127991  1
  O  O239  1  0.36760023  0.59562619  0.68761875  1
  O  O240  1  0.87472625  0.07772899  0.01519265  1
  O  O241  1  0.86525440  0.08247295  0.34641341  1
  O  O242  1  0.86996917  0.07814000  0.68435155  1
  O  O243  1  0.87158021  0.57830711  0.01446494  1
  O  O244  1  0.86634327  0.56852349  0.35087945  1
  O  O245  1  0.86570865  0.57689460  0.68246347  1
  O  O246  1  0.07476815  0.37200349  0.18356962  1
  O  O247  1  0.07563642  0.36448866  0.51780483  1
  O  O248  1  0.08150196  0.36701756  0.84738519  1
  O  O249  1  0.07863928  0.86680846  0.18153181  1
  O  O250  1  0.08893275  0.88056270  0.51459743  1
  O  O251  1  0.08227189  0.86743339  0.84766937  1
  O  O252  1  0.58254338  0.36929343  0.18291807  1
  O  O253  1  0.57919172  0.36335044  0.51076727  1
  O  O254  1  0.58098962  0.36784515  0.85083804  1
  O  O255  1  0.58521812  0.86301820  0.18245738  1
  O  O256  1  0.58818756  0.86513907  0.51833140  1
  O  O257  1  0.58255526  0.86751374  0.85257948  1
  O  O258  1  0.12943443  0.42010138  0.31911139  1
  O  O259  1  0.13582013  0.41953296  0.65354852  1
  O  O260  1  0.12731073  0.42042034  0.98325013  1
  O  O261  1  0.12739239  0.92249746  0.31625449  1
  O  O262  1  0.13464800  0.92503277  0.65031148  1
  O  O263  1  0.12652912  0.92259254  0.98259792  1
  O  O264  1  0.63225368  0.41767370  0.31874402  1
  O  O265  1  0.62816378  0.40707202  0.64671375  1
  O  O266  1  0.63450575  0.42119514  0.98543149  1
  O  O267  1  0.63620143  0.91115223  0.31927981  1
  O  O268  1  0.64214336  0.91544125  0.65538599  1
  O  O269  1  0.63765232  0.90756313  0.98906980  1
  O  O270  1  0.03557281  0.20207742  0.10511638  1
  O  O271  1  0.02832296  0.19908991  0.43722276  1
  O  O272  1  0.02720551  0.19911667  0.77161771  1
  O  O273  1  0.03227646  0.69875390  0.10399713  1
  O  O274  1  0.03508598  0.68423016  0.43310585  1
  O  O275  1  0.03792374  0.69764862  0.77508931  1
  O  O276  1  0.52398025  0.21162195  0.11238793  1
  O  O277  1  0.52444825  0.19966427  0.43248318  1
  O  O278  1  0.52962385  0.20006486  0.76473263  1
  O  O279  1  0.53268646  0.69837905  0.10217557  1
  O  O280  1  0.53716562  0.69047155  0.43613946  1
  O  O281  1  0.52342282  0.70956260  0.77009931  1
  O  O282  1  0.29663904  0.47143665  0.06450112  1
  O  O283  1  0.29938126  0.46682404  0.39415695  1
  O  O284  1  0.30581401  0.46944763  0.73479616  1
  O  O285  1  0.29682077  0.97198772  0.05721076  1
  O  O286  1  0.29528685  0.97817876  0.39795455  1
  O  O287  1  0.30199051  0.97832808  0.73391665  1
  O  O288  1  0.80574919  0.47200623  0.06394985  1
  O  O289  1  0.79401813  0.46209859  0.39562868  1
  O  O290  1  0.80813133  0.46321959  0.72964902  1
  O  O291  1  0.81484916  0.96382805  0.06264467  1
  O  O292  1  0.79322029  0.97551552  0.39589381  1
  O  O293  1  0.80635055  0.96745255  0.73242552  1
  O  O294  1  0.46798332  0.30259782  0.22873387  1
  O  O295  1  0.47833166  0.29420924  0.56408873  1
  O  O296  1  0.46505832  0.31176336  0.89838284  1
  O  O297  1  0.47495285  0.78619188  0.21989518  1
  O  O298  1  0.47397854  0.80925263  0.57377010  1
  O  O299  1  0.47454087  0.80274494  0.90140290  1
  O  O300  1  0.96765153  0.29607425  0.22927439  1
  O  O301  1  0.95781899  0.29808716  0.56028896  1
  O  O302  1  0.97039522  0.30172883  0.89542149  1
  O  O303  1  0.96345710  0.79606416  0.22305370  1
  O  O304  1  0.96003902  0.81243972  0.56137835  1
  O  O305  1  0.96969093  0.79855903  0.89464876  1
  O  O306  1  0.18365385  0.03679001  0.26816005  1
  O  O307  1  0.19882248  0.03794366  0.60447866  1
  O  O308  1  0.19618935  0.03304861  0.93729050  1
  O  O309  1  0.20074136  0.53211153  0.27002426  1
  O  O310  1  0.20194785  0.53063292  0.60569828  1
  O  O311  1  0.19786686  0.52751691  0.93983763  1
  O  O312  1  0.70080026  0.02692083  0.27509428  1
  O  O313  1  0.70325108  0.02803165  0.60209720  1
  O  O314  1  0.70449552  0.02619969  0.93291671  1
  O  O315  1  0.70226153  0.52753944  0.26610516  1
  O  O316  1  0.69254786  0.53083873  0.59961878  1
  O  O317  1  0.70261873  0.53511649  0.94188210  1
  O  O318  1  0.08208064  0.08675666  0.03492571  1
  O  O319  1  0.08827635  0.09027889  0.37438354  1
  O  O320  1  0.08079328  0.08668640  0.70656711  1
  O  O321  1  0.08376974  0.58598834  0.03779532  1
  O  O322  1  0.09399921  0.58127863  0.36078079  1
  O  O323  1  0.08844845  0.57848963  0.71561644  1
  O  O324  1  0.59874422  0.10997751  0.06598736  1
  O  O325  1  0.57837366  0.08654478  0.37020671  1
  O  O326  1  0.58836583  0.09098627  0.70556022  1
  O  O327  1  0.58737536  0.58815614  0.03391212  1
  O  O328  1  0.58782359  0.58520306  0.36173579  1
  O  O329  1  0.56128365  0.58819509  0.70424838  1
  O  O330  1  0.40263242  0.40772807  0.12462907  1
  O  O331  1  0.41850039  0.41843590  0.45745259  1
  O  O332  1  0.41359766  0.41078762  0.79872722  1
  O  O333  1  0.40499919  0.91034328  0.11754825  1
  O  O334  1  0.40580089  0.91722845  0.45048206  1
  O  O335  1  0.41250754  0.92393397  0.79947793  1
  O  O336  1  0.91853846  0.41964738  0.13013622  1
  O  O337  1  0.90602933  0.41150556  0.46421929  1
  O  O338  1  0.91941978  0.41417442  0.80132373  1
  O  O339  1  0.92236369  0.91706007  0.13871668  1
  O  O340  1  0.91148006  0.92812021  0.45448357  1
  O  O341  1  0.91808572  0.91258645  0.79751380  1
  O  O342  1  0.41276551  0.41195489  0.29683790  1
  O  O343  1  0.43401485  0.41199611  0.62783215  1
  O  O344  1  0.41092623  0.41614418  0.97065247  1
  O  O345  1  0.39727673  0.88691784  0.25934893  1
  O  O346  1  0.42009565  0.92047825  0.64106129  1
  O  O347  1  0.41800162  0.91295970  0.96450818  1
  O  O348  1  0.91133183  0.40612854  0.29161725  1
  O  O349  1  0.90364706  0.40864868  0.62871117  1
  O  O350  1  0.92011657  0.41621920  0.96283680  1
  O  O351  1  0.91698894  0.91439071  0.29127238  1
  O  O352  1  0.91353532  0.91580249  0.64244227  1
  O  O353  1  0.91657429  0.91041538  0.96116915  1
  O  O354  1  0.07517207  0.08329595  0.19271871  1
  O  O355  1  0.08521894  0.08703649  0.53604674  1
  O  O356  1  0.08212605  0.08277384  0.87074997  1
  O  O357  1  0.08873348  0.58580111  0.20242063  1
  O  O358  1  0.09844026  0.59178438  0.53848104  1
  O  O359  1  0.08422618  0.57485813  0.86902220  1
  O  O360  1  0.58977983  0.08621557  0.21464603  1
  O  O361  1  0.59583572  0.08999977  0.54144714  1
  O  O362  1  0.59370660  0.08172829  0.86946428  1
  O  O363  1  0.59855224  0.59265069  0.20528550  1
  O  O364  1  0.58410653  0.58953399  0.53660053  1
  O  O365  1  0.58892281  0.58604482  0.87325336  1
  O  O366  1  0.13927923  0.21925613  0.05469286  1
  O  O367  1  0.13469698  0.22600143  0.39279683  1
  O  O368  1  0.13552898  0.22041673  0.72786653  1
  O  O369  1  0.14004138  0.71965817  0.05864484  1
  O  O370  1  0.14171148  0.71750218  0.38993532  1
  O  O371  1  0.12910558  0.70307975  0.70723829  1
  O  O372  1  0.62627717  0.24062573  0.06438837  1
  O  O373  1  0.63518601  0.21856161  0.39018100  1
  O  O374  1  0.63903975  0.22394995  0.72246378  1
  O  O375  1  0.64243070  0.72220738  0.06080934  1
  O  O376  1  0.64346979  0.72182719  0.39362231  1
  O  O377  1  0.63582893  0.71432939  0.72727207  1
  O  O378  1  0.26762064  0.36215972  0.10458708  1
  O  O379  1  0.28953878  0.37626908  0.45965433  1
  O  O380  1  0.27778326  0.36138233  0.77682529  1
  O  O381  1  0.27139676  0.86821183  0.10402850  1
  O  O382  1  0.27373452  0.86715571  0.43829562  1
  O  O383  1  0.27883675  0.86915943  0.77758581  1
  O  O384  1  0.78514920  0.36173074  0.10645210  1
  O  O385  1  0.77300904  0.35403315  0.43983434  1
  O  O386  1  0.78550823  0.35957217  0.77907813  1
  O  O387  1  0.78794723  0.85746883  0.10830661  1
  O  O388  1  0.78343654  0.86432868  0.44030568  1
  O  O389  1  0.78418351  0.85879542  0.77718997  1
  O  O390  1  0.36007969  0.27753327  0.27201640  1
  O  O391  1  0.36593859  0.28285902  0.60515632  1
  O  O392  1  0.35779169  0.27973981  0.94000899  1
  O  O393  1  0.36981635  0.75956489  0.26640346  1
  O  O394  1  0.36498160  0.78644594  0.61669771  1
  O  O395  1  0.36715516  0.77925289  0.94664796  1
  O  O396  1  0.86144248  0.27328211  0.27600317  1
  O  O397  1  0.85657396  0.27428237  0.61145005  1
  O  O398  1  0.86126945  0.28342510  0.93941965  1
  O  O399  1  0.86531584  0.78368415  0.28082400  1
  O  O400  1  0.86231585  0.77908982  0.61471205  1
  O  O401  1  0.86184166  0.77653724  0.93968188  1
  O  O402  1  0.20947202  0.13926500  0.21777902  1
  O  O403  1  0.21816682  0.14409799  0.55685979  1
  O  O404  1  0.21411254  0.14103110  0.89056985  1
  O  O405  1  0.22253783  0.63915168  0.22367521  1
  O  O406  1  0.23376833  0.63489372  0.56037939  1
  O  O407  1  0.21576760  0.63796046  0.89719329  1
  O  O408  1  0.72211341  0.12950615  0.22534960  1
  O  O409  1  0.73040826  0.13654629  0.56067391  1
  O  O410  1  0.72728432  0.13713218  0.89399356  1
  O  O411  1  0.73474147  0.63859365  0.22943342  1
  O  O412  1  0.71963125  0.63729587  0.55567501  1
  O  O413  1  0.72246805  0.63734490  0.89182771  1
  O  O414  1  0.48778804  0.33110298  0.03005665  1
  O  O415  1  0.49076876  0.33023773  0.36080773  1
  O  O416  1  0.49506889  0.32741290  0.69807448  1
  O  O417  1  0.49732478  0.83662564  0.03442525  1
  O  O418  1  0.49170367  0.84172193  0.35253857  1
  O  O419  1  0.49473574  0.84027408  0.70679215  1
  O  O420  1  0.99260179  0.33364196  0.02883987  1
  O  O421  1  0.99123903  0.33148518  0.36348999  1
  O  O422  1  0.98813036  0.33249014  0.69494485  1
  O  O423  1  0.99224969  0.83036879  0.02838434  1
  O  O424  1  1.00048847  0.83971715  0.35884304  1
  O  O425  1  0.99622946  0.82987682  0.69538668  1
  O  O426  1  0.16124197  0.00637208  0.13446703  1
  O  O427  1  0.16535518  0.01191677  0.46995753  1
  O  O428  1  0.16307005  0.00929851  0.80311131  1
  O  O429  1  0.16697083  0.50794410  0.13618868  1
  O  O430  1  0.17553154  0.50594391  0.47378531  1
  O  O431  1  0.17354617  0.50544710  0.80756065  1
  O  O432  1  0.65807210  -0.00073829  0.14058212  1
  O  O433  1  0.66958365  0.00929781  0.46918840  1
  O  O434  1  0.67503545  0.00835094  0.80071991  1
  O  O435  1  0.67472162  0.51238689  0.13552435  1
  O  O436  1  0.65819071  0.50862524  0.46547870  1
  O  O437  1  0.66780335  0.50484728  0.80694926  1
  O  O438  1  0.00659287  0.16373837  0.30349606  1
  O  O439  1  0.00543735  0.16700060  0.63836441  1
  O  O440  1  0.00635434  0.16895768  0.97037165  1
  O  O441  1  0.01141300  0.66148820  0.30049657  1
  O  O442  1  -0.00558809  0.63858295  0.63966784  1
  O  O443  1  0.00976140  0.66564996  0.96954449  1
  O  O444  1  0.50479064  0.16692511  0.30020972  1
  O  O445  1  0.51022581  0.16492592  0.63154498  1
  O  O446  1  0.50431659  0.16095569  0.97875766  1
  O  O447  1  0.51332832  0.67234993  0.30422472  1
  O  O448  1  0.50537468  0.67672114  0.63644311  1
  O  O449  1  0.51123618  0.67102966  0.97029385  1
  O  O450  1  0.32843457  0.48896390  0.19664336  1
  O  O451  1  0.35542021  0.50936910  0.53124029  1
  O  O452  1  0.33734404  0.48970735  0.86846750  1
  O  O453  1  0.33573457  0.99818391  0.19142385  1
  O  O454  1  0.33363024  0.99317008  0.53030302  1
  O  O455  1  0.33152470  0.99852260  0.86693969  1
  O  O456  1  0.83770272  0.49207631  0.19766880  1
  O  O457  1  0.82305668  0.48635624  0.52869426  1
  O  O458  1  0.83758025  0.49228444  0.86354215  1
  O  O459  1  0.83167735  0.99014443  0.19439987  1
  O  O460  1  0.83428716  0.99283983  0.53084292  1
  O  O461  1  0.83971743  0.98919009  0.86588915  1
