# generated using pymatgen
data_Na31Fe20(SO4)36
_symmetry_space_group_name_H-M   'P 1'
_cell_length_a   18.07942153
_cell_length_b   18.07957125
_cell_length_c   19.71180774
_cell_angle_alpha   107.55876380
_cell_angle_beta   107.58262973
_cell_angle_gamma   90.74665051
_symmetry_Int_Tables_number   1
_chemical_formula_structural   Na31Fe20(SO4)36
_chemical_formula_sum   'Na62 Fe40 S72 O288'
_cell_volume   5817.39144589
_cell_formula_units_Z   2
loop_
 _symmetry_equiv_pos_site_id
 _symmetry_equiv_pos_as_xyz
  1  'x, y, z'
loop_
 _atom_site_type_symbol
 _atom_site_label
 _atom_site_symmetry_multiplicity
 _atom_site_fract_x
 _atom_site_fract_y
 _atom_site_fract_z
 _atom_site_occupancy
  Na  Na0  1  0.12384102  0.38061911  0.08137924  1
  Na  Na1  1  0.14126548  0.36206773  0.41424252  1
  Na  Na2  1  0.13297507  0.37829040  0.75672003  1
  Na  Na3  1  0.13292915  0.85309899  0.07577902  1
  Na  Na4  1  0.13883022  0.85878089  0.41778490  1
  Na  Na5  1  0.13263541  0.86894726  0.75129598  1
  Na  Na6  1  0.63276629  0.36608870  0.08279972  1
  Na  Na7  1  0.63539028  0.36880224  0.41791819  1
  Na  Na8  1  0.63403460  0.36663328  0.75248605  1
  Na  Na9  1  0.60646000  0.86550275  0.07604581  1
  Na  Na10  1  0.63811459  0.85728626  0.40781178  1
  Na  Na11  1  0.64203138  0.86704753  0.76190010  1
  Na  Na12  1  0.36349294  0.13411255  0.24915123  1
  Na  Na13  1  0.36448680  0.13254032  0.57874958  1
  Na  Na14  1  0.37027353  0.13392512  0.91892784  1
  Na  Na15  1  0.33483460  0.63602467  0.21744578  1
  Na  Na16  1  0.37212179  0.64798165  0.59424393  1
  Na  Na17  1  0.38029210  0.67844106  0.93928231  1
  Na  Na18  1  0.86522394  0.12622999  0.25138986  1
  Na  Na19  1  0.87363602  0.12746080  0.58851419  1
  Na  Na20  1  0.85587471  0.11942512  0.90432792  1
  Na  Na21  1  0.85678674  0.64941222  0.25392175  1
  Na  Na22  1  0.86620048  0.63172765  0.58321669  1
  Na  Na23  1  0.86617769  0.64328669  0.92177409  1
  Na  Na24  1  0.95828550  0.00305365  0.41742609  1
  Na  Na25  1  0.50463493  0.57639532  0.77167688  1
  Na  Na26  1  0.48411627  0.51473901  0.41457804  1
  Na  Na27  1  0.51454541  -0.01556893  0.34223703  1
  Na  Na28  1  0.99415324  0.51075349  0.41727320  1
  Na  Na29  1  1.00573985  0.53631496  0.89237191  1
  Na  Na30  1  0.49616187  0.51321471  0.07825292  1
  Na  Na31  1  0.93574425  -0.00321146  0.06265454  1
  Na  Na32  1  0.51538734  -0.01689865  0.75657541  1
  Na  Na33  1  0.00724658  0.49062824  0.59807489  1
  Na  Na34  1  0.00005935  0.50304352  0.23404143  1
  Na  Na35  1  0.50863173  0.48880386  0.58389472  1
  Na  Na36  1  0.00305308  0.98243434  0.24834947  1
  Na  Na37  1  0.54263914  0.99021590  0.58690804  1
  Na  Na38  1  0.48960618  0.51571888  0.24378137  1
  Na  Na39  1  0.47927116  0.53106433  0.90995574  1
  Na  Na40  1  0.49548335  0.94150664  0.90917908  1
  Na  Na41  1  0.00337273  0.98333151  0.90796016  1
  Na  Na42  1  0.75566121  0.75392134  0.66468122  1
  Na  Na43  1  0.24143350  0.25138884  0.00835671  1
  Na  Na44  1  0.74438462  0.24417339  0.34084988  1
  Na  Na45  1  0.24216079  0.73257109  0.02001226  1
  Na  Na46  1  0.24981760  0.74964197  0.33479964  1
  Na  Na47  1  0.24192486  0.24547404  0.66755925  1
  Na  Na48  1  0.74394308  0.24215989  0.00171603  1
  Na  Na49  1  0.73363832  0.75601793  -0.00302706  1
  Na  Na50  1  0.26845394  0.76355516  0.66082548  1
  Na  Na51  1  0.74104880  0.23267732  0.67505278  1
  Na  Na52  1  0.24367860  0.24762055  0.83852330  1
  Na  Na53  1  0.74647236  0.23866760  0.50630387  1
  Na  Na54  1  0.24549795  0.74994475  0.83798317  1
  Na  Na55  1  0.75618090  0.76040855  0.83496479  1
  Na  Na56  1  0.25842689  0.25590863  0.48893927  1
  Na  Na57  1  0.23992790  0.24480924  0.18214645  1
  Na  Na58  1  0.75193220  0.76977371  0.17509179  1
  Na  Na59  1  0.76285020  0.75943682  0.48730930  1
  Na  Na60  1  0.73912926  0.23318346  0.83610584  1
  Na  Na61  1  0.74900689  0.24533216  0.17164584  1
  Fe  Fe62  1  0.46372764  0.30546733  0.44802872  1
  Fe  Fe63  1  0.96741161  0.30816207  0.45139998  1
  Fe  Fe64  1  0.96667912  0.80976791  0.45658170  1
  Fe  Fe65  1  0.46280488  0.80996534  0.45165743  1
  Fe  Fe66  1  0.96393257  0.30649328  0.11790216  1
  Fe  Fe67  1  0.96418466  0.30714452  0.78507478  1
  Fe  Fe68  1  0.97002973  0.79202020  0.79079499  1
  Fe  Fe69  1  0.96476439  0.80080939  0.11472423  1
  Fe  Fe70  1  0.46481657  0.30908603  0.78425292  1
  Fe  Fe71  1  0.46749710  0.30672998  0.11802915  1
  Fe  Fe72  1  0.19411923  0.03441418  0.38027776  1
  Fe  Fe73  1  0.69225032  0.53281659  0.04763820  1
  Fe  Fe74  1  0.69999520  0.02583840  0.04236888  1
  Fe  Fe75  1  0.19109164  0.03672038  0.05078592  1
  Fe  Fe76  1  0.18830962  0.03423456  0.71098284  1
  Fe  Fe77  1  0.70403918  0.02512167  0.36948249  1
  Fe  Fe78  1  0.69079921  0.53805085  0.37921722  1
  Fe  Fe79  1  0.69468511  0.53271888  0.71597996  1
  Fe  Fe80  1  0.19720593  0.53833405  0.71644218  1
  Fe  Fe81  1  0.19238385  0.53656791  0.38383355  1
  Fe  Fe82  1  0.03655362  0.68677006  0.21174338  1
  Fe  Fe83  1  0.52663159  0.70556147  0.21231766  1
  Fe  Fe84  1  0.03589482  0.19370195  0.54735174  1
  Fe  Fe85  1  0.53514986  0.18852342  0.20778858  1
  Fe  Fe86  1  0.53255689  0.18918350  0.87553491  1
  Fe  Fe87  1  0.03423458  0.19294180  0.87889317  1
  Fe  Fe88  1  0.03928892  0.69371326  0.54934481  1
  Fe  Fe89  1  0.03534606  0.19179757  0.21410028  1
  Fe  Fe90  1  0.53523690  0.69702841  0.54752776  1
  Fe  Fe91  1  0.53654675  0.18611827  0.54261140  1
  Fe  Fe92  1  0.30685393  0.97071111  0.95731857  1
  Fe  Fe93  1  0.30078390  0.46886743  0.95367066  1
  Fe  Fe94  1  0.80584682  0.46618859  0.28383272  1
  Fe  Fe95  1  0.80769993  0.96438995  0.62625344  1
  Fe  Fe96  1  0.30181680  0.96427153  0.27840768  1
  Fe  Fe97  1  0.80857187  0.46282064  0.61995408  1
  Fe  Fe98  1  0.30297037  0.46863539  0.28054697  1
  Fe  Fe99  1  0.31146392  0.46658188  0.62076855  1
  Fe  Fe100  1  0.80958885  0.46471499  0.95345399  1
  Fe  Fe101  1  0.31188109  0.96427747  0.62057706  1
  S  S102  1  0.35727341  0.14638540  0.08427867  1
  S  S103  1  0.36087663  0.13880196  0.41347413  1
  S  S104  1  0.35561261  0.14425231  0.74658484  1
  S  S105  1  0.36986870  0.63195191  0.07951357  1
  S  S106  1  0.36068183  0.63889695  0.41888599  1
  S  S107  1  0.35860977  0.64287696  0.74768325  1
  S  S108  1  0.85856969  0.14473661  0.08617691  1
  S  S109  1  0.86261266  0.14452454  0.41809174  1
  S  S110  1  0.86161699  0.13985644  0.74939182  1
  S  S111  1  0.85738611  0.63840099  0.08548269  1
  S  S112  1  0.86307848  0.63749724  0.41661447  1
  S  S113  1  0.85933859  0.63232183  0.75159386  1
  S  S114  1  0.13706756  0.36235424  0.24927133  1
  S  S115  1  0.14156314  0.36067453  0.58136849  1
  S  S116  1  0.13709537  0.36033538  0.91532727  1
  S  S117  1  0.13877026  0.86073399  0.25097424  1
  S  S118  1  0.14324182  0.85950830  0.58536796  1
  S  S119  1  0.14231793  0.86511363  0.91478743  1
  S  S120  1  0.64089877  0.36048498  0.25035991  1
  S  S121  1  0.64028093  0.35725028  0.58173136  1
  S  S122  1  0.64047158  0.35698784  0.91494219  1
  S  S123  1  0.63344985  0.86012447  0.25315109  1
  S  S124  1  0.64285881  0.85582597  0.57777969  1
  S  S125  1  0.63483974  0.85786398  0.92020099  1
  S  S126  1  0.06560855  0.17296211  0.04310148  1
  S  S127  1  0.06750537  0.17087981  0.37629486  1
  S  S128  1  0.07147656  0.17649581  0.71051022  1
  S  S129  1  0.06220411  0.66376966  0.04636971  1
  S  S130  1  0.06477275  0.66412709  0.37435050  1
  S  S131  1  0.06682221  0.66854321  0.70532047  1
  S  S132  1  0.57316336  0.17117244  0.04219660  1
  S  S133  1  0.57232516  0.17469371  0.37579789  1
  S  S134  1  0.56104769  0.16713380  0.70681774  1
  S  S135  1  0.57351667  0.66380670  0.04866161  1
  S  S136  1  0.56631137  0.66900606  0.37505729  1
  S  S137  1  0.57752871  0.66902824  0.70458949  1
  S  S138  1  0.33483494  0.42875507  0.12483949  1
  S  S139  1  0.33379698  0.43403118  0.45857831  1
  S  S140  1  0.32949650  0.43012889  0.78871258  1
  S  S141  1  0.32555809  0.93795980  0.12205787  1
  S  S142  1  0.33051939  0.93531590  0.45713079  1
  S  S143  1  0.32927399  0.94235429  0.78905903  1
  S  S144  1  0.82695217  0.43091628  0.12309881  1
  S  S145  1  0.83285865  0.43369715  0.45713199  1
  S  S146  1  0.82761988  0.42841186  0.78869209  1
  S  S147  1  0.83006358  0.93325472  0.12877159  1
  S  S148  1  0.83152260  0.93142834  0.46278816  1
  S  S149  1  0.83741889  0.92201312  0.79055337  1
  S  S150  1  0.43436998  0.33362861  0.28974357  1
  S  S151  1  0.43520526  0.32971096  0.62026121  1
  S  S152  1  0.43274168  0.32988385  0.95524133  1
  S  S153  1  0.42071898  0.82306247  0.29028448  1
  S  S154  1  0.44093796  0.83628041  0.62454790  1
  S  S155  1  0.41294343  0.84256542  0.95809520  1
  S  S156  1  0.93511725  0.33516879  0.29193151  1
  S  S157  1  0.93419151  0.33082592  0.62194134  1
  S  S158  1  0.92670635  0.32321692  0.95416221  1
  S  S159  1  0.94280434  0.82893378  0.29338414  1
  S  S160  1  0.92996936  0.82090407  0.62347213  1
  S  S161  1  0.94087686  0.82592199  0.95446556  1
  S  S162  1  0.16217595  0.06509778  0.20616742  1
  S  S163  1  0.16746716  0.06731653  0.53936137  1
  S  S164  1  0.17210834  0.07310127  0.87878099  1
  S  S165  1  0.16829199  0.56505291  0.21470032  1
  S  S166  1  0.17221748  0.56533454  0.54400134  1
  S  S167  1  0.18025398  0.57268888  0.87592746  1
  S  S168  1  0.67640159  0.07504598  0.20854245  1
  S  S169  1  0.67654395  0.06494668  0.53897479  1
  S  S170  1  0.66725292  0.06670074  0.87731862  1
  S  S171  1  0.66762169  0.56550024  0.20992590  1
  S  S172  1  0.66878157  0.56398034  0.54027255  1
  S  S173  1  0.66924018  0.56176891  0.87967199  1
  O  O174  1  0.36909429  0.22410502  0.07372699  1
  O  O175  1  0.37035763  0.21774647  0.40574734  1
  O  O176  1  0.36716406  0.22249816  0.73707320  1
  O  O177  1  0.38211105  0.70519577  0.06574565  1
  O  O178  1  0.36847417  0.71776435  0.41173538  1
  O  O179  1  0.37164846  0.71285165  0.72897531  1
  O  O180  1  0.86340717  0.22786159  0.08662930  1
  O  O181  1  0.87146560  0.22529772  0.41178773  1
  O  O182  1  0.87484524  0.21618243  0.73498219  1
  O  O183  1  0.86306999  0.71799693  0.07748600  1
  O  O184  1  0.87305253  0.71719401  0.41245075  1
  O  O185  1  0.87018862  0.71281612  0.74541000  1
  O  O186  1  0.27800839  0.14099784  0.09287058  1
  O  O187  1  0.28222718  0.13046687  0.42290679  1
  O  O188  1  0.27543789  0.13858891  0.75274367  1
  O  O189  1  0.29469049  0.62129527  0.09011169  1
  O  O190  1  0.28442443  0.62713293  0.42955320  1
  O  O191  1  0.27533120  0.63490659  0.74760212  1
  O  O192  1  0.77903395  0.13002226  0.09278176  1
  O  O193  1  0.78075519  0.13444611  0.41932234  1
  O  O194  1  0.78430658  0.13604979  0.75809784  1
  O  O195  1  0.77965250  0.62737823  0.09610687  1
  O  O196  1  0.78547643  0.62753515  0.42763022  1
  O  O197  1  0.77851338  0.62719818  0.75847103  1
  O  O198  1  0.12795538  0.28146087  0.25228415  1
  O  O199  1  0.13246629  0.28102802  0.58768843  1
  O  O200  1  0.13029391  0.27763263  0.91919259  1
  O  O201  1  0.13133831  0.78346432  0.26211800  1
  O  O202  1  0.13546438  0.78010777  0.59343494  1
  O  O203  1  0.14926085  0.79178295  0.93065651  1
  O  O204  1  0.63174229  0.28179704  0.25864116  1
  O  O205  1  0.63252856  0.27708585  0.58775569  1
  O  O206  1  0.62998699  0.27663189  0.92048153  1
  O  O207  1  0.61523106  0.78606923  0.27213382  1
  O  O208  1  0.63479754  0.77298433  0.57837571  1
  O  O209  1  0.61137319  0.78962372  0.93719679  1
  O  O210  1  0.21532579  0.37299018  0.24030550  1
  O  O211  1  0.22092335  0.37034476  0.57417197  1
  O  O212  1  0.21436530  0.36866491  0.90226564  1
  O  O213  1  0.21615621  0.87123222  0.24162874  1
  O  O214  1  0.22320350  0.87185073  0.58097199  1
  O  O215  1  0.21433815  0.88725144  0.89802084  1
  O  O216  1  0.72050608  0.36916767  0.24284405  1
  O  O217  1  0.71822299  0.36713455  0.57166712  1
  O  O218  1  0.71890954  0.36399391  0.90530035  1
  O  O219  1  0.71548915  0.86555906  0.25857759  1
  O  O220  1  0.72249658  0.86631851  0.57027994  1
  O  O221  1  0.71496799  0.85710095  0.91624117  1
  O  O222  1  0.41568111  0.14102437  0.15350798  1
  O  O223  1  0.42010883  0.13160076  0.48183354  1
  O  O224  1  0.41268492  0.13757895  0.81616388  1
  O  O225  1  0.43279511  0.62580929  0.15121573  1
  O  O226  1  0.42328151  0.62957209  0.48527381  1
  O  O227  1  0.41099484  0.63786717  0.81935005  1
  O  O228  1  0.91758513  0.13547017  0.15436098  1
  O  O229  1  0.91708775  0.14032824  0.49086129  1
  O  O230  1  0.92213103  0.13505846  0.81820034  1
  O  O231  1  0.91735003  0.63021531  0.15274900  1
  O  O232  1  0.92416619  0.62352777  0.48068822  1
  O  O233  1  0.91571712  0.61839571  0.81509736  1
  O  O234  1  0.36342640  0.08630829  0.01654068  1
  O  O235  1  0.36784932  0.07928220  0.34548708  1
  O  O236  1  0.36359803  0.08406757  0.67941920  1
  O  O237  1  0.38370380  0.56567706  0.01740532  1
  O  O238  1  0.36951684  0.57963327  0.35019517  1
  O  O239  1  0.37155403  0.57445624  0.68500908  1
  O  O240  1  0.86913863  0.09212165  0.01827041  1
  O  O241  1  0.87829641  0.08666817  0.35581302  1
  O  O242  1  0.86816942  0.07693379  0.68299536  1
  O  O243  1  0.86329882  0.58077963  0.01595079  1
  O  O244  1  0.86757590  0.58002243  0.34560886  1
  O  O245  1  0.86105012  0.57690236  0.67816142  1
  O  O246  1  0.07638771  0.37425526  0.18355834  1
  O  O247  1  0.08276859  0.36880845  0.51276857  1
  O  O248  1  0.07592819  0.36648594  0.84664442  1
  O  O249  1  0.07726371  0.86983671  0.18477620  1
  O  O250  1  0.08511980  0.86403967  0.51551335  1
  O  O251  1  0.07690260  0.86161232  0.84451549  1
  O  O252  1  0.58285967  0.36818529  0.18178488  1
  O  O253  1  0.57957423  0.36743881  0.51541634  1
  O  O254  1  0.58090496  0.36681219  0.84823725  1
  O  O255  1  0.57944317  0.85967708  0.18184306  1
  O  O256  1  0.58423125  0.86529560  0.50910277  1
  O  O257  1  0.58077840  0.87315447  0.85438553  1
  O  O258  1  0.13054278  0.41834556  0.31952129  1
  O  O259  1  0.13115467  0.41889778  0.64844921  1
  O  O260  1  0.13143799  0.41586634  0.98288836  1
  O  O261  1  0.13153711  0.92155853  0.31958490  1
  O  O262  1  0.13189727  0.91757838  0.65217852  1
  O  O263  1  0.12705436  0.92768075  0.97735911  1
  O  O264  1  0.63323295  0.41997427  0.31810777  1
  O  O265  1  0.63286289  0.41484427  0.65075558  1
  O  O266  1  0.63490658  0.41406094  0.98472198  1
  O  O267  1  0.62090173  0.92548653  0.31748602  1
  O  O268  1  0.63328825  0.91065296  0.64512771  1
  O  O269  1  0.63216672  0.92865186  0.98966490  1
  O  O270  1  0.02734144  0.20145041  0.10351105  1
  O  O271  1  0.03068730  0.19991608  0.43748242  1
  O  O272  1  0.03343146  0.20387259  0.77013470  1
  O  O273  1  0.02928824  0.70545331  0.11176056  1
  O  O274  1  0.03302368  0.69786055  0.43819386  1
  O  O275  1  0.02780858  0.69426735  0.76296457  1
  O  O276  1  0.53382536  0.20007695  0.10177672  1
  O  O277  1  0.53272199  0.20158760  0.43527479  1
  O  O278  1  0.52466761  0.20457857  0.76730544  1
  O  O279  1  0.55324086  0.68914650  0.11976070  1
  O  O280  1  0.52547777  0.69748780  0.43214005  1
  O  O281  1  0.55188965  0.69388692  0.76979410  1
  O  O282  1  0.30432280  0.45233134  0.05807255  1
  O  O283  1  0.30112178  0.46593534  0.39527207  1
  O  O284  1  0.29863733  0.46586709  0.72733847  1
  O  O285  1  0.29009674  0.97703361  0.05995079  1
  O  O286  1  0.30164292  0.97237430  0.39611294  1
  O  O287  1  0.29288364  0.98151603  0.72966514  1
  O  O288  1  0.79654421  0.46511362  0.06097681  1
  O  O289  1  0.80238335  0.46804487  0.39503596  1
  O  O290  1  0.79572647  0.46316324  0.72620702  1
  O  O291  1  0.80029511  0.97097275  0.06750655  1
  O  O292  1  0.80936664  0.97593180  0.40895777  1
  O  O293  1  0.81217557  0.94649499  0.72205647  1
  O  O294  1  0.47191611  0.30413944  0.22986342  1
  O  O295  1  0.47143165  0.29734447  0.55929578  1
  O  O296  1  0.46914934  0.29854323  0.89437326  1
  O  O297  1  0.45197475  0.78787392  0.22739821  1
  O  O298  1  0.47086746  0.80206050  0.55756331  1
  O  O299  1  0.42132323  0.82043326  0.88329754  1
  O  O300  1  0.97015799  0.30298710  0.23077969  1
  O  O301  1  0.97327257  0.30203984  0.56242737  1
  O  O302  1  0.96561640  0.29558555  0.89481865  1
  O  O303  1  0.97476728  0.79076118  0.23019464  1
  O  O304  1  0.96969028  0.79371320  0.56355120  1
  O  O305  1  0.97591008  0.78715224  0.89511501  1
  O  O306  1  0.19666513  0.03231737  0.26942992  1
  O  O307  1  0.19560099  0.03165341  0.60060759  1
  O  O308  1  0.20600583  0.04089502  0.94232570  1
  O  O309  1  0.20163280  0.53328984  0.28118311  1
  O  O310  1  0.20118091  0.52672043  0.60324714  1
  O  O311  1  0.20988047  0.53364251  0.93389900  1
  O  O312  1  0.69875588  0.03693055  0.26660790  1
  O  O313  1  0.70444995  0.02541434  0.59622411  1
  O  O314  1  0.69483602  0.04374327  0.94683592  1
  O  O315  1  0.70155982  0.53019775  0.27255325  1
  O  O316  1  0.69683813  0.52440935  0.59876703  1
  O  O317  1  0.70663802  0.52327239  0.93852626  1
  O  O318  1  0.08576218  0.09238733  0.03925277  1
  O  O319  1  0.08459260  0.08881555  0.36878171  1
  O  O320  1  0.09559535  0.09849647  0.70858596  1
  O  O321  1  0.08322417  0.58859417  0.05340937  1
  O  O322  1  0.07972207  0.58114722  0.37205365  1
  O  O323  1  0.08950383  0.58845486  0.70032031  1
  O  O324  1  0.59838694  0.09353045  0.04040903  1
  O  O325  1  0.59644889  0.09650761  0.37290257  1
  O  O326  1  0.57155397  0.08649157  0.70466215  1
  O  O327  1  0.58748973  0.57764001  0.03576468  1
  O  O328  1  0.57762431  0.58413008  0.36742778  1
  O  O329  1  0.59158233  0.58264005  0.69041970  1
  O  O330  1  0.41940821  0.41352588  0.13445115  1
  O  O331  1  0.41679245  0.41783813  0.46222820  1
  O  O332  1  0.41109015  0.41207917  0.79153072  1
  O  O333  1  0.40541784  0.92703867  0.12873416  1
  O  O334  1  0.41306948  0.91943937  0.46539644  1
  O  O335  1  0.41034848  0.93526273  0.79064842  1
  O  O336  1  0.90767216  0.41098519  0.12774131  1
  O  O337  1  0.91634459  0.41907231  0.46391136  1
  O  O338  1  0.90893079  0.41157796  0.79305616  1
  O  O339  1  0.90724903  0.90525920  0.12100401  1
  O  O340  1  0.91295220  0.91136083  0.46640249  1
  O  O341  1  0.91583308  0.89109602  0.79642404  1
  O  O342  1  0.41617857  0.41578251  0.29502153  1
  O  O343  1  0.41929116  0.41138446  0.62276532  1
  O  O344  1  0.41453364  0.41068611  0.95906879  1
  O  O345  1  0.40095463  0.90263724  0.28895842  1
  O  O346  1  0.41973270  0.91725074  0.62473531  1
  O  O347  1  0.40797645  0.93277517  0.98057781  1
  O  O348  1  0.91850399  0.41754412  0.29556793  1
  O  O349  1  0.91514787  0.41161643  0.62333709  1
  O  O350  1  0.90321467  0.40145493  0.95515928  1
  O  O351  1  0.94097612  0.91241128  0.30119067  1
  O  O352  1  0.90829430  0.89975543  0.62708111  1
  O  O353  1  0.93256092  0.90759617  0.95652071  1
  O  O354  1  0.08094001  0.08256193  0.20577832  1
  O  O355  1  0.08580910  0.08658874  0.53168258  1
  O  O356  1  0.09180622  0.09102584  0.87835217  1
  O  O357  1  0.08630773  0.58110946  0.21258217  1
  O  O358  1  0.08923129  0.58071023  0.53744845  1
  O  O359  1  0.10305382  0.59536979  0.87382979  1
  O  O360  1  0.59499120  0.09457215  0.19631839  1
  O  O361  1  0.59532175  0.08523668  0.53766388  1
  O  O362  1  0.58487579  0.08874870  0.86769469  1
  O  O363  1  0.58558060  0.57941864  0.20719734  1
  O  O364  1  0.58598563  0.58015470  0.53292418  1
  O  O365  1  0.58887045  0.57171214  0.87977066  1
  O  O366  1  0.13577038  0.22787165  0.06176207  1
  O  O367  1  0.13827914  0.22326042  0.39326631  1
  O  O368  1  0.13926814  0.23346616  0.72598364  1
  O  O369  1  0.12843924  0.71820575  0.05466631  1
  O  O370  1  0.13587855  0.71133564  0.38404902  1
  O  O371  1  0.13493229  0.72428107  0.72060471  1
  O  O372  1  0.64126381  0.22890625  0.05961114  1
  O  O373  1  0.64128943  0.23207243  0.39530532  1
  O  O374  1  0.63494915  0.21672455  0.72383629  1
  O  O375  1  0.64477524  0.71207578  0.05925432  1
  O  O376  1  0.64093183  0.71591618  0.39608758  1
  O  O377  1  0.64875080  0.71648850  0.71208530  1
  O  O378  1  0.28662579  0.35976252  0.12050583  1
  O  O379  1  0.28534805  0.36297542  0.44783682  1
  O  O380  1  0.27754772  0.35910557  0.77309857  1
  O  O381  1  0.27197249  0.86770749  0.10445258  1
  O  O382  1  0.27899624  0.86363321  0.43932139  1
  O  O383  1  0.28079747  0.86800211  0.76914039  1
  O  O384  1  0.77385916  0.36165951  0.11024302  1
  O  O385  1  0.78308746  0.36157461  0.44236620  1
  O  O386  1  0.77591845  0.35702701  0.77342070  1
  O  O387  1  0.77403115  0.86628503  0.11531562  1
  O  O388  1  0.77727371  0.86108028  0.44144267  1
  O  O389  1  0.77919011  0.85754295  0.78061626  1
  O  O390  1  0.36417535  0.28156808  0.27471358  1
  O  O391  1  0.36230111  0.27984691  0.60408336  1
  O  O392  1  0.36230525  0.27738500  0.94071643  1
  O  O393  1  0.35358574  0.77333879  0.28552842  1
  O  O394  1  0.37192846  0.78513874  0.61366502  1
  O  O395  1  0.33817351  0.80385108  0.95533390  1
  O  O396  1  0.86379368  0.28561547  0.27936881  1
  O  O397  1  0.86317058  0.27851007  0.60484872  1
  O  O398  1  0.85886173  0.26704237  0.93949967  1
  O  O399  1  0.86608308  0.78683109  0.27762962  1
  O  O400  1  0.85943843  0.76470905  0.60264317  1
  O  O401  1  0.86545383  0.78061354  0.94037557  1
  O  O402  1  0.21198793  0.13555168  0.21726445  1
  O  O403  1  0.22052669  0.13849701  0.55554164  1
  O  O404  1  0.22357219  0.14435482  0.89199373  1
  O  O405  1  0.21591785  0.63887655  0.23206805  1
  O  O406  1  0.22302245  0.63635376  0.56043868  1
  O  O407  1  0.23689388  0.64041173  0.88979797  1
  O  O408  1  0.73102028  0.14727162  0.23013005  1
  O  O409  1  0.72892044  0.13797169  0.55837196  1
  O  O410  1  0.71997144  0.13677300  0.88925346  1
  O  O411  1  0.71651193  0.63654663  0.22308985  1
  O  O412  1  0.72093638  0.63503901  0.55801807  1
  O  O413  1  0.71738110  0.63555894  0.89588057  1
  O  O414  1  0.49275970  0.33329925  0.02832440  1
  O  O415  1  0.49393683  0.33759639  0.36342234  1
  O  O416  1  0.49298482  0.33187845  0.69315822  1
  O  O417  1  0.47906952  0.82999123  0.01548076  1
  O  O418  1  0.48637493  0.83431412  0.36289477  1
  O  O419  1  0.50578322  0.84501116  0.69301158  1
  O  O420  1  0.98658354  0.32976678  0.02800693  1
  O  O421  1  0.99532466  0.33980707  0.36509029  1
  O  O422  1  0.99190894  0.33447746  0.69509823  1
  O  O423  1  0.99588485  0.82665137  0.02909117  1
  O  O424  1  0.99836930  0.82243080  0.36529523  1
  O  O425  1  0.98761174  0.81976173  0.69523680  1
  O  O426  1  0.15576694  0.00396498  0.13375396  1
  O  O427  1  0.16673563  0.00779968  0.46756807  1
  O  O428  1  0.16741559  0.01318591  0.80643112  1
  O  O429  1  0.17083096  0.50470992  0.14828416  1
  O  O430  1  0.16985874  0.50572441  0.47080548  1
  O  O431  1  0.17486377  0.51153027  0.80094257  1
  O  O432  1  0.68161219  0.01880211  0.13674948  1
  O  O433  1  0.67140912  0.01113951  0.46329951  1
  O  O434  1  0.66432939  0.00185040  0.81113406  1
  O  O435  1  0.66481904  0.50379553  0.13811698  1
  O  O436  1  0.66739986  0.50649180  0.46633956  1
  O  O437  1  0.66672338  0.50637947  0.80440025  1
  O  O438  1  0.00746146  0.17151845  0.30499871  1
  O  O439  1  0.01177445  0.17112015  0.63720047  1
  O  O440  1  0.00705873  0.16924738  0.97032347  1
  O  O441  1  0.00237428  0.65759441  0.30205241  1
  O  O442  1  0.00742338  0.66039767  0.62968784  1
  O  O443  1  -0.00300200  0.65433897  0.97639652  1
  O  O444  1  0.51350684  0.17205545  0.30309499  1
  O  O445  1  0.50555120  0.16802305  0.63291973  1
  O  O446  1  0.51275753  0.16752073  0.96990198  1
  O  O447  1  0.51159030  0.66936496  0.30064898  1
  O  O448  1  0.51326155  0.66843000  0.63426203  1
  O  O449  1  0.50772590  0.66350759  0.98403229  1
  O  O450  1  0.33937935  0.49483787  0.19555013  1
  O  O451  1  0.33904128  0.49568176  0.53095161  1
  O  O452  1  0.33563762  0.48898618  0.86190367  1
  O  O453  1  0.31965732  0.99824063  0.19280881  1
  O  O454  1  0.32899870  0.99406393  0.52887379  1
  O  O455  1  0.32794058  0.99599184  0.86387307  1
  O  O456  1  0.83215131  0.49279709  0.19538060  1
  O  O457  1  0.83374048  0.49264346  0.52919845  1
  O  O458  1  0.82993412  0.48886990  0.86023399  1
  O  O459  1  0.84799518  0.99299400  0.20226633  1
  O  O460  1  0.83535157  0.98590845  0.53889953  1
  O  O461  1  0.84824032  0.98913971  0.85751380  1
