# generated using pymatgen
data_Na31Fe20(SO4)36
_symmetry_space_group_name_H-M   'P 1'
_cell_length_a   18.08223761
_cell_length_b   18.08397925
_cell_length_c   19.72238109
_cell_angle_alpha   107.57861630
_cell_angle_beta   107.55743110
_cell_angle_gamma   90.78698856
_symmetry_Int_Tables_number   1
_chemical_formula_structural   Na31Fe20(SO4)36
_chemical_formula_sum   'Na62 Fe40 S72 O288'
_cell_volume   5822.50674574
_cell_formula_units_Z   2
loop_
 _symmetry_equiv_pos_site_id
 _symmetry_equiv_pos_as_xyz
  1  'x, y, z'
loop_
 _atom_site_type_symbol
 _atom_site_label
 _atom_site_symmetry_multiplicity
 _atom_site_fract_x
 _atom_site_fract_y
 _atom_site_fract_z
 _atom_site_occupancy
  Na  Na0  1  0.12788469  0.37146445  0.08275297  1
  Na  Na1  1  0.14042729  0.37820976  0.42553240  1
  Na  Na2  1  0.13350319  0.36477639  0.74790843  1
  Na  Na3  1  0.16898671  0.86911882  0.11913806  1
  Na  Na4  1  0.13637344  0.86457270  0.41041335  1
  Na  Na5  1  0.13651380  0.86252501  0.75197742  1
  Na  Na6  1  0.62978232  0.36591284  0.07869501  1
  Na  Na7  1  0.63512002  0.36135900  0.41153846  1
  Na  Na8  1  0.62959551  0.36601363  0.74798729  1
  Na  Na9  1  0.62517454  0.86633872  0.08301011  1
  Na  Na10  1  0.63135496  0.87185948  0.41901539  1
  Na  Na11  1  0.65034115  0.84734948  0.74916444  1
  Na  Na12  1  0.37142514  0.12521350  0.25286494  1
  Na  Na13  1  0.35115936  0.11169764  0.55617261  1
  Na  Na14  1  0.37311427  0.13867642  0.91585560  1
  Na  Na15  1  0.35578414  0.64913113  0.25249912  1
  Na  Na16  1  0.35313613  0.61729469  0.56774821  1
  Na  Na17  1  0.37129180  0.64371085  0.92969115  1
  Na  Na18  1  0.86740180  0.13996670  0.25732192  1
  Na  Na19  1  0.86730441  0.13494859  0.58350740  1
  Na  Na20  1  0.86281015  0.13686524  0.92095314  1
  Na  Na21  1  0.88445195  0.64130060  0.25740544  1
  Na  Na22  1  0.86355822  0.64060526  0.58713696  1
  Na  Na23  1  0.85669777  0.63898500  0.90812608  1
  Na  Na24  1  0.48494096  0.49536984  0.44369221  1
  Na  Na25  1  1.01462316  -0.01733031  0.40851954  1
  Na  Na26  1  0.49528491  0.52721275  0.08141999  1
  Na  Na27  1  0.98873110  0.00881325  0.74748691  1
  Na  Na28  1  0.98850443  0.51640378  0.74780557  1
  Na  Na29  1  1.00674314  -0.01993030  0.08828679  1
  Na  Na30  1  0.49420740  0.03576165  0.74935185  1
  Na  Na31  1  1.05490278  0.51455738  0.29099324  1
  Na  Na32  1  0.45691887  0.51027809  0.69912850  1
  Na  Na33  1  0.50941886  0.99734448  0.92788814  1
  Na  Na34  1  0.01004552  0.95988181  0.56914859  1
  Na  Na35  1  0.49301470  0.94726269  0.22931882  1
  Na  Na36  1  0.51863983  0.48780598  0.90117810  1
  Na  Na37  1  0.02402590  0.49952598  0.56263444  1
  Na  Na38  1  -0.01086935  0.50590449  0.94697530  1
  Na  Na39  1  0.05540769  1.00864608  0.26709332  1
  Na  Na40  1  0.48855159  0.50692666  0.25938076  1
  Na  Na41  1  0.01092605  0.98846882  0.91929033  1
  Na  Na42  1  0.74625398  0.24860963  0.66885035  1
  Na  Na43  1  0.76106600  0.75983426  0.33364159  1
  Na  Na44  1  0.75622372  0.75613684  -0.01039637  1
  Na  Na45  1  0.73343585  0.23953409  0.00759162  1
  Na  Na46  1  0.25649718  0.75270912  0.66061232  1
  Na  Na47  1  0.24379276  0.22958138  0.33500592  1
  Na  Na48  1  0.24982980  0.25061868  -0.00099489  1
  Na  Na49  1  0.25277298  0.74856476  0.01418357  1
  Na  Na50  1  0.24730105  0.77512585  0.30871607  1
  Na  Na51  1  0.25930542  0.25495401  0.65621968  1
  Na  Na52  1  0.75619586  0.75248411  0.16479778  1
  Na  Na53  1  0.25025382  0.75018096  0.83741352  1
  Na  Na54  1  0.75644973  0.25834412  0.49128944  1
  Na  Na55  1  0.25795560  0.25795592  0.82693546  1
  Na  Na56  1  0.26185812  0.26105099  0.49778307  1
  Na  Na57  1  0.24474539  0.73423400  0.48552879  1
  Na  Na58  1  0.73929527  0.24257484  0.18186043  1
  Na  Na59  1  0.74917229  0.74459726  0.50587835  1
  Na  Na60  1  0.24682164  0.24673850  0.16953672  1
  Na  Na61  1  0.73184975  0.23811327  0.84100336  1
  Fe  Fe62  1  0.96198535  0.30930145  0.45094809  1
  Fe  Fe63  1  0.96305707  0.30871123  0.78560788  1
  Fe  Fe64  1  0.96427249  0.31144808  0.12179552  1
  Fe  Fe65  1  0.46506593  0.30312395  0.45564360  1
  Fe  Fe66  1  0.97131209  0.80207447  0.12460953  1
  Fe  Fe67  1  0.46856216  0.29821026  0.78883107  1
  Fe  Fe68  1  0.46752833  0.30715631  0.12108536  1
  Fe  Fe69  1  0.46580150  0.80747169  0.78688208  1
  Fe  Fe70  1  0.95989698  0.80704617  0.78255169  1
  Fe  Fe71  1  0.46842171  0.80981720  0.45629356  1
  Fe  Fe72  1  0.69099974  0.03618763  0.37961595  1
  Fe  Fe73  1  0.19178160  0.54059931  0.05483888  1
  Fe  Fe74  1  0.69506726  0.03305174  0.04897978  1
  Fe  Fe75  1  0.69176923  0.03224178  0.71273265  1
  Fe  Fe76  1  0.69392749  0.53321538  0.38187577  1
  Fe  Fe77  1  0.19425301  0.03548927  0.05042209  1
  Fe  Fe78  1  0.20188508  0.53013298  0.71139875  1
  Fe  Fe79  1  0.19128936  0.03528307  0.71573065  1
  Fe  Fe80  1  0.68371732  0.53956229  0.70937219  1
  Fe  Fe81  1  0.69809576  0.53799813  0.04933972  1
  Fe  Fe82  1  0.03342142  0.19537899  0.88275981  1
  Fe  Fe83  1  0.53735726  0.18846514  0.21225578  1
  Fe  Fe84  1  0.53339448  0.69319023  0.88049131  1
  Fe  Fe85  1  0.53898594  0.69436739  0.55333904  1
  Fe  Fe86  1  0.53293563  0.18434937  0.54160086  1
  Fe  Fe87  1  0.03485823  0.69546604  0.88014407  1
  Fe  Fe88  1  0.53123744  0.70115030  0.21584768  1
  Fe  Fe89  1  0.03313587  0.19614653  0.21651015  1
  Fe  Fe90  1  0.02924711  0.69956559  0.53874651  1
  Fe  Fe91  1  0.03386750  0.18764124  0.54595661  1
  Fe  Fe92  1  0.80677960  0.96786491  0.28708548  1
  Fe  Fe93  1  0.30149723  0.46748648  0.29195232  1
  Fe  Fe94  1  0.80585916  0.46776673  0.95251149  1
  Fe  Fe95  1  0.30557332  0.96120495  0.61817870  1
  Fe  Fe96  1  0.81127208  0.46715936  0.28787116  1
  Fe  Fe97  1  0.80762813  0.96327173  0.61550558  1
  Fe  Fe98  1  0.31600672  0.96489168  0.95638841  1
  Fe  Fe99  1  0.81026979  0.96286385  0.95161551  1
  Fe  Fe100  1  0.30445692  0.46655925  0.95587690  1
  Fe  Fe101  1  0.80445260  0.46759189  0.61711415  1
  S  S102  1  0.35952190  0.14426968  0.08166646  1
  S  S103  1  0.35907439  0.13816187  0.41520123  1
  S  S104  1  0.35674020  0.13803664  0.74918609  1
  S  S105  1  0.36110627  0.63819377  0.08562132  1
  S  S106  1  0.37173521  0.63369031  0.41614545  1
  S  S107  1  0.35751665  0.64470151  0.75281945  1
  S  S108  1  0.85944051  0.14234663  0.08451887  1
  S  S109  1  0.85862502  0.14333711  0.41727391  1
  S  S110  1  0.85921959  0.13996328  0.75083068  1
  S  S111  1  0.86117197  0.64050464  0.07740105  1
  S  S112  1  0.85757152  0.64020286  0.41919007  1
  S  S113  1  0.85836694  0.63952430  0.74876886  1
  S  S114  1  0.14132902  0.35591211  0.24962673  1
  S  S115  1  0.13641547  0.35721190  0.58547608  1
  S  S116  1  0.13661491  0.36328760  0.91782973  1
  S  S117  1  0.12641961  0.86192286  0.25118662  1
  S  S118  1  0.14329457  0.85909584  0.58966741  1
  S  S119  1  0.13779505  0.86262370  0.91413422  1
  S  S120  1  0.63983962  0.36276034  0.24917765  1
  S  S121  1  0.64057270  0.35891807  0.58202226  1
  S  S122  1  0.64246880  0.36221006  0.91725583  1
  S  S123  1  0.64298813  0.85944420  0.25048266  1
  S  S124  1  0.64534498  0.85761311  0.58790021  1
  S  S125  1  0.64119426  0.85923046  0.91653216  1
  S  S126  1  0.06430934  0.16979805  0.04131366  1
  S  S127  1  0.06486211  0.17295694  0.38206113  1
  S  S128  1  0.06437527  0.16961809  0.71185727  1
  S  S129  1  0.06853167  0.67604028  0.03848960  1
  S  S130  1  0.07193751  0.67640733  0.38714052  1
  S  S131  1  0.06378257  0.67196666  0.70812932  1
  S  S132  1  0.56725299  0.16960579  0.04426588  1
  S  S133  1  0.57057729  0.17208486  0.37520339  1
  S  S134  1  0.56904466  0.16965133  0.70843234  1
  S  S135  1  0.56905140  0.66384846  0.04095740  1
  S  S136  1  0.57362755  0.67006436  0.37770056  1
  S  S137  1  0.56066323  0.66451394  0.70708852  1
  S  S138  1  0.32693074  0.42878339  0.12670675  1
  S  S139  1  0.33022158  0.42528485  0.45566353  1
  S  S140  1  0.33118569  0.43093574  0.79341453  1
  S  S141  1  0.33276556  0.94139890  0.11626704  1
  S  S142  1  0.32738018  0.91501142  0.45951724  1
  S  S143  1  0.33127834  0.93519648  0.79215247  1
  S  S144  1  0.82646320  0.43193491  0.12236138  1
  S  S145  1  0.82986083  0.43275664  0.45923923  1
  S  S146  1  0.83324600  0.43421172  0.79042295  1
  S  S147  1  0.82981587  0.93087633  0.12185909  1
  S  S148  1  0.83285139  0.94040985  0.45749305  1
  S  S149  1  0.83749012  0.93821939  0.79525119  1
  S  S150  1  0.43147190  0.33148022  0.29118166  1
  S  S151  1  0.43234558  0.31661845  0.62288163  1
  S  S152  1  0.43088708  0.33478044  0.96078154  1
  S  S153  1  0.43776091  0.83311743  0.29749682  1
  S  S154  1  0.43180223  0.82507983  0.62573535  1
  S  S155  1  0.43682187  0.83119399  0.95525415  1
  S  S156  1  0.93358090  0.33247040  0.29029333  1
  S  S157  1  0.92931886  0.33290696  0.62557569  1
  S  S158  1  0.92782501  0.32787607  0.95440074  1
  S  S159  1  0.92754542  0.83369579  0.28729708  1
  S  S160  1  0.93600507  0.83218023  0.62524005  1
  S  S161  1  0.93162078  0.82803011  0.95699663  1
  S  S162  1  0.16209109  0.07189579  0.20314803  1
  S  S163  1  0.16267133  0.06148409  0.54596431  1
  S  S164  1  0.16514350  0.06888849  0.87638264  1
  S  S165  1  0.17051566  0.56189089  0.21141596  1
  S  S166  1  0.16165594  0.57302924  0.54434487  1
  S  S167  1  0.17249008  0.57046903  0.87556667  1
  S  S168  1  0.67322363  0.06714055  0.20900576  1
  S  S169  1  0.67688799  0.06906723  0.54604616  1
  S  S170  1  0.67025088  0.05843427  0.87712510  1
  S  S171  1  0.66955656  0.57120248  0.20979025  1
  S  S172  1  0.67040946  0.56719911  0.54204951  1
  S  S173  1  0.66774017  0.56688350  0.87255909  1
  O  O174  1  0.37012104  0.22385113  0.07390501  1
  O  O175  1  0.37271049  0.22099853  0.41051167  1
  O  O176  1  0.36535875  0.21981479  0.74632756  1
  O  O177  1  0.37216921  0.71165473  0.07240028  1
  O  O178  1  0.38469940  0.70919342  0.40398222  1
  O  O179  1  0.36415152  0.72697995  0.75120369  1
  O  O180  1  0.86860536  0.21971801  0.07264252  1
  O  O181  1  0.86717755  0.22196507  0.40929523  1
  O  O182  1  0.86875313  0.21822026  0.74137029  1
  O  O183  1  0.87295467  0.71837296  0.06456531  1
  O  O184  1  0.85926340  0.71684297  0.41033460  1
  O  O185  1  0.86738284  0.71794284  0.74122743  1
  O  O186  1  0.27856691  0.13693588  0.08602019  1
  O  O187  1  0.28690110  0.13808560  0.43535634  1
  O  O188  1  0.27722122  0.13052599  0.75864175  1
  O  O189  1  0.28157970  0.62758493  0.09203759  1
  O  O190  1  0.29860066  0.62619761  0.43111849  1
  O  O191  1  0.28002719  0.63316261  0.76377912  1
  O  O192  1  0.77833811  0.13415509  0.08856189  1
  O  O193  1  0.78041284  0.13361306  0.42641743  1
  O  O194  1  0.77991811  0.13149159  0.75804552  1
  O  O195  1  0.77749406  0.63554826  0.07756381  1
  O  O196  1  0.78171368  0.62292761  0.43220011  1
  O  O197  1  0.78134109  0.62589040  0.75731627  1
  O  O198  1  0.13558335  0.27448477  0.25394820  1
  O  O199  1  0.12016963  0.28017631  0.59676617  1
  O  O200  1  0.12773704  0.28642717  0.93071854  1
  O  O201  1  0.10713285  0.78383419  0.25224875  1
  O  O202  1  0.12649795  0.78034543  0.59796138  1
  O  O203  1  0.13173549  0.78178225  0.91855864  1
  O  O204  1  0.63096118  0.28365070  0.25556684  1
  O  O205  1  0.63372610  0.28002304  0.59018965  1
  O  O206  1  0.63631397  0.28533396  0.92599564  1
  O  O207  1  0.63553331  0.78028041  0.25912453  1
  O  O208  1  0.63509093  0.77913849  0.59605027  1
  O  O209  1  0.62982283  0.78136207  0.92643868  1
  O  O210  1  0.22184374  0.36767560  0.24264748  1
  O  O211  1  0.21273315  0.35879142  0.57478016  1
  O  O212  1  0.21684212  0.37062513  0.91164191  1
  O  O213  1  0.20167337  0.86994938  0.23907857  1
  O  O214  1  0.22670970  0.86143788  0.59212370  1
  O  O215  1  0.21431424  0.87476666  0.90240320  1
  O  O216  1  0.71857875  0.37415745  0.24141270  1
  O  O217  1  0.71918066  0.37010281  0.57276923  1
  O  O218  1  0.71969616  0.37399235  0.90479706  1
  O  O219  1  0.72374108  0.86861857  0.24470272  1
  O  O220  1  0.72470871  0.86636714  0.57935032  1
  O  O221  1  0.72208682  0.86787766  0.91399681  1
  O  O222  1  0.41609848  0.13857787  0.15139028  1
  O  O223  1  0.42419444  0.12711850  0.47878785  1
  O  O224  1  0.41620528  0.12528816  0.81254272  1
  O  O225  1  0.41900150  0.62955194  0.15502622  1
  O  O226  1  0.43689321  0.62178872  0.47944615  1
  O  O227  1  0.41808582  0.63354418  0.81914286  1
  O  O228  1  0.91508563  0.13888002  0.15585076  1
  O  O229  1  0.91802075  0.13607254  0.48601541  1
  O  O230  1  0.91772696  0.13298019  0.81973371  1
  O  O231  1  0.91409875  0.63472587  0.14604237  1
  O  O232  1  0.92008195  0.63667827  0.48896645  1
  O  O233  1  0.92023879  0.63048515  0.81563104  1
  O  O234  1  0.36798466  0.08622796  0.01370649  1
  O  O235  1  0.35609593  0.08287875  0.34386062  1
  O  O236  1  0.36059783  0.08245713  0.67724880  1
  O  O237  1  0.37119404  0.57308946  0.02034281  1
  O  O238  1  0.37478451  0.57082053  0.34531838  1
  O  O239  1  0.36283984  0.59075795  0.68287055  1
  O  O240  1  0.87118880  0.08078981  0.02002727  1
  O  O241  1  0.86700222  0.08418537  0.34981311  1
  O  O242  1  0.86962620  0.07989710  0.68452029  1
  O  O243  1  0.86835570  0.57979481  0.00866609  1
  O  O244  1  0.86605966  0.57940276  0.35244681  1
  O  O245  1  0.86886245  0.58032736  0.68088524  1
  O  O246  1  0.08389920  0.36069857  0.17877206  1
  O  O247  1  0.07533589  0.36965699  0.52025550  1
  O  O248  1  0.07982084  0.36583128  0.84651437  1
  O  O249  1  0.06485177  0.87793964  0.18057009  1
  O  O250  1  0.09191016  0.87147277  0.52246480  1
  O  O251  1  0.07486526  0.87147240  0.84808690  1
  O  O252  1  0.58044200  0.37206981  0.18158025  1
  O  O253  1  0.58053085  0.36583172  0.51425633  1
  O  O254  1  0.58073894  0.37055522  0.85015916  1
  O  O255  1  0.58495452  0.86736246  0.18409250  1
  O  O256  1  0.58724437  0.86670127  0.52085917  1
  O  O257  1  0.58545839  0.86501797  0.84588243  1
  O  O258  1  0.13066909  0.41217951  0.31530379  1
  O  O259  1  0.13296669  0.41861344  0.65482825  1
  O  O260  1  0.12548749  0.42561529  0.98190693  1
  O  O261  1  0.11735465  0.92275512  0.31668799  1
  O  O262  1  0.13317693  0.91843897  0.65802584  1
  O  O263  1  0.12880414  0.91950519  0.98274554  1
  O  O264  1  0.63069168  0.42142379  0.31729543  1
  O  O265  1  0.63497857  0.41816280  0.65101559  1
  O  O266  1  0.63559261  0.42367337  0.98507672  1
  O  O267  1  0.63601012  0.91855711  0.31969313  1
  O  O268  1  0.64090302  0.91636132  0.65765275  1
  O  O269  1  0.62847679  0.92042095  0.98155996  1
  O  O270  1  0.02771750  0.19997265  0.10133960  1
  O  O271  1  0.02703175  0.21063589  0.44139218  1
  O  O272  1  0.02911939  0.20137940  0.77406614  1
  O  O273  1  0.03269667  0.70985136  0.09792358  1
  O  O274  1  0.03104272  0.70957655  0.44648981  1
  O  O275  1  0.02630834  0.70387226  0.76870722  1
  O  O276  1  0.53304946  0.20058789  0.10817216  1
  O  O277  1  0.53373203  0.20070420  0.43579476  1
  O  O278  1  0.53185112  0.19861081  0.76751245  1
  O  O279  1  0.53483963  0.67982976  0.10191053  1
  O  O280  1  0.54495748  0.70290636  0.44291138  1
  O  O281  1  0.52590915  0.69774471  0.76934788  1
  O  O282  1  0.29578157  0.46524978  0.06647196  1
  O  O283  1  0.31394774  0.45618374  0.38996654  1
  O  O284  1  0.30481391  0.46908899  0.73528497  1
  O  O285  1  0.29091097  0.97487185  0.05127470  1
  O  O286  1  0.30105989  0.93951849  0.39416870  1
  O  O287  1  0.30251411  0.97297931  0.73239076  1
  O  O288  1  0.79909773  0.47163823  0.06287387  1
  O  O289  1  0.79843214  0.46374463  0.39482639  1
  O  O290  1  0.80371042  0.46808981  0.72843626  1
  O  O291  1  0.79913111  0.96886184  0.06156131  1
  O  O292  1  0.79498160  0.97698538  0.39760741  1
  O  O293  1  0.80593080  0.97309629  0.73359978  1
  O  O294  1  0.46986320  0.30535141  0.23158143  1
  O  O295  1  0.47453264  0.28774596  0.56555540  1
  O  O296  1  0.46511600  0.31474819  0.89981552  1
  O  O297  1  0.47423949  0.79643972  0.23760272  1
  O  O298  1  0.47028473  0.79666051  0.56599015  1
  O  O299  1  0.47068767  0.79724188  0.89086385  1
  O  O300  1  0.97244227  0.30087197  0.23023670  1
  O  O301  1  0.96104141  0.30174118  0.56246551  1
  O  O302  1  0.96565026  0.29859240  0.89381473  1
  O  O303  1  0.94070855  0.80670285  0.21233989  1
  O  O304  1  0.97311351  0.80247026  0.56622932  1
  O  O305  1  0.96956412  0.79914430  0.89705929  1
  O  O306  1  0.18310634  0.04764055  0.26898234  1
  O  O307  1  0.19690053  0.02748515  0.60951035  1
  O  O308  1  0.19550153  0.03574753  0.93837309  1
  O  O309  1  0.21048318  0.52382037  0.27031969  1
  O  O310  1  0.17800877  0.54387735  0.61015882  1
  O  O311  1  0.19884379  0.53254812  0.93560950  1
  O  O312  1  0.70413813  0.03138452  0.27087007  1
  O  O313  1  0.70597757  0.02895161  0.60511629  1
  O  O314  1  0.70987371  0.02659934  0.94064283  1
  O  O315  1  0.70076311  0.53504459  0.27059190  1
  O  O316  1  0.70113205  0.53180851  0.60444878  1
  O  O317  1  0.69752758  0.52954462  0.93277931  1
  O  O318  1  0.08253525  0.08785119  0.03524075  1
  O  O319  1  0.07547041  0.09347340  0.38394994  1
  O  O320  1  0.07823801  0.08676425  0.70652365  1
  O  O321  1  0.08903942  0.59655633  0.04026508  1
  O  O322  1  0.10959241  0.60868099  0.40108853  1
  O  O323  1  0.07269605  0.58824598  0.70077924  1
  O  O324  1  0.59324437  0.09121184  0.04481336  1
  O  O325  1  0.58969727  0.09125990  0.36956871  1
  O  O326  1  0.59329650  0.09086608  0.71137131  1
  O  O327  1  0.58751819  0.57950321  0.02450821  1
  O  O328  1  0.58849377  0.58662492  0.37119993  1
  O  O329  1  0.57384673  0.58150001  0.70395014  1
  O  O330  1  0.40971858  0.41403966  0.13310264  1
  O  O331  1  0.41307710  0.40516639  0.46960559  1
  O  O332  1  0.41148802  0.40820375  0.79792859  1
  O  O333  1  0.41144874  0.93136998  0.11227607  1
  O  O334  1  0.41219820  0.90320708  0.48006327  1
  O  O335  1  0.41349895  0.91842112  0.79902982  1
  O  O336  1  0.90537628  0.40940195  0.12470276  1
  O  O337  1  0.91214003  0.41601581  0.46576812  1
  O  O338  1  0.91709118  0.41944800  0.79871152  1
  O  O339  1  0.90911751  0.90913143  0.12074057  1
  O  O340  1  0.91277446  0.92843901  0.45711931  1
  O  O341  1  0.92051113  0.92243686  0.79792611  1
  O  O342  1  0.40961737  0.41283450  0.29497903  1
  O  O343  1  0.40747952  0.39232396  0.62136515  1
  O  O344  1  0.41309969  0.41820590  0.97753530  1
  O  O345  1  0.42618958  0.91261539  0.29834858  1
  O  O346  1  0.41319963  0.90657943  0.63504297  1
  O  O347  1  0.41789268  0.91129776  0.95204232  1
  O  O348  1  0.91506035  0.41217237  0.29103841  1
  O  O349  1  0.91318393  0.41562538  0.63260723  1
  O  O350  1  0.90966037  0.40873397  0.95777296  1
  O  O351  1  0.90658446  0.91655317  0.29886341  1
  O  O352  1  0.91869952  0.91474401  0.62779002  1
  O  O353  1  0.91951417  0.91245987  0.96362339  1
  O  O354  1  0.07706415  0.09056642  0.18772742  1
  O  O355  1  0.08171301  0.08146721  0.54788487  1
  O  O356  1  0.08120700  0.08344160  0.86926326  1
  O  O357  1  0.09113778  0.56919260  0.21198450  1
  O  O358  1  0.08213032  0.60427034  0.53857295  1
  O  O359  1  0.08981494  0.58759396  0.86634461  1
  O  O360  1  0.59394292  0.08760220  0.20747946  1
  O  O361  1  0.59913558  0.09149520  0.54573805  1
  O  O362  1  0.58783284  0.06237357  0.87190991  1
  O  O363  1  0.58823942  0.58947892  0.20713672  1
  O  O364  1  0.58996653  0.58615964  0.53953217  1
  O  O365  1  0.58517732  0.58234842  0.86715423  1
  O  O366  1  0.13518098  0.22167579  0.05580730  1
  O  O367  1  0.13746831  0.22216016  0.39670171  1
  O  O368  1  0.13732526  0.21904721  0.72853696  1
  O  O369  1  0.13639777  0.72696796  0.04608133  1
  O  O370  1  0.13193415  0.73848694  0.39705296  1
  O  O371  1  0.13891236  0.71974845  0.72860178  1
  O  O372  1  0.63641210  0.22577863  0.06097406  1
  O  O373  1  0.64030541  0.22580079  0.39159206  1
  O  O374  1  0.63965095  0.22386514  0.72375555  1
  O  O375  1  0.63914343  0.71812485  0.05924980  1
  O  O376  1  0.64554243  0.71832177  0.38838164  1
  O  O377  1  0.63343816  0.71065275  0.72047716  1
  O  O378  1  0.27605241  0.35655175  0.11001744  1
  O  O379  1  0.27507871  0.35393313  0.43340612  1
  O  O380  1  0.27584423  0.36044071  0.77609326  1
  O  O381  1  0.28533653  0.86702438  0.09935646  1
  O  O382  1  0.27978057  0.84198926  0.45033457  1
  O  O383  1  0.27885773  0.86369224  0.77448861  1
  O  O384  1  0.77045475  0.36293075  0.10450742  1
  O  O385  1  0.77937336  0.36309555  0.44818395  1
  O  O386  1  0.78377971  0.36197182  0.77601244  1
  O  O387  1  0.77585352  0.86078629  0.10567865  1
  O  O388  1  0.78332749  0.86826990  0.44436749  1
  O  O389  1  0.78984713  0.86780779  0.78479482  1
  O  O390  1  0.36216355  0.27701540  0.27435590  1
  O  O391  1  0.36476315  0.25830753  0.60553097  1
  O  O392  1  0.35872973  0.28151826  0.94164092  1
  O  O393  1  0.36625476  0.78309061  0.28456431  1
  O  O394  1  0.36169791  0.77037386  0.60750679  1
  O  O395  1  0.36355217  0.78130079  0.93894597  1
  O  O396  1  0.86326867  0.27924786  0.27323501  1
  O  O397  1  0.85774542  0.28295790  0.61324725  1
  O  O398  1  0.85674918  0.27529664  0.93722144  1
  O  O399  1  0.86009077  0.78070165  0.28012534  1
  O  O400  1  0.86487728  0.78216619  0.61131035  1
  O  O401  1  0.85857087  0.77981356  0.93883955  1
  O  O402  1  0.21387183  0.13990382  0.20981052  1
  O  O403  1  0.21295340  0.13302662  0.55997491  1
  O  O404  1  0.21322733  0.14176252  0.88958663  1
  O  O405  1  0.21849469  0.63500955  0.22607340  1
  O  O406  1  0.22116569  0.63835021  0.56007077  1
  O  O407  1  0.22515855  0.64258996  0.89566891  1
  O  O408  1  0.72707910  0.13557989  0.22210791  1
  O  O409  1  0.73271703  0.13845794  0.56393035  1
  O  O410  1  0.71436149  0.13562319  0.89401972  1
  O  O411  1  0.72201331  0.64084649  0.22262512  1
  O  O412  1  0.72282894  0.63591750  0.55494379  1
  O  O413  1  0.71785090  0.63887562  0.88920094  1
  O  O414  1  0.49033924  0.32957525  0.03061162  1
  O  O415  1  0.49056458  0.33783486  0.36491736  1
  O  O416  1  0.49044391  0.32309256  0.69802638  1
  O  O417  1  0.49567708  0.83429565  0.02459696  1
  O  O418  1  0.49720928  0.83369863  0.37152888  1
  O  O419  1  0.49169428  0.82567065  0.69784046  1
  O  O420  1  0.98670579  0.32947222  0.02648142  1
  O  O421  1  0.99195806  0.33592727  0.36341632  1
  O  O422  1  0.99054862  0.33457815  0.69721467  1
  O  O423  1  0.98922858  0.82943909  0.03036546  1
  O  O424  1  0.99680811  0.83690279  0.34934913  1
  O  O425  1  0.99411059  0.83952308  0.70037331  1
  O  O426  1  0.15847615  0.00615131  0.13231727  1
  O  O427  1  0.15343338  0.00086668  0.47501569  1
  O  O428  1  0.16359106  0.00900791  0.80430643  1
  O  O429  1  0.16967784  0.50499898  0.13625990  1
  O  O430  1  0.15392456  0.50794892  0.47760207  1
  O  O431  1  0.17290569  0.51273011  0.80312707  1
  O  O432  1  0.66897963  0.00537427  0.13702339  1
  O  O433  1  0.67232235  0.01112879  0.47250982  1
  O  O434  1  0.67715198  0.00325969  0.80626552  1
  O  O435  1  0.66331329  0.51129122  0.13573459  1
  O  O436  1  0.66473323  0.50442835  0.47014431  1
  O  O437  1  0.66754980  0.50813474  0.80028600  1
  O  O438  1  0.00866029  0.16924614  0.30662137  1
  O  O439  1  0.00551233  0.17108102  0.64100124  1
  O  O440  1  0.00455653  0.16625654  0.96807985  1
  O  O441  1  0.01068251  0.65403890  0.31406228  1
  O  O442  1  0.00843945  0.67722637  0.63635600  1
  O  O443  1  0.00627258  0.66238448  0.96306081  1
  O  O444  1  0.51100306  0.17094627  0.30277140  1
  O  O445  1  0.51180949  0.15995037  0.63371249  1
  O  O446  1  0.50693948  0.16075897  0.97324720  1
  O  O447  1  0.51097088  0.66609980  0.30652594  1
  O  O448  1  0.50072446  0.66177749  0.63487209  1
  O  O449  1  0.50906345  0.66609743  0.97005687  1
  O  O450  1  0.32926559  0.48683874  0.20042027  1
  O  O451  1  0.32451717  0.48583217  0.52077701  1
  O  O452  1  0.33612764  0.48832938  0.86842205  1
  O  O453  1  0.33047064  0.99887541  0.18557810  1
  O  O454  1  0.32066909  0.97886809  0.52822638  1
  O  O455  1  0.33132119  0.99397310  0.86451964  1
  O  O456  1  0.82982437  0.49119699  0.19495842  1
  O  O457  1  0.83281924  0.49599335  0.53007455  1
  O  O458  1  0.83498790  0.49405157  0.86270860  1
  O  O459  1  0.83541312  0.99038271  0.19467632  1
  O  O460  1  0.83614689  0.99768487  0.53245879  1
  O  O461  1  0.84518414  0.99931240  0.86934540  1
