# generated using pymatgen
data_Na31Fe20(SO4)36
_symmetry_space_group_name_H-M   'P 1'
_cell_length_a   18.06683453
_cell_length_b   18.06653351
_cell_length_c   19.69533663
_cell_angle_alpha   107.57682283
_cell_angle_beta   107.56069273
_cell_angle_gamma   90.73788214
_symmetry_Int_Tables_number   1
_chemical_formula_structural   Na31Fe20(SO4)36
_chemical_formula_sum   'Na62 Fe40 S72 O288'
_cell_volume   5804.54907432
_cell_formula_units_Z   2
loop_
 _symmetry_equiv_pos_site_id
 _symmetry_equiv_pos_as_xyz
  1  'x, y, z'
loop_
 _atom_site_type_symbol
 _atom_site_label
 _atom_site_symmetry_multiplicity
 _atom_site_fract_x
 _atom_site_fract_y
 _atom_site_fract_z
 _atom_site_occupancy
  Na  Na0  1  0.13978069  0.37442958  0.09678110  1
  Na  Na1  1  0.13049264  0.36442718  0.41342899  1
  Na  Na2  1  0.11611165  0.36172558  0.74333011  1
  Na  Na3  1  0.14163231  0.87600517  0.09653327  1
  Na  Na4  1  0.13644143  0.86133783  0.40675475  1
  Na  Na5  1  0.13795215  0.87187159  0.74969633  1
  Na  Na6  1  0.63434427  0.36466659  0.08706583  1
  Na  Na7  1  0.62491122  0.36463850  0.41136304  1
  Na  Na8  1  0.62574721  0.34229352  0.73260391  1
  Na  Na9  1  0.63584591  0.86465199  0.08487612  1
  Na  Na10  1  0.65942161  0.85973662  0.42228681  1
  Na  Na11  1  0.64296096  0.85636515  0.75079194  1
  Na  Na12  1  0.37544775  0.12376864  0.25238745  1
  Na  Na13  1  0.38038418  0.14818127  0.60160727  1
  Na  Na14  1  0.35816321  0.12893320  0.90452046  1
  Na  Na15  1  0.36143302  0.63704749  0.25261205  1
  Na  Na16  1  0.36265498  0.63053002  0.57808089  1
  Na  Na17  1  0.36568263  0.63443112  0.91760280  1
  Na  Na18  1  0.86329949  0.13711572  0.25258868  1
  Na  Na19  1  0.87119444  0.13487966  0.58868475  1
  Na  Na20  1  0.86604502  0.13768942  0.91631682  1
  Na  Na21  1  0.86732391  0.63786448  0.25682983  1
  Na  Na22  1  0.86169069  0.63043006  0.57754950  1
  Na  Na23  1  0.85939780  0.63220037  0.90650153  1
  Na  Na24  1  0.48087355  0.02532514  0.10597243  1
  Na  Na25  1  0.99870822  0.01712451  0.74723469  1
  Na  Na26  1  0.50831045  0.47958452  0.75858525  1
  Na  Na27  1  0.99211724  0.51015329  0.41282641  1
  Na  Na28  1  0.48963040  0.02360694  0.73034095  1
  Na  Na29  1  0.99111874  0.50579571  0.09189350  1
  Na  Na30  1  0.46130228  0.51288969  0.35714006  1
  Na  Na31  1  0.48867454  0.49788748  0.10936233  1
  Na  Na32  1  0.98502499  0.01595502  0.41258031  1
  Na  Na33  1  0.48142674  1.04299892  0.46982641  1
  Na  Na34  1  0.50413425  0.45124833  0.91364604  1
  Na  Na35  1  0.55131178  1.00344898  0.30044658  1
  Na  Na36  1  0.01060695  0.46783125  0.88887677  1
  Na  Na37  1  0.04934945  0.99464190  0.58898386  1
  Na  Na38  1  0.51251974  0.99280493  0.91698118  1
  Na  Na39  1  0.50698166  0.48781084  0.57664987  1
  Na  Na40  1  0.00734235  0.99005394  0.92843636  1
  Na  Na41  1  0.01763502  0.99635556  0.23252915  1
  Na  Na42  1  0.24333474  0.74526675  0.00789808  1
  Na  Na43  1  0.75193335  0.24514268  0.66308759  1
  Na  Na44  1  0.74231137  0.24601549  0.00289948  1
  Na  Na45  1  0.25444297  0.25702070  0.32699566  1
  Na  Na46  1  0.25255252  0.24861687  0.67166510  1
  Na  Na47  1  0.25045895  0.25160113  0.00225524  1
  Na  Na48  1  0.72513021  0.23024676  0.34127084  1
  Na  Na49  1  0.75781747  0.75370618  0.65961093  1
  Na  Na50  1  0.25792245  0.75646961  0.66005357  1
  Na  Na51  1  0.75794392  0.75642220  -0.01191079  1
  Na  Na52  1  0.24337079  0.23977210  0.83324044  1
  Na  Na53  1  0.26047440  0.26461206  0.16740592  1
  Na  Na54  1  0.26008031  0.76187786  0.48457093  1
  Na  Na55  1  0.25237488  0.25252293  0.49884035  1
  Na  Na56  1  0.76049528  0.25307528  0.82833883  1
  Na  Na57  1  0.24854243  0.75223872  0.18601991  1
  Na  Na58  1  0.74151594  0.74072717  0.17538814  1
  Na  Na59  1  0.73157547  0.24041456  0.17761841  1
  Na  Na60  1  0.24971746  0.75298205  0.83461262  1
  Na  Na61  1  0.71831837  0.21205925  0.49763180  1
  Fe  Fe62  1  0.46774790  0.80484042  0.78658815  1
  Fe  Fe63  1  0.96332604  0.31255554  0.12114036  1
  Fe  Fe64  1  0.46440604  0.30138561  0.45556080  1
  Fe  Fe65  1  0.46913459  0.30284644  0.13252131  1
  Fe  Fe66  1  0.96454995  0.80398573  0.78398634  1
  Fe  Fe67  1  0.46561484  0.81493492  0.45366382  1
  Fe  Fe68  1  0.96533401  0.80646561  0.45118342  1
  Fe  Fe69  1  0.96329048  0.80529075  0.11508802  1
  Fe  Fe70  1  0.95991334  0.31456365  0.45561927  1
  Fe  Fe71  1  0.46609330  0.81409067  0.12628978  1
  Fe  Fe72  1  0.69156092  0.53556965  0.71502369  1
  Fe  Fe73  1  0.19262285  0.03806330  0.04931325  1
  Fe  Fe74  1  0.69369726  0.03543358  0.04755179  1
  Fe  Fe75  1  0.69334865  0.02810283  0.71055972  1
  Fe  Fe76  1  0.19722275  0.53503698  0.05271672  1
  Fe  Fe77  1  0.19970619  0.03331678  0.37460078  1
  Fe  Fe78  1  0.69064946  0.53452080  0.04795661  1
  Fe  Fe79  1  0.18964936  0.53391476  0.71370512  1
  Fe  Fe80  1  0.68941791  0.53992967  0.38296266  1
  Fe  Fe81  1  0.19849385  0.53352653  0.37743030  1
  Fe  Fe82  1  0.03362711  0.68831873  0.87714984  1
  Fe  Fe83  1  0.03351996  0.69580701  0.21671133  1
  Fe  Fe84  1  0.03051043  0.19558442  0.21251593  1
  Fe  Fe85  1  0.03162836  0.19592958  0.54837813  1
  Fe  Fe86  1  0.03302191  0.20217159  0.87722221  1
  Fe  Fe87  1  0.53058023  0.20039831  0.87473773  1
  Fe  Fe88  1  0.53384288  0.69165858  0.54680922  1
  Fe  Fe89  1  0.03498232  0.69082840  0.54679962  1
  Fe  Fe90  1  0.53484730  0.69148392  0.88177235  1
  Fe  Fe91  1  0.53794480  0.69567881  0.22082002  1
  Fe  Fe92  1  0.30999076  0.46535601  0.95627408  1
  Fe  Fe93  1  0.80470382  0.46880972  0.28507891  1
  Fe  Fe94  1  0.30646965  0.46512132  0.62181897  1
  Fe  Fe95  1  0.80721006  0.46278189  0.61765175  1
  Fe  Fe96  1  0.30362206  0.96802911  0.95182975  1
  Fe  Fe97  1  0.80427839  0.96750123  0.29035781  1
  Fe  Fe98  1  0.81142502  0.95870137  0.61348265  1
  Fe  Fe99  1  0.81105538  0.96353533  0.95362866  1
  Fe  Fe100  1  0.29908892  0.96896694  0.62070171  1
  Fe  Fe101  1  0.80714635  0.46520039  0.95013237  1
  S  S102  1  0.35522556  0.14186009  0.08119963  1
  S  S103  1  0.35345233  0.14697721  0.41891559  1
  S  S104  1  0.35961271  0.13957051  0.75106556  1
  S  S105  1  0.36191648  0.64221481  0.08529687  1
  S  S106  1  0.36019299  0.64730027  0.42046893  1
  S  S107  1  0.35810909  0.64172803  0.75106649  1
  S  S108  1  0.85786317  0.14331918  0.08128295  1
  S  S109  1  0.86034941  0.14326932  0.41299971  1
  S  S110  1  0.86166478  0.13517278  0.75406394  1
  S  S111  1  0.85816812  0.64003996  0.08113607  1
  S  S112  1  0.86036076  0.64009476  0.41744785  1
  S  S113  1  0.85823825  0.63791021  0.74803651  1
  S  S114  1  0.13623246  0.36131583  0.25271328  1
  S  S115  1  0.13793011  0.36013908  0.58342356  1
  S  S116  1  0.14666578  0.36182329  0.91965995  1
  S  S117  1  0.13518791  0.86242573  0.24636625  1
  S  S118  1  0.14110098  0.85297256  0.57953792  1
  S  S119  1  0.13761917  0.85948500  0.91794822  1
  S  S120  1  0.64240715  0.36414871  0.25085652  1
  S  S121  1  0.63817886  0.36215530  0.58157802  1
  S  S122  1  0.64383979  0.36009468  0.91644220  1
  S  S123  1  0.64457089  0.85414531  0.24834745  1
  S  S124  1  0.64335498  0.85341150  0.58396176  1
  S  S125  1  0.64104149  0.85889404  0.91773038  1
  S  S126  1  0.06859183  0.17839939  0.04330996  1
  S  S127  1  0.06512840  0.16904850  0.37398935  1
  S  S128  1  0.06640547  0.16866284  0.70951859  1
  S  S129  1  0.06723705  0.66838250  0.04165393  1
  S  S130  1  0.06740686  0.66768262  0.37665792  1
  S  S131  1  0.07102862  0.67385254  0.71144306  1
  S  S132  1  0.56650277  0.17096854  0.03843992  1
  S  S133  1  0.56291514  0.17090308  0.38542683  1
  S  S134  1  0.57422098  0.16203409  0.70903510  1
  S  S135  1  0.56496802  0.66621723  0.04112110  1
  S  S136  1  0.56432151  0.66977606  0.37601919  1
  S  S137  1  0.56497592  0.66657593  0.70836091  1
  S  S138  1  0.33189219  0.43602077  0.12950002  1
  S  S139  1  0.32769773  0.43204426  0.45878564  1
  S  S140  1  0.33032949  0.43759764  0.79240384  1
  S  S141  1  0.32854908  0.93521893  0.12100301  1
  S  S142  1  0.32833314  0.93685631  0.46090530  1
  S  S143  1  0.33242508  0.92733068  0.79210992  1
  S  S144  1  0.82833938  0.43611332  0.12237143  1
  S  S145  1  0.82596388  0.43328940  0.45230348  1
  S  S146  1  0.82328082  0.43112832  0.78658901  1
  S  S147  1  0.82934166  0.93277987  0.12306084  1
  S  S148  1  0.85257203  0.93686916  0.46577019  1
  S  S149  1  0.83638970  0.93038739  0.79321032  1
  S  S150  1  0.42651868  0.31879509  0.28977576  1
  S  S151  1  0.43276883  0.33835925  0.62578614  1
  S  S152  1  0.43349183  0.32868256  0.96472906  1
  S  S153  1  0.44356384  0.83654022  0.29341602  1
  S  S154  1  0.43212649  0.83029616  0.62566694  1
  S  S155  1  0.43414931  0.83285736  0.95967971  1
  S  S156  1  0.92634357  0.33124745  0.28929516  1
  S  S157  1  0.92525415  0.32591671  0.61836498  1
  S  S158  1  0.93737660  0.33659117  0.96058161  1
  S  S159  1  0.93081585  0.82940217  0.28823625  1
  S  S160  1  0.93688165  0.82731357  0.62652157  1
  S  S161  1  0.93363330  0.82738487  0.95625709  1
  S  S162  1  0.16057575  0.07310906  0.20509619  1
  S  S163  1  0.17042142  0.06903246  0.53725942  1
  S  S164  1  0.16366514  0.06544354  0.87653436  1
  S  S165  1  0.16763197  0.57427932  0.20964616  1
  S  S166  1  0.17181371  0.56707372  0.54251038  1
  S  S167  1  0.17070165  0.56645862  0.87874161  1
  S  S168  1  0.67028854  0.06105368  0.20709752  1
  S  S169  1  0.67976404  0.05439999  0.54686678  1
  S  S170  1  0.67082763  0.06142193  0.87568855  1
  S  S171  1  0.67039933  0.56881178  0.20743590  1
  S  S172  1  0.66665786  0.56698978  0.54320492  1
  S  S173  1  0.66698796  0.56514211  0.87628814  1
  O  O174  1  0.36791748  0.22307500  0.07850122  1
  O  O175  1  0.36324075  0.23113029  0.41650517  1
  O  O176  1  0.37036907  0.21413277  0.73813029  1
  O  O177  1  0.37248532  0.72143827  0.07805215  1
  O  O178  1  0.36806593  0.73026714  0.42221317  1
  O  O179  1  0.36877480  0.72116528  0.74388764  1
  O  O180  1  0.86879960  0.22143472  0.07121792  1
  O  O181  1  0.87537425  0.21924374  0.40001980  1
  O  O182  1  0.86082083  0.21161469  0.74319673  1
  O  O183  1  0.86742548  0.71926193  0.07330804  1
  O  O184  1  0.87235823  0.71733728  0.40856709  1
  O  O185  1  0.86874738  0.71719708  0.74033049  1
  O  O186  1  0.27352369  0.13657803  0.08518937  1
  O  O187  1  0.26846521  0.13839300  0.41394641  1
  O  O188  1  0.28590636  0.12925626  0.76556031  1
  O  O189  1  0.28208971  0.63500543  0.09288611  1
  O  O190  1  0.28223457  0.63337249  0.43004931  1
  O  O191  1  0.27955688  0.63450513  0.76066808  1
  O  O192  1  0.77743143  0.13647279  0.08737408  1
  O  O193  1  0.78128133  0.13821082  0.41696443  1
  O  O194  1  0.78708409  0.11812436  0.76861101  1
  O  O195  1  0.77871502  0.63098340  0.08786332  1
  O  O196  1  0.78251782  0.63008976  0.42559848  1
  O  O197  1  0.78140692  0.62949028  0.75981101  1
  O  O198  1  0.12085800  0.28451105  0.26498446  1
  O  O199  1  0.13013509  0.28125777  0.59250415  1
  O  O200  1  0.13501675  0.28105542  0.92381030  1
  O  O201  1  0.12386971  0.78447091  0.25596077  1
  O  O202  1  0.13312971  0.77228614  0.58529480  1
  O  O203  1  0.12977906  0.77961274  0.92474746  1
  O  O204  1  0.64118490  0.28630630  0.25862236  1
  O  O205  1  0.63504850  0.28584158  0.59263001  1
  O  O206  1  0.63238932  0.28134902  0.92439304  1
  O  O207  1  0.63793493  0.77083217  0.24640558  1
  O  O208  1  0.63016549  0.77423686  0.59212867  1
  O  O209  1  0.62957693  0.78054361  0.92685051  1
  O  O210  1  0.21221663  0.36348260  0.24136246  1
  O  O211  1  0.21743113  0.36971317  0.57594520  1
  O  O212  1  0.22827778  0.36777516  0.91540161  1
  O  O213  1  0.20807512  0.87047746  0.23083396  1
  O  O214  1  0.22230539  0.86384213  0.57629369  1
  O  O215  1  0.21611313  0.86938360  0.90901162  1
  O  O216  1  0.71725766  0.37878315  0.23458138  1
  O  O217  1  0.71297452  0.37581368  0.56736602  1
  O  O218  1  0.72592664  0.36719183  0.91415501  1
  O  O219  1  0.72249282  0.86716250  0.23841211  1
  O  O220  1  0.72342077  0.85955245  0.57844787  1
  O  O221  1  0.72187470  0.86804985  0.91549417  1
  O  O222  1  0.41056998  0.12664887  0.14514849  1
  O  O223  1  0.40219827  0.14194353  0.49142136  1
  O  O224  1  0.42461635  0.13059784  0.81711472  1
  O  O225  1  0.42041235  0.63097671  0.15185805  1
  O  O226  1  0.42026916  0.63485567  0.48706831  1
  O  O227  1  0.41777014  0.63368876  0.81885426  1
  O  O228  1  0.91430044  0.13724724  0.15120574  1
  O  O229  1  0.91823067  0.13488404  0.48227624  1
  O  O230  1  0.92546851  0.13281317  0.82324502  1
  O  O231  1  0.91699361  0.63174242  0.14926687  1
  O  O232  1  0.92061150  0.63026197  0.48505503  1
  O  O233  1  0.91976330  0.62987268  0.81483252  1
  O  O234  1  0.36082119  0.08611681  0.00929812  1
  O  O235  1  0.36932703  0.09244245  0.35529047  1
  O  O236  1  0.36684030  0.07546522  0.68379349  1
  O  O237  1  0.36765938  0.58325258  0.01602964  1
  O  O238  1  0.36717593  0.59416355  0.35102664  1
  O  O239  1  0.36389475  0.58332507  0.68225051  1
  O  O240  1  0.86596592  0.08285881  0.01423804  1
  O  O241  1  0.87168942  0.08047354  0.34744832  1
  O  O242  1  0.87507354  0.07441808  0.68925129  1
  O  O243  1  0.86723289  0.58150029  0.01313342  1
  O  O244  1  0.87008289  0.57918154  0.34994121  1
  O  O245  1  0.86312707  0.57970916  0.67828848  1
  O  O246  1  0.07497809  0.36997911  0.18573311  1
  O  O247  1  0.07958231  0.36580265  0.51399990  1
  O  O248  1  0.09144342  0.37483594  0.85417190  1
  O  O249  1  0.06954116  0.87254686  0.18153646  1
  O  O250  1  0.08544027  0.85881170  0.50817164  1
  O  O251  1  0.07759083  0.86829801  0.85078752  1
  O  O252  1  0.57867099  0.37059345  0.18442100  1
  O  O253  1  0.57394818  0.36900810  0.51412016  1
  O  O254  1  0.58843950  0.37154994  0.84991496  1
  O  O255  1  0.58408641  0.86511702  0.18106470  1
  O  O256  1  0.58592222  0.86172049  0.51583135  1
  O  O257  1  0.58467698  0.86502963  0.84711468  1
  O  O258  1  0.13229064  0.42302471  0.32128360  1
  O  O259  1  0.13019427  0.41915093  0.65119814  1
  O  O260  1  0.13976194  0.41841305  0.99014128  1
  O  O261  1  0.13016472  0.92271278  0.31560284  1
  O  O262  1  0.12810036  0.91031321  0.64404650  1
  O  O263  1  0.12909336  0.91799810  0.98614176  1
  O  O264  1  0.63636253  0.42368927  0.31965804  1
  O  O265  1  0.62806608  0.42355710  0.64841874  1
  O  O266  1  0.63447837  0.41829102  0.98583578  1
  O  O267  1  0.63724941  0.90716122  0.31768278  1
  O  O268  1  0.63629678  0.91113711  0.65345412  1
  O  O269  1  0.62737195  0.91925764  0.98245618  1
  O  O270  1  0.03099414  0.20574337  0.10402412  1
  O  O271  1  0.03175878  0.19675459  0.43698581  1
  O  O272  1  0.03288680  0.20265716  0.77048452  1
  O  O273  1  0.02921358  0.69887984  0.10155518  1
  O  O274  1  0.02842426  0.69810269  0.43631570  1
  O  O275  1  0.03237891  0.70297773  0.77149597  1
  O  O276  1  0.52930309  0.19754497  0.09699291  1
  O  O277  1  0.51998711  0.20873372  0.44086143  1
  O  O278  1  0.54556068  0.19095858  0.77493720  1
  O  O279  1  0.52971777  0.69522905  0.10222659  1
  O  O280  1  0.52663490  0.70130263  0.43627291  1
  O  O281  1  0.53048491  0.69811852  0.77142679  1
  O  O282  1  0.30324395  0.47183663  0.06543555  1
  O  O283  1  0.30220929  0.47116767  0.40152048  1
  O  O284  1  0.29364397  0.47463269  0.73183114  1
  O  O285  1  0.29758841  0.97015165  0.05660233  1
  O  O286  1  0.30081966  0.97509907  0.40256035  1
  O  O287  1  0.30726013  0.95748094  0.72886572  1
  O  O288  1  0.79766517  0.47334692  0.06156958  1
  O  O289  1  0.79494038  0.47252879  0.39318077  1
  O  O290  1  0.78970430  0.46776341  0.72538946  1
  O  O291  1  0.80142579  0.97241664  0.06366023  1
  O  O292  1  0.82814057  0.96929460  0.40305196  1
  O  O293  1  0.80595564  0.96177127  0.72972986  1
  O  O294  1  0.47059201  0.29416602  0.23584216  1
  O  O295  1  0.46194008  0.31643268  0.56000801  1
  O  O296  1  0.47119260  0.30513796  0.90553439  1
  O  O297  1  0.47816999  0.79514329  0.23044679  1
  O  O298  1  0.47112507  0.80423597  0.56654981  1
  O  O299  1  0.47055542  0.80198706  0.89834252  1
  O  O300  1  0.96144996  0.30089609  0.22728425  1
  O  O301  1  0.96236170  0.29559705  0.55513093  1
  O  O302  1  0.97545897  0.30854387  0.90283394  1
  O  O303  1  0.96482180  0.79756218  0.22527015  1
  O  O304  1  0.97248662  0.79845997  0.56463912  1
  O  O305  1  0.96812077  0.79475824  0.89391983  1
  O  O306  1  0.18327013  0.03691042  0.26472654  1
  O  O307  1  0.19501097  0.02943247  0.59506150  1
  O  O308  1  0.19495235  0.03122760  0.94057613  1
  O  O309  1  0.19076560  0.54190434  0.27167922  1
  O  O310  1  0.19934412  0.53028724  0.60385611  1
  O  O311  1  0.20239917  0.53092018  0.94045912  1
  O  O312  1  0.70454559  0.02402258  0.26543502  1
  O  O313  1  0.71729230  0.02126081  0.61277114  1
  O  O314  1  0.70264934  0.02640284  0.93841205  1
  O  O315  1  0.70057423  0.53760483  0.27165693  1
  O  O316  1  0.69851801  0.53251804  0.60533452  1
  O  O317  1  0.69793475  0.52799005  0.93667254  1
  O  O318  1  0.08597468  0.09621151  0.03472542  1
  O  O319  1  0.08128636  0.08599005  0.36446057  1
  O  O320  1  0.07819485  0.08649229  0.70329395  1
  O  O321  1  0.08409421  0.58632502  0.03611695  1
  O  O322  1  0.08727529  0.58795355  0.37609917  1
  O  O323  1  0.09501693  0.59630689  0.71229276  1
  O  O324  1  0.58635975  0.08857745  0.03204305  1
  O  O325  1  0.60079480  0.10756543  0.41025896  1
  O  O326  1  0.59234227  0.07923430  0.70490652  1
  O  O327  1  0.58071606  0.58284464  0.03280692  1
  O  O328  1  0.58146420  0.58812130  0.37509331  1
  O  O329  1  0.58015285  0.58375231  0.70371069  1
  O  O330  1  0.40979876  0.40921755  0.12854161  1
  O  O331  1  0.40778549  0.40658563  0.46233113  1
  O  O332  1  0.41206460  0.42910926  0.79617568  1
  O  O333  1  0.40984326  0.91582372  0.12161382  1
  O  O334  1  0.40993140  0.91727095  0.46427305  1
  O  O335  1  0.41651862  0.91089499  0.80634718  1
  O  O336  1  0.90964831  0.41943624  0.12554029  1
  O  O337  1  0.90824819  0.41913716  0.45519648  1
  O  O338  1  0.90255580  0.41530249  0.79039279  1
  O  O339  1  0.91031765  0.91306603  0.12724672  1
  O  O340  1  0.93826577  0.92209821  0.47673570  1
  O  O341  1  0.92033401  0.91564931  0.80078728  1
  O  O342  1  0.40050725  0.39537806  0.29338418  1
  O  O343  1  0.41457773  0.42294523  0.63788159  1
  O  O344  1  0.41731012  0.41312950  0.97362325  1
  O  O345  1  0.44027126  0.91760284  0.29529170  1
  O  O346  1  0.41029245  0.91047931  0.63305791  1
  O  O347  1  0.41879867  0.91559549  0.96567523  1
  O  O348  1  0.90998173  0.41339881  0.29557799  1
  O  O349  1  0.90117399  0.40347556  0.61497127  1
  O  O350  1  0.91775962  0.41879338  0.96429578  1
  O  O351  1  0.91467406  0.91145419  0.29317199  1
  O  O352  1  0.91829839  0.90918136  0.63236128  1
  O  O353  1  0.91575811  0.90844381  0.95766521  1
  O  O354  1  0.07662838  0.08910657  0.19331844  1
  O  O355  1  0.08716887  0.08712964  0.53070091  1
  O  O356  1  0.08340070  0.08804402  0.87576863  1
  O  O357  1  0.08449397  0.59348735  0.19630455  1
  O  O358  1  0.08965544  0.58482720  0.53456178  1
  O  O359  1  0.08965816  0.58402253  0.87645133  1
  O  O360  1  0.58987136  0.07393387  0.20438461  1
  O  O361  1  0.60254129  0.07209888  0.55060780  1
  O  O362  1  0.58768055  0.07364190  0.86823702  1
  O  O363  1  0.59009405  0.59072939  0.20367257  1
  O  O364  1  0.58469390  0.58337309  0.54030209  1
  O  O365  1  0.58533171  0.58322839  0.87331603  1
  O  O366  1  0.14029280  0.23132330  0.06232123  1
  O  O367  1  0.13559997  0.22175978  0.38945370  1
  O  O368  1  0.13974415  0.21774496  0.72300966  1
  O  O369  1  0.13955587  0.72031596  0.05995111  1
  O  O370  1  0.13647815  0.72142420  0.39172152  1
  O  O371  1  0.13911864  0.73033241  0.72717011  1
  O  O372  1  0.63915194  0.22335591  0.05636805  1
  O  O373  1  0.62471022  0.23169286  0.39276345  1
  O  O374  1  0.64792129  0.21140211  0.72391098  1
  O  O375  1  0.63755233  0.71633590  0.05654387  1
  O  O376  1  0.63424342  0.71919309  0.38786350  1
  O  O377  1  0.63604143  0.71585379  0.72157006  1
  O  O378  1  0.27516420  0.36679816  0.11122669  1
  O  O379  1  0.27161031  0.36363216  0.44365153  1
  O  O380  1  0.28254914  0.36375236  0.77608974  1
  O  O381  1  0.27720998  0.86236035  0.10239616  1
  O  O382  1  0.27528595  0.86642270  0.44478880  1
  O  O383  1  0.28125083  0.85573198  0.77852473  1
  O  O384  1  0.77741769  0.36399240  0.10552053  1
  O  O385  1  0.77637660  0.36029413  0.43388190  1
  O  O386  1  0.77017215  0.36024912  0.77146379  1
  O  O387  1  0.77576949  0.86129540  0.10283389  1
  O  O388  1  0.80465870  0.86521921  0.45294333  1
  O  O389  1  0.78749990  0.85875507  0.78088475  1
  O  O390  1  0.35933075  0.25910831  0.27059804  1
  O  O391  1  0.36084537  0.28722755  0.61002522  1
  O  O392  1  0.36062136  0.27727725  0.94518520  1
  O  O393  1  0.36822509  0.79099506  0.27649828  1
  O  O394  1  0.36243736  0.77422145  0.60705476  1
  O  O395  1  0.36125733  0.78223196  0.94221168  1
  O  O396  1  0.85496360  0.27980338  0.27317405  1
  O  O397  1  0.85562234  0.27034847  0.60110314  1
  O  O398  1  0.86591570  0.28447027  0.94518821  1
  O  O399  1  0.86054703  0.77798869  0.27418671  1
  O  O400  1  0.86805212  0.77463246  0.61341358  1
  O  O401  1  0.86353421  0.77660471  0.94420496  1
  O  O402  1  0.21153581  0.14466686  0.22097050  1
  O  O403  1  0.22216550  0.14158567  0.55656325  1
  O  O404  1  0.21744737  0.13586075  0.89235410  1
  O  O405  1  0.22063241  0.64293047  0.22175659  1
  O  O406  1  0.22496518  0.63821929  0.56117568  1
  O  O407  1  0.22198747  0.63892845  0.89489180  1
  O  O408  1  0.72041464  0.13485267  0.22306918  1
  O  O409  1  0.73267564  0.12695534  0.56482409  1
  O  O410  1  0.71977643  0.13552877  0.89381144  1
  O  O411  1  0.72466750  0.63413166  0.21531530  1
  O  O412  1  0.71748858  0.63777290  0.55702331  1
  O  O413  1  0.71882968  0.63555726  0.89154708  1
  O  O414  1  0.49027808  0.32979363  0.03813963  1
  O  O415  1  0.48305212  0.32208916  0.36640415  1
  O  O416  1  0.49481826  0.33851265  0.69346584  1
  O  O417  1  0.49233432  0.83186051  0.03140300  1
  O  O418  1  0.49937864  0.83105268  0.36518470  1
  O  O419  1  0.49132119  0.83145517  0.69862491  1
  O  O420  1  0.99417754  0.34388439  0.03678793  1
  O  O421  1  0.98655194  0.33291725  0.36138749  1
  O  O422  1  0.98517078  0.33264419  0.68871741  1
  O  O423  1  0.99482063  0.83223452  0.02855019  1
  O  O424  1  0.99209467  0.83116959  0.35964971  1
  O  O425  1  0.99845061  0.83219296  0.69910505  1
  O  O426  1  0.16246495  0.01349177  0.13341224  1
  O  O427  1  0.16761287  0.01242570  0.46307270  1
  O  O428  1  0.15725015  0.00415074  0.80641689  1
  O  O429  1  0.16613821  0.51095699  0.13823876  1
  O  O430  1  0.17191621  0.50846549  0.47064550  1
  O  O431  1  0.16817664  0.50812484  0.80621341  1
  O  O432  1  0.66955772  0.00564403  0.13142638  1
  O  O433  1  0.68086218  -0.00555792  0.47857324  1
  O  O434  1  0.67468404  0.00266834  0.80550890  1
  O  O435  1  0.66141839  0.50406539  0.13522355  1
  O  O436  1  0.66345390  0.50729361  0.47059211  1
  O  O437  1  0.66018366  0.50583916  0.80219719  1
  O  O438  1  0.00430776  0.16898413  0.30244770  1
  O  O439  1  0.00875371  0.16907043  0.63562664  1
  O  O440  1  0.00995286  0.18004306  0.97202471  1
  O  O441  1  0.00771600  0.66341188  0.30320801  1
  O  O442  1  0.01151181  0.66710739  0.63793646  1
  O  O443  1  0.00899122  0.66756609  0.96896944  1
  O  O444  1  0.50738895  0.14021586  0.30919280  1
  O  O445  1  0.51387014  0.16124778  0.64057602  1
  O  O446  1  0.51056956  0.16724550  0.96328496  1
  O  O447  1  0.50326855  0.66228076  0.30214310  1
  O  O448  1  0.50357151  0.66373680  0.63669973  1
  O  O449  1  0.50589122  0.66695866  0.96905290  1
  O  O450  1  0.33844006  0.49685684  0.19959306  1
  O  O451  1  0.33667627  0.49058529  0.53467779  1
  O  O452  1  0.33015783  0.49399776  0.86645531  1
  O  O453  1  0.32990635  0.99376813  0.19007219  1
  O  O454  1  0.33335975  0.99412331  0.53594621  1
  O  O455  1  0.32990171  0.98869392  0.86260325  1
  O  O456  1  0.82985722  0.49484386  0.19463288  1
  O  O457  1  0.82678223  0.49074232  0.52501036  1
  O  O458  1  0.82274491  0.49129707  0.85915497  1
  O  O459  1  0.83213051  0.99010706  0.19625770  1
  O  O460  1  0.85318894  0.99775227  0.53735397  1
  O  O461  1  0.83883264  0.99176538  0.86545232  1
