# generated using pymatgen
data_Na31Fe20(SO4)36
_symmetry_space_group_name_H-M   'P 1'
_cell_length_a   18.08059453
_cell_length_b   18.08500075
_cell_length_c   19.71822572
_cell_angle_alpha   107.55869998
_cell_angle_beta   107.59158043
_cell_angle_gamma   90.75406847
_symmetry_Int_Tables_number   1
_chemical_formula_structural   Na31Fe20(SO4)36
_chemical_formula_sum   'Na62 Fe40 S72 O288'
_cell_volume   5820.99120576
_cell_formula_units_Z   2
loop_
 _symmetry_equiv_pos_site_id
 _symmetry_equiv_pos_as_xyz
  1  'x, y, z'
loop_
 _atom_site_type_symbol
 _atom_site_label
 _atom_site_symmetry_multiplicity
 _atom_site_fract_x
 _atom_site_fract_y
 _atom_site_fract_z
 _atom_site_occupancy
  Na  Na0  1  0.14864274  0.36697422  0.08551909  1
  Na  Na1  1  0.13751788  0.36816905  0.41486694  1
  Na  Na2  1  0.14380089  0.34913219  0.74551590  1
  Na  Na3  1  0.14667650  0.87420618  0.10407861  1
  Na  Na4  1  0.13553064  0.85736336  0.40918941  1
  Na  Na5  1  0.13365946  0.86619564  0.75095237  1
  Na  Na6  1  0.63654708  0.36162356  0.08782851  1
  Na  Na7  1  0.62958861  0.36562026  0.41467077  1
  Na  Na8  1  0.62975585  0.36880246  0.75147701  1
  Na  Na9  1  0.63704928  0.87545303  0.09240868  1
  Na  Na10  1  0.62435294  0.86287000  0.40958160  1
  Na  Na11  1  0.62288880  0.86119393  0.73706434  1
  Na  Na12  1  0.37149910  0.12521497  0.25058671  1
  Na  Na13  1  0.36330082  0.14004629  0.59117469  1
  Na  Na14  1  0.36880792  0.14359253  0.92547081  1
  Na  Na15  1  0.36906963  0.64597389  0.27214263  1
  Na  Na16  1  0.35556394  0.63668035  0.56974893  1
  Na  Na17  1  0.36725949  0.63749595  0.91971046  1
  Na  Na18  1  0.85830850  0.13795550  0.24623073  1
  Na  Na19  1  0.86069859  0.13040443  0.57530554  1
  Na  Na20  1  0.86879110  0.13770402  0.92304541  1
  Na  Na21  1  0.86887746  0.63089772  0.25002161  1
  Na  Na22  1  0.86961716  0.62910340  0.58340763  1
  Na  Na23  1  0.86873302  0.63169727  0.91829964  1
  Na  Na24  1  1.00349283  0.49971876  0.43391835  1
  Na  Na25  1  0.49142190  0.01885935  0.07794883  1
  Na  Na26  1  0.50555547  0.55207901  0.42830106  1
  Na  Na27  1  0.48098096  0.49997463  0.08896792  1
  Na  Na28  1  0.47727986  0.01054013  0.76957596  1
  Na  Na29  1  1.01569707  0.49393655  0.08130488  1
  Na  Na30  1  0.43578137  -0.01032910  0.37623756  1
  Na  Na31  1  0.97044761  0.01534903  0.37951766  1
  Na  Na32  1  0.99029125  0.00649785  0.75140418  1
  Na  Na33  1  0.50772545  0.45334437  0.24801012  1
  Na  Na34  1  0.50286703  0.49775791  0.90776388  1
  Na  Na35  1  0.48663431  0.52139440  0.58311737  1
  Na  Na36  1  0.50188648  0.93798894  0.55756544  1
  Na  Na37  1  0.04436309  0.49489974  0.91700198  1
  Na  Na38  1  0.00940190  0.99358678  0.57226567  1
  Na  Na39  1  -0.01576898  1.03984578  0.19405624  1
  Na  Na40  1  0.06589356  0.49959128  0.27629210  1
  Na  Na41  1  0.00295440  0.98747448  0.93562323  1
  Na  Na42  1  0.23775720  0.23910488  0.33677043  1
  Na  Na43  1  0.25436243  0.75299971  0.65720063  1
  Na  Na44  1  0.74243709  0.23853016  0.01721148  1
  Na  Na45  1  0.75127876  0.75421723  0.33255466  1
  Na  Na46  1  0.24217178  0.73626386  0.01454571  1
  Na  Na47  1  0.75958279  0.25879297  0.31987464  1
  Na  Na48  1  0.73793062  0.74157783  0.67227433  1
  Na  Na49  1  0.75146868  0.75394961  0.00241852  1
  Na  Na50  1  0.26612796  0.26535629  -0.01036413  1
  Na  Na51  1  0.75292761  0.25243170  0.66575791  1
  Na  Na52  1  0.72832516  0.73623962  0.50483750  1
  Na  Na53  1  0.24575214  0.24136713  0.16965240  1
  Na  Na54  1  0.27326053  0.75384118  0.46371939  1
  Na  Na55  1  0.75526447  0.25360141  0.49305842  1
  Na  Na56  1  0.24622094  0.73961189  0.18201700  1
  Na  Na57  1  0.74058816  0.74302904  0.83646993  1
  Na  Na58  1  0.23941079  0.24329889  0.51107941  1
  Na  Na59  1  0.24691968  0.74643483  0.83647836  1
  Na  Na60  1  0.74424213  0.24321606  0.84019900  1
  Na  Na61  1  0.76069666  0.76270037  0.16728175  1
  Fe  Fe62  1  0.96233975  0.80614413  0.78540631  1
  Fe  Fe63  1  0.96877374  0.30506824  0.45248058  1
  Fe  Fe64  1  0.46375656  0.81944632  0.12593004  1
  Fe  Fe65  1  0.45585842  0.31243031  0.78437388  1
  Fe  Fe66  1  0.46478061  0.80773220  0.78836120  1
  Fe  Fe67  1  0.96371948  0.81023820  0.12328872  1
  Fe  Fe68  1  0.97358992  0.30001750  0.12458149  1
  Fe  Fe69  1  0.96759099  0.30512199  0.78622478  1
  Fe  Fe70  1  0.46550492  0.31001310  0.45687490  1
  Fe  Fe71  1  0.96084718  0.80862724  0.44968431  1
  Fe  Fe72  1  0.68923174  0.03590888  0.70909953  1
  Fe  Fe73  1  0.18818010  0.53439977  0.71164322  1
  Fe  Fe74  1  0.69689875  0.53057112  0.38082745  1
  Fe  Fe75  1  0.19204280  0.03893230  0.71735370  1
  Fe  Fe76  1  0.19340621  0.03326563  0.05249133  1
  Fe  Fe77  1  0.69111189  0.53342775  0.71255615  1
  Fe  Fe78  1  0.19234687  0.03354965  0.37367632  1
  Fe  Fe79  1  0.69253213  0.03211839  0.37164866  1
  Fe  Fe80  1  0.68860418  0.03813806  0.04622045  1
  Fe  Fe81  1  0.69972180  0.53205816  0.04894098  1
  Fe  Fe82  1  0.53760031  0.69130432  0.21409376  1
  Fe  Fe83  1  0.03720748  0.69379476  0.54988598  1
  Fe  Fe84  1  0.03739808  0.19063502  0.88123782  1
  Fe  Fe85  1  0.03568828  0.19036440  0.54799869  1
  Fe  Fe86  1  0.53170192  0.19041326  0.54378960  1
  Fe  Fe87  1  0.53086929  0.20006756  0.88255052  1
  Fe  Fe88  1  0.03852398  0.69136109  0.21968042  1
  Fe  Fe89  1  0.52853231  0.20417713  0.21036699  1
  Fe  Fe90  1  0.03276995  0.69062933  0.88043658  1
  Fe  Fe91  1  0.53560591  0.69125090  0.88026863  1
  Fe  Fe92  1  0.81177279  0.46277108  0.95385464  1
  Fe  Fe93  1  0.81471627  0.46254504  0.62380312  1
  Fe  Fe94  1  0.30589210  0.96225920  0.95339354  1
  Fe  Fe95  1  0.30297730  0.96844026  0.61813609  1
  Fe  Fe96  1  0.80662782  0.96668361  0.95464718  1
  Fe  Fe97  1  0.30070988  0.46968799  0.95661012  1
  Fe  Fe98  1  0.81166665  0.46308498  0.28519186  1
  Fe  Fe99  1  0.30554940  0.46627876  0.61902684  1
  Fe  Fe100  1  0.80574068  0.96645014  0.61629459  1
  Fe  Fe101  1  0.30196527  0.47262780  0.29075628  1
  S  S102  1  0.35744055  0.14001450  0.08050858  1
  S  S103  1  0.35666884  0.14733747  0.42041084  1
  S  S104  1  0.35682602  0.14237813  0.75219138  1
  S  S105  1  0.36804471  0.64269107  0.08005902  1
  S  S106  1  0.36532110  0.63281954  0.42318363  1
  S  S107  1  0.35866427  0.64103058  0.74985625  1
  S  S108  1  0.85832854  0.13816241  0.08130520  1
  S  S109  1  0.85898309  0.14250502  0.41480483  1
  S  S110  1  0.85903604  0.13941895  0.75020975  1
  S  S111  1  0.86243921  0.63861126  0.08567440  1
  S  S112  1  0.85962867  0.63938448  0.42030939  1
  S  S113  1  0.85805187  0.64067418  0.74957275  1
  S  S114  1  0.14787385  0.35524673  0.24552014  1
  S  S115  1  0.13907788  0.35901690  0.58480270  1
  S  S116  1  0.13904287  0.35573144  0.91486187  1
  S  S117  1  0.13722521  0.85972232  0.25075068  1
  S  S118  1  0.13687577  0.86479647  0.58450176  1
  S  S119  1  0.13595115  0.85853970  0.91768625  1
  S  S120  1  0.64556213  0.35999954  0.25146584  1
  S  S121  1  0.64354081  0.35628100  0.58593311  1
  S  S122  1  0.64154130  0.36125466  0.91550232  1
  S  S123  1  0.64233279  0.85803169  0.24964897  1
  S  S124  1  0.64601847  0.85918033  0.58383859  1
  S  S125  1  0.64072627  0.86081949  0.91572922  1
  S  S126  1  0.06767830  0.16868171  0.03939345  1
  S  S127  1  0.06448023  0.16732272  0.37448023  1
  S  S128  1  0.06068024  0.16069810  0.70502205  1
  S  S129  1  0.06100964  0.66902713  0.04423791  1
  S  S130  1  0.06124340  0.67001230  0.38354329  1
  S  S131  1  0.06656998  0.67477240  0.71214298  1
  S  S132  1  0.56637025  0.17135511  0.04057015  1
  S  S133  1  0.56885045  0.17484578  0.37719212  1
  S  S134  1  0.56734440  0.17363835  0.71101412  1
  S  S135  1  0.57717574  0.66539567  0.04074065  1
  S  S136  1  0.57683906  0.65784948  0.36836897  1
  S  S137  1  0.56534458  0.66986923  0.71226022  1
  S  S138  1  0.33039298  0.43805332  0.12606975  1
  S  S139  1  0.32903558  0.42922220  0.45743520  1
  S  S140  1  0.32655286  0.43662115  0.79076154  1
  S  S141  1  0.32917106  0.93371684  0.11911959  1
  S  S142  1  0.32625881  0.94199561  0.45827271  1
  S  S143  1  0.32542822  0.93134540  0.79157115  1
  S  S144  1  0.83664600  0.42991531  0.12353224  1
  S  S145  1  0.83217519  0.43105735  0.45876546  1
  S  S146  1  0.83407410  0.43197761  0.79310503  1
  S  S147  1  0.82736372  0.93584818  0.12263091  1
  S  S148  1  0.82883334  0.93536929  0.45638407  1
  S  S149  1  0.83114292  0.93460512  0.79147971  1
  S  S150  1  0.42893917  0.33214728  0.29509107  1
  S  S151  1  0.43209565  0.33293268  0.62407083  1
  S  S152  1  0.43819769  0.34066878  0.95960410  1
  S  S153  1  0.43396306  0.82555401  0.27985128  1
  S  S154  1  0.42603218  0.83705048  0.62835438  1
  S  S155  1  0.43433576  0.82996162  0.95686182  1
  S  S156  1  0.93640943  0.33479046  0.29487179  1
  S  S157  1  0.93154196  0.32287460  0.62262769  1
  S  S158  1  0.93495095  0.32739480  0.95737662  1
  S  S159  1  0.93205909  0.82609308  0.28910562  1
  S  S160  1  0.93123967  0.83096483  0.62447015  1
  S  S161  1  0.92966368  0.82763609  0.95688543  1
  S  S162  1  0.17285855  0.07179210  0.21240101  1
  S  S163  1  0.16758717  0.06663785  0.53904704  1
  S  S164  1  0.16872222  0.06401038  0.87703925  1
  S  S165  1  0.17007300  0.56418824  0.20756461  1
  S  S166  1  0.16677556  0.56542681  0.54633566  1
  S  S167  1  0.17130919  0.57044951  0.87564214  1
  S  S168  1  0.66315789  0.07393677  0.20694775  1
  S  S169  1  0.67095400  0.07011438  0.53974747  1
  S  S170  1  0.66909825  0.06974064  0.87373248  1
  S  S171  1  0.67425234  0.56524512  0.20860024  1
  S  S172  1  0.67258693  0.55940251  0.54770181  1
  S  S173  1  0.67366748  0.56722404  0.87805849  1
  O  O174  1  0.36239982  0.21265946  0.06406193  1
  O  O175  1  0.36580131  0.22873082  0.41764020  1
  O  O176  1  0.36707578  0.21943322  0.74271496  1
  O  O177  1  0.38915488  0.71579577  0.06493248  1
  O  O178  1  0.37612873  0.70660328  0.40930338  1
  O  O179  1  0.36825073  0.72081665  0.74273481  1
  O  O180  1  0.87237089  0.21673780  0.07316389  1
  O  O181  1  0.86748793  0.22554974  0.41410790  1
  O  O182  1  0.86853924  0.21899267  0.74405522  1
  O  O183  1  0.86755295  0.71857941  0.07834751  1
  O  O184  1  0.86491421  0.71933630  0.41403911  1
  O  O185  1  0.86631664  0.72026629  0.74155464  1
  O  O186  1  0.27919554  0.12688187  0.08960916  1
  O  O187  1  0.27487699  0.13650616  0.42359162  1
  O  O188  1  0.27899466  0.13079730  0.76033855  1
  O  O189  1  0.29098940  0.64727886  0.08924478  1
  O  O190  1  0.28893724  0.62178831  0.43302980  1
  O  O191  1  0.27989912  0.63316789  0.75875882  1
  O  O192  1  0.77476446  0.13124658  0.07907499  1
  O  O193  1  0.78032821  0.13190504  0.42352521  1
  O  O194  1  0.77944857  0.13042642  0.75727063  1
  O  O195  1  0.78482620  0.62866360  0.09682623  1
  O  O196  1  0.78378958  0.62783425  0.43396186  1
  O  O197  1  0.77734055  0.63173330  0.75489578  1
  O  O198  1  0.14885998  0.27458737  0.24501658  1
  O  O199  1  0.12962580  0.27870963  0.58972508  1
  O  O200  1  0.13213467  0.27407173  0.91836124  1
  O  O201  1  0.12486740  0.78358174  0.26388574  1
  O  O202  1  0.12798816  0.78728048  0.59555391  1
  O  O203  1  0.12825427  0.77954157  0.92572021  1
  O  O204  1  0.63226490  0.28091733  0.25772377  1
  O  O205  1  0.63054521  0.27744257  0.59320131  1
  O  O206  1  0.63312191  0.28057314  0.91988071  1
  O  O207  1  0.63102766  0.77980799  0.26043792  1
  O  O208  1  0.63897069  0.78517780  0.59823809  1
  O  O209  1  0.63387815  0.78084271  0.92319410  1
  O  O210  1  0.22540907  0.37707915  0.23541505  1
  O  O211  1  0.21798634  0.36951314  0.57666638  1
  O  O212  1  0.22031374  0.37042594  0.91531250  1
  O  O213  1  0.21014960  0.86399024  0.23436435  1
  O  O214  1  0.21494796  0.87275619  0.57548028  1
  O  O215  1  0.21301390  0.86724042  0.90601742  1
  O  O216  1  0.72744779  0.36795606  0.25001377  1
  O  O217  1  0.72425375  0.36215480  0.58052342  1
  O  O218  1  0.71907619  0.37016662  0.90376921  1
  O  O219  1  0.71857208  0.86540552  0.23987307  1
  O  O220  1  0.72848834  0.87111180  0.58145214  1
  O  O221  1  0.71994677  0.86993242  0.90707846  1
  O  O222  1  0.41721225  0.13886953  0.15180726  1
  O  O223  1  0.41255109  0.13999780  0.49113292  1
  O  O224  1  0.41749818  0.13397678  0.82025448  1
  O  O225  1  0.42677902  0.62836980  0.14541349  1
  O  O226  1  0.42735083  0.62085604  0.48679853  1
  O  O227  1  0.41791359  0.63389337  0.81835934  1
  O  O228  1  0.91023957  0.12941364  0.15007785  1
  O  O229  1  0.91872269  0.13206641  0.48229121  1
  O  O230  1  0.91767248  0.12912307  0.81726137  1
  O  O231  1  0.92323650  0.62855416  0.15106163  1
  O  O232  1  0.92267540  0.62940063  0.48498925  1
  O  O233  1  0.91457702  0.63463205  0.81926769  1
  O  O234  1  0.36978990  0.07435613  0.01775815  1
  O  O235  1  0.36919961  0.09169687  0.35502164  1
  O  O236  1  0.36628064  0.08139935  0.68549091  1
  O  O237  1  0.37003683  0.57749137  0.01176956  1
  O  O238  1  0.37230776  0.56847944  0.35170092  1
  O  O239  1  0.36543025  0.58285438  0.68113706  1
  O  O240  1  0.86834239  0.07867953  0.01324986  1
  O  O241  1  0.86698805  0.08852996  0.34637961  1
  O  O242  1  0.86723813  0.08111144  0.68172333  1
  O  O243  1  0.86768857  0.58146113  0.01556273  1
  O  O244  1  0.86352551  0.58255655  0.34943573  1
  O  O245  1  0.86783592  0.58263860  0.68276336  1
  O  O246  1  0.08587217  0.36520106  0.17867854  1
  O  O247  1  0.08019845  0.36773016  0.51675610  1
  O  O248  1  0.08408652  0.36055059  0.84195844  1
  O  O249  1  0.07247793  0.86966475  0.18620743  1
  O  O250  1  0.07641307  0.87319431  0.51736518  1
  O  O251  1  0.07499427  0.86724349  0.85032676  1
  O  O252  1  0.58987690  0.37319258  0.18642930  1
  O  O253  1  0.58681862  0.36621248  0.51815394  1
  O  O254  1  0.57989761  0.37351532  0.85134035  1
  O  O255  1  0.58097993  0.86420514  0.18135996  1
  O  O256  1  0.59134416  0.86357031  0.51386797  1
  O  O257  1  0.58206118  0.86759389  0.84728646  1
  O  O258  1  0.13830880  0.40855100  0.31413721  1
  O  O259  1  0.13167966  0.41580390  0.65367815  1
  O  O260  1  0.11965720  0.41059527  0.97716852  1
  O  O261  1  0.13459191  0.92149402  0.32052894  1
  O  O262  1  0.12901882  0.92544247  0.65230806  1
  O  O263  1  0.12734826  0.91747091  0.98533663  1
  O  O264  1  0.63728552  0.41741807  0.32176132  1
  O  O265  1  0.63753125  0.41575095  0.65471583  1
  O  O266  1  0.63910184  0.41787574  0.98683983  1
  O  O267  1  0.63522647  0.91778840  0.31778203  1
  O  O268  1  0.63406832  0.92352588  0.64888062  1
  O  O269  1  0.63327595  0.91843923  0.98412864  1
  O  O270  1  0.03001432  0.19688806  0.09714124  1
  O  O271  1  0.03164191  0.19874057  0.43919782  1
  O  O272  1  0.02488364  0.19244466  0.76645171  1
  O  O273  1  0.02680054  0.70584517  0.10607441  1
  O  O274  1  0.02488499  0.71100433  0.44390662  1
  O  O275  1  0.02787179  0.70345425  0.77240055  1
  O  O276  1  0.53158893  0.19728084  0.10088869  1
  O  O277  1  0.52835679  0.20223526  0.43679981  1
  O  O278  1  0.52913730  0.20284588  0.77060195  1
  O  O279  1  0.54832386  0.69331924  0.10516650  1
  O  O280  1  0.55634426  0.67904935  0.43680124  1
  O  O281  1  0.53424841  0.70179408  0.77792166  1
  O  O282  1  0.30034555  0.47563233  0.06761095  1
  O  O283  1  0.30572262  0.45680288  0.39167936  1
  O  O284  1  0.29725022  0.47228334  0.72858778  1
  O  O285  1  0.29008370  0.96375114  0.05284001  1
  O  O286  1  0.29129166  0.98212403  0.40189958  1
  O  O287  1  0.29563849  0.96914066  0.73157634  1
  O  O288  1  0.80639044  0.46797130  0.06260579  1
  O  O289  1  0.80280622  0.46960230  0.39919257  1
  O  O290  1  0.80546493  0.47053651  0.73364681  1
  O  O291  1  0.79335756  0.96757924  0.05745601  1
  O  O292  1  0.80081304  0.97367099  0.39914702  1
  O  O293  1  0.80313872  0.97165077  0.73127663  1
  O  O294  1  0.46959701  0.30849818  0.23814277  1
  O  O295  1  0.47432880  0.30369489  0.56730287  1
  O  O296  1  0.46852461  0.30550939  0.89279013  1
  O  O297  1  0.47117903  0.78646554  0.21806576  1
  O  O298  1  0.46046977  0.82188936  0.56884272  1
  O  O299  1  0.47258734  0.80012645  0.89668015  1
  O  O300  1  0.96993170  0.31362642  0.23340065  1
  O  O301  1  0.96891706  0.29447431  0.56240220  1
  O  O302  1  0.96997423  0.29704162  0.89504247  1
  O  O303  1  0.96595176  0.78766578  0.22720315  1
  O  O304  1  0.96714131  0.80060230  0.56360216  1
  O  O305  1  0.96529242  0.79608608  0.89519007  1
  O  O306  1  0.19602836  0.03383278  0.27250397  1
  O  O307  1  0.19757604  0.03243739  0.60216644  1
  O  O308  1  0.19655534  0.02611653  0.93676879  1
  O  O309  1  0.20498140  0.53347758  0.27243591  1
  O  O310  1  0.20118258  0.53183957  0.61037330  1
  O  O311  1  0.19837721  0.53207030  0.93367416  1
  O  O312  1  0.68255885  0.03637975  0.26572918  1
  O  O313  1  0.70174675  0.03342899  0.60126488  1
  O  O314  1  0.69534802  0.03072268  0.93271804  1
  O  O315  1  0.70477202  0.52838260  0.26919737  1
  O  O316  1  0.71086660  0.52086957  0.60650762  1
  O  O317  1  0.70577687  0.53123144  0.93911649  1
  O  O318  1  0.08854612  0.08750103  0.03424520  1
  O  O319  1  0.09106453  0.08893679  0.37749757  1
  O  O320  1  0.07562741  0.07757410  0.70210594  1
  O  O321  1  0.06703826  0.58634549  0.03763696  1
  O  O322  1  0.06735839  0.58974439  0.38551790  1
  O  O323  1  0.08763420  0.59606826  0.70878142  1
  O  O324  1  0.58271831  0.08795741  0.02967434  1
  O  O325  1  0.59043100  0.09583449  0.37429870  1
  O  O326  1  0.58579691  0.09252280  0.70608695  1
  O  O327  1  0.59221802  0.58129401  0.02916995  1
  O  O328  1  0.58949521  0.57101597  0.34904433  1
  O  O329  1  0.59155906  0.59130717  0.71246431  1
  O  O330  1  0.41449080  0.43130260  0.13844397  1
  O  O331  1  0.41336610  0.41403001  0.47412232  1
  O  O332  1  0.40950169  0.42028084  0.79647744  1
  O  O333  1  0.40876920  0.91734299  0.11342219  1
  O  O334  1  0.40450761  0.92674159  0.45360300  1
  O  O335  1  0.40681557  0.91392591  0.79697227  1
  O  O336  1  0.91680893  0.41051304  0.12585531  1
  O  O337  1  0.91220487  0.41110852  0.46095007  1
  O  O338  1  0.91507086  0.41246957  0.79910744  1
  O  O339  1  0.90602968  0.91161583  0.12014349  1
  O  O340  1  0.91068571  0.91444175  0.46001101  1
  O  O341  1  0.91453626  0.91846817  0.79832148  1
  O  O342  1  0.40544956  0.41268020  0.29784272  1
  O  O343  1  0.41236496  0.41292121  0.62569117  1
  O  O344  1  0.41181672  0.41867519  0.95551693  1
  O  O345  1  0.40921641  0.89778832  0.26562323  1
  O  O346  1  0.40806671  0.92158085  0.64858806  1
  O  O347  1  0.41552183  0.91085714  0.96093319  1
  O  O348  1  0.91847571  0.41895121  0.30966450  1
  O  O349  1  0.91102501  0.40265940  0.62711613  1
  O  O350  1  0.91938706  0.41029009  0.96375795  1
  O  O351  1  0.91352429  0.90313553  0.28589467  1
  O  O352  1  0.91508607  0.91350674  0.62931165  1
  O  O353  1  0.91016396  0.90763524  0.95674887  1
  O  O354  1  0.09710036  0.09981295  0.20675589  1
  O  O355  1  0.08400725  0.08068113  0.53329709  1
  O  O356  1  0.08558305  0.08038676  0.86971232  1
  O  O357  1  0.09121950  0.58885185  0.21502985  1
  O  O358  1  0.08842215  0.59046941  0.55003119  1
  O  O359  1  0.09032356  0.59097599  0.87369524  1
  O  O360  1  0.58248481  0.09778153  0.19476900  1
  O  O361  1  0.59002575  0.08764010  0.53630611  1
  O  O362  1  0.58874516  0.09198243  0.86713279  1
  O  O363  1  0.59188166  0.58106674  0.20020842  1
  O  O364  1  0.59301017  0.57009931  0.54925251  1
  O  O365  1  0.59268883  0.58431978  0.87458401  1
  O  O366  1  0.13765605  0.22105425  0.05225461  1
  O  O367  1  0.13235836  0.22251961  0.38764069  1
  O  O368  1  0.13134731  0.20865442  0.71708221  1
  O  O369  1  0.13635996  0.71512554  0.06076886  1
  O  O370  1  0.13564835  0.71562878  0.39899661  1
  O  O371  1  0.13619072  0.73026688  0.72964709  1
  O  O372  1  0.63733165  0.22266214  0.05507303  1
  O  O373  1  0.63847737  0.23117396  0.39731707  1
  O  O374  1  0.63930614  0.22651913  0.72946689  1
  O  O375  1  0.64831449  0.71545142  0.05198902  1
  O  O376  1  0.64930886  0.70552830  0.37755283  1
  O  O377  1  0.63419314  0.72498845  0.72562081  1
  O  O378  1  0.28444662  0.36135133  0.10538799  1
  O  O379  1  0.27713341  0.35902702  0.44451701  1
  O  O380  1  0.27710069  0.36570022  0.77605316  1
  O  O381  1  0.28147083  0.86021065  0.10565804  1
  O  O382  1  0.27527577  0.87140826  0.44493657  1
  O  O383  1  0.27346028  0.85917268  0.77356547  1
  O  O384  1  0.78195002  0.36133638  0.10747379  1
  O  O385  1  0.77782256  0.36087340  0.44141048  1
  O  O386  1  0.77999338  0.36161053  0.77561690  1
  O  O387  1  0.77429553  0.86560174  0.10935148  1
  O  O388  1  0.77709646  0.86498119  0.44331616  1
  O  O389  1  0.78053348  0.86257120  0.77503436  1
  O  O390  1  0.36094507  0.27637572  0.27901533  1
  O  O391  1  0.36244779  0.27866090  0.60602738  1
  O  O392  1  0.37295687  0.28643224  0.95160985  1
  O  O393  1  0.36744556  0.77015288  0.26871984  1
  O  O394  1  0.35394707  0.78371433  0.60836420  1
  O  O395  1  0.36266053  0.77745181  0.93807886  1
  O  O396  1  0.86666718  0.28205197  0.27989414  1
  O  O397  1  0.86075008  0.26893220  0.60559786  1
  O  O398  1  0.86207553  0.27738677  0.94011920  1
  O  O399  1  0.86258245  0.77326453  0.27880181  1
  O  O400  1  0.86072887  0.77931384  0.61039081  1
  O  O401  1  0.85814045  0.77556089  0.94153759  1
  O  O402  1  0.23478746  0.13551685  0.22850189  1
  O  O403  1  0.21671308  0.13867782  0.55466781  1
  O  O404  1  0.22042291  0.13459999  0.89355651  1
  O  O405  1  0.22056598  0.63135514  0.21394256  1
  O  O406  1  0.21981272  0.63440029  0.55919899  1
  O  O407  1  0.22376623  0.64248650  0.89286508  1
  O  O408  1  0.72138804  0.14045982  0.22436568  1
  O  O409  1  0.72342437  0.14206105  0.55803954  1
  O  O410  1  0.72493581  0.13987782  0.89316581  1
  O  O411  1  0.72544523  0.63733698  0.22558737  1
  O  O412  1  0.72192029  0.63334631  0.56523358  1
  O  O413  1  0.72507858  0.63950612  0.89417061  1
  O  O414  1  0.50400623  0.35566792  0.02886704  1
  O  O415  1  0.48785949  0.33991928  0.37034518  1
  O  O416  1  0.48900389  0.33687193  0.69890142  1
  O  O417  1  0.49294912  0.83114196  0.02896879  1
  O  O418  1  0.49425628  0.83995099  0.35273010  1
  O  O419  1  0.48506572  0.83156931  0.69954058  1
  O  O420  1  0.99371132  0.32802442  0.02894266  1
  O  O421  1  0.99781970  0.33412462  0.36623104  1
  O  O422  1  0.99049001  0.32373028  0.69460150  1
  O  O423  1  0.98861600  0.83207620  0.02931577  1
  O  O424  1  0.99280493  0.83207720  0.36284652  1
  O  O425  1  0.99099293  0.83607138  0.69820982  1
  O  O426  1  0.16921287  0.00916126  0.13999238  1
  O  O427  1  0.16690706  0.00690445  0.46764167  1
  O  O428  1  0.16516550  0.00521381  0.80334140  1
  O  O429  1  0.15138570  0.50013011  0.13636092  1
  O  O430  1  0.15447734  0.50283329  0.47570120  1
  O  O431  1  0.16579137  0.51358497  0.80114786  1
  O  O432  1  0.66154435  0.01296177  0.13406098  1
  O  O433  1  0.67115678  0.01212428  0.46815475  1
  O  O434  1  0.66737746  0.01129559  0.80087397  1
  O  O435  1  0.67481823  0.50604724  0.13680214  1
  O  O436  1  0.67001879  0.50557436  0.47232153  1
  O  O437  1  0.67319561  0.50867956  0.80609007  1
  O  O438  1  0.00122159  0.15533191  0.30425854  1
  O  O439  1  0.00009199  0.15451866  0.63128706  1
  O  O440  1  0.00773088  0.16135881  0.96391551  1
  O  O441  1  0.00547886  0.66851652  0.30914363  1
  O  O442  1  0.00711975  0.67442121  0.64030242  1
  O  O443  1  0.00490992  0.67260617  0.97135697  1
  O  O444  1  0.51136744  0.17446821  0.30474415  1
  O  O445  1  0.51009538  0.17248503  0.63810420  1
  O  O446  1  0.50655564  0.17288329  0.96853379  1
  O  O447  1  0.51252441  0.66385412  0.30196941  1
  O  O448  1  0.50207172  0.66080216  0.64300647  1
  O  O449  1  0.51421776  0.66523717  0.96999590  1
  O  O450  1  0.32204087  0.49063332  0.19957988  1
  O  O451  1  0.32615783  0.49234170  0.52664218  1
  O  O452  1  0.32942441  0.49756040  0.86260827  1
  O  O453  1  0.33390587  0.99475396  0.18774929  1
  O  O454  1  0.33522017  0.99803260  0.53582284  1
  O  O455  1  0.32608755  0.98940993  0.86396435  1
  O  O456  1  0.83998203  0.48981539  0.19631060  1
  O  O457  1  0.83578840  0.48908156  0.53215550  1
  O  O458  1  0.83593786  0.49072723  0.86603211  1
  O  O459  1  0.83676142  0.99828207  0.19235776  1
  O  O460  1  0.83821828  0.99358333  0.53278006  1
  O  O461  1  0.83326267  0.99301423  0.86443289  1
