# generated using pymatgen
data_Na31Fe20(SO4)36
_symmetry_space_group_name_H-M   'P 1'
_cell_length_a   18.08006710
_cell_length_b   18.08600562
_cell_length_c   19.71264976
_cell_angle_alpha   107.58875424
_cell_angle_beta   107.55273339
_cell_angle_gamma   90.76974382
_symmetry_Int_Tables_number   1
_chemical_formula_structural   Na31Fe20(SO4)36
_chemical_formula_sum   'Na62 Fe40 S72 O288'
_cell_volume   5819.61416464
_cell_formula_units_Z   2
loop_
 _symmetry_equiv_pos_site_id
 _symmetry_equiv_pos_as_xyz
  1  'x, y, z'
loop_
 _atom_site_type_symbol
 _atom_site_label
 _atom_site_symmetry_multiplicity
 _atom_site_fract_x
 _atom_site_fract_y
 _atom_site_fract_z
 _atom_site_occupancy
  Na  Na0  1  0.13677426  0.36805626  0.08546646  1
  Na  Na1  1  0.12489390  0.36500903  0.41275714  1
  Na  Na2  1  0.13217911  0.36627510  0.74803879  1
  Na  Na3  1  0.16501256  0.84761210  0.08851365  1
  Na  Na4  1  0.13832530  0.86847636  0.41109168  1
  Na  Na5  1  0.13569416  0.86392859  0.75437863  1
  Na  Na6  1  0.63894996  0.37097993  0.08590810  1
  Na  Na7  1  0.63053361  0.36971556  0.41617859  1
  Na  Na8  1  0.62754239  0.35865716  0.73939275  1
  Na  Na9  1  0.63265197  0.86270772  0.07765726  1
  Na  Na10  1  0.63120265  0.87355844  0.42165044  1
  Na  Na11  1  0.63695316  0.86868124  0.75633041  1
  Na  Na12  1  0.37696865  0.14325534  0.26954327  1
  Na  Na13  1  0.36533448  0.12487322  0.57160559  1
  Na  Na14  1  0.37552077  0.12419933  0.91643435  1
  Na  Na15  1  0.36171362  0.63514776  0.24055699  1
  Na  Na16  1  0.37343700  0.62733341  0.58334847  1
  Na  Na17  1  0.38852587  0.66151434  0.94746781  1
  Na  Na18  1  0.85556346  0.12547905  0.23235331  1
  Na  Na19  1  0.86357884  0.14097452  0.58391392  1
  Na  Na20  1  0.84523522  0.15417072  0.92097000  1
  Na  Na21  1  0.85935504  0.63370529  0.24574008  1
  Na  Na22  1  0.85956834  0.62533849  0.57875504  1
  Na  Na23  1  0.86490899  0.63392685  0.91972392  1
  Na  Na24  1  0.49405583  0.00778226  0.74856340  1
  Na  Na25  1  0.48219841  0.52512053  0.78600697  1
  Na  Na26  1  0.99722039  0.00974860  0.41486069  1
  Na  Na27  1  0.52962362  -0.00950748  0.06045785  1
  Na  Na28  1  0.98280986  0.00446547  0.08672557  1
  Na  Na29  1  0.98352130  0.01171805  0.75111855  1
  Na  Na30  1  0.49725497  0.06756629  0.44539830  1
  Na  Na31  1  0.94839101  0.50623683  0.73309888  1
  Na  Na32  1  0.99100857  0.50862553  0.09399819  1
  Na  Na33  1  0.50976977  0.42013848  0.53558234  1
  Na  Na34  1  0.04602584  0.99765323  0.26185612  1
  Na  Na35  1  0.50974473  0.96575728  0.24003280  1
  Na  Na36  1  0.00131040  0.99261120  0.92066401  1
  Na  Na37  1  0.01040517  0.99288121  0.58448763  1
  Na  Na38  1  -0.04056591  0.51252703  0.30571769  1
  Na  Na39  1  0.51565828  0.48324629  0.25573454  1
  Na  Na40  1  -0.00420154  0.49115557  0.57102803  1
  Na  Na41  1  0.00772461  0.49027347  0.91573999  1
  Na  Na42  1  0.25874903  0.25085265  0.65806548  1
  Na  Na43  1  0.26461727  0.76390449  0.31674496  1
  Na  Na44  1  0.74255177  0.74796419  0.34051431  1
  Na  Na45  1  0.73367436  0.23982652  0.68334505  1
  Na  Na46  1  0.25732212  0.25575953  0.32864731  1
  Na  Na47  1  0.75081690  0.25515537  0.32574354  1
  Na  Na48  1  0.73775416  0.74154519  0.67337716  1
  Na  Na49  1  0.25272062  0.25066059  -0.00593344  1
  Na  Na50  1  0.73651265  0.74002339  0.00376704  1
  Na  Na51  1  0.24909690  0.74391343  0.66890682  1
  Na  Na52  1  0.25354238  0.25390281  0.16557115  1
  Na  Na53  1  0.25658335  0.75769865  0.49504664  1
  Na  Na54  1  0.74448230  0.74096544  0.50495933  1
  Na  Na55  1  0.25717812  0.25682825  0.82697060  1
  Na  Na56  1  0.75897268  0.25988854  0.15129405  1
  Na  Na57  1  0.26253386  0.25596393  0.49081712  1
  Na  Na58  1  0.73115981  0.73726091  0.84095052  1
  Na  Na59  1  0.74433790  0.74064990  0.17203085  1
  Na  Na60  1  0.74703428  0.26440165  0.50408735  1
  Na  Na61  1  0.24703014  0.74370629  0.85254257  1
  Fe  Fe62  1  0.46927933  0.30675968  0.79027459  1
  Fe  Fe63  1  0.96112866  0.30527994  0.44938631  1
  Fe  Fe64  1  0.46641163  0.80839480  0.45213418  1
  Fe  Fe65  1  0.96225671  0.80997328  0.78617466  1
  Fe  Fe66  1  0.96499635  0.31032723  0.11963569  1
  Fe  Fe67  1  0.46372916  0.30575199  0.11872910  1
  Fe  Fe68  1  0.96962528  0.80618199  0.11859862  1
  Fe  Fe69  1  0.96287837  0.30741529  0.78241900  1
  Fe  Fe70  1  0.96541625  0.80782724  0.45131660  1
  Fe  Fe71  1  0.47094564  0.80180777  0.79270448  1
  Fe  Fe72  1  0.19205341  0.03414746  0.04885946  1
  Fe  Fe73  1  0.19213284  0.53975640  0.05011661  1
  Fe  Fe74  1  0.69265920  0.03413716  0.38031705  1
  Fe  Fe75  1  0.70248694  0.52737708  0.37323868  1
  Fe  Fe76  1  0.18803006  0.53706020  0.38048723  1
  Fe  Fe77  1  0.68215490  0.03921342  0.71070734  1
  Fe  Fe78  1  0.69639286  0.52923928  0.70514726  1
  Fe  Fe79  1  0.19406819  0.03293158  0.71839561  1
  Fe  Fe80  1  0.69232164  0.53177671  0.04075843  1
  Fe  Fe81  1  0.19100452  0.53664096  0.71854279  1
  Fe  Fe82  1  0.03911597  0.19064952  0.54728649  1
  Fe  Fe83  1  0.03922079  0.69563744  0.21754340  1
  Fe  Fe84  1  0.03175058  0.19550223  0.88319063  1
  Fe  Fe85  1  0.03302186  0.68999986  0.54647355  1
  Fe  Fe86  1  0.52852370  0.69836725  0.19984757  1
  Fe  Fe87  1  0.03213342  0.69236521  0.88249640  1
  Fe  Fe88  1  0.53401625  0.18682723  0.21004070  1
  Fe  Fe89  1  0.03703222  0.19241129  0.21710377  1
  Fe  Fe90  1  0.54223467  0.19066518  0.88528869  1
  Fe  Fe91  1  0.53332014  0.68852888  0.53952152  1
  Fe  Fe92  1  0.31025814  0.46645639  0.95865268  1
  Fe  Fe93  1  0.81036665  0.45698239  0.95086753  1
  Fe  Fe94  1  0.30474135  0.96385301  0.61896949  1
  Fe  Fe95  1  0.31113941  0.96276405  0.95798605  1
  Fe  Fe96  1  0.80479804  0.96457357  0.28108112  1
  Fe  Fe97  1  0.80671644  0.96524220  0.61781235  1
  Fe  Fe98  1  0.31307586  0.46439453  0.29271243  1
  Fe  Fe99  1  0.30524633  0.46908886  0.62234632  1
  Fe  Fe100  1  0.79746699  0.97151503  0.95206079  1
  Fe  Fe101  1  0.30758116  0.97067257  0.28942379  1
  S  S102  1  0.35500912  0.14212116  0.08290368  1
  S  S103  1  0.35430296  0.14280509  0.41750415  1
  S  S104  1  0.35947252  0.13768310  0.75168208  1
  S  S105  1  0.35714147  0.64081360  0.08266338  1
  S  S106  1  0.35594097  0.64266767  0.41377835  1
  S  S107  1  0.35372606  0.64246946  0.75292656  1
  S  S108  1  0.86649150  0.13873150  0.08164914  1
  S  S109  1  0.86093459  0.13629553  0.41735708  1
  S  S110  1  0.85969381  0.13966167  0.74902939  1
  S  S111  1  0.86567718  0.63946534  0.08427477  1
  S  S112  1  0.86136811  0.64482236  0.41623894  1
  S  S113  1  0.85724193  0.64708239  0.75024617  1
  S  S114  1  0.13885439  0.36113521  0.25194999  1
  S  S115  1  0.13985933  0.36154045  0.58279305  1
  S  S116  1  0.13930227  0.36156970  0.91696835  1
  S  S117  1  0.14308106  0.85798779  0.24694344  1
  S  S118  1  0.13795774  0.85823913  0.58495815  1
  S  S119  1  0.13555783  0.86073516  0.91626152  1
  S  S120  1  0.63765860  0.35669571  0.24635783  1
  S  S121  1  0.65535122  0.35734391  0.59231783  1
  S  S122  1  0.64452619  0.35637565  0.91739014  1
  S  S123  1  0.64531278  0.85858454  0.25096194  1
  S  S124  1  0.64123404  0.85801038  0.58309879  1
  S  S125  1  0.64325399  0.85851986  0.91373277  1
  S  S126  1  0.06885625  0.17036201  0.04156393  1
  S  S127  1  0.06299532  0.16878480  0.37768069  1
  S  S128  1  0.06580398  0.16641982  0.71054979  1
  S  S129  1  0.06514043  0.66554005  0.04100366  1
  S  S130  1  0.06688668  0.67389383  0.37817818  1
  S  S131  1  0.06379591  0.66996579  0.71000324  1
  S  S132  1  0.56679528  0.17311318  0.04746081  1
  S  S133  1  0.57425618  0.16060653  0.36978345  1
  S  S134  1  0.55794777  0.16751528  0.71059269  1
  S  S135  1  0.57471231  0.67302771  0.04233418  1
  S  S136  1  0.57047251  0.67504720  0.37094818  1
  S  S137  1  0.56767174  0.67061347  0.70620292  1
  S  S138  1  0.32596300  0.42951098  0.12523731  1
  S  S139  1  0.32074891  0.43359087  0.45270009  1
  S  S140  1  0.32282572  0.43056669  0.79141884  1
  S  S141  1  0.33586151  0.94590826  0.12745224  1
  S  S142  1  0.32952431  0.92545023  0.45841078  1
  S  S143  1  0.32653979  0.92713853  0.78858227  1
  S  S144  1  0.83670998  0.43758624  0.12464692  1
  S  S145  1  0.83050034  0.43266049  0.45764231  1
  S  S146  1  0.83613242  0.43691617  0.79384214  1
  S  S147  1  0.84252846  0.92941620  0.12621436  1
  S  S148  1  0.83563359  0.93566088  0.45954000  1
  S  S149  1  0.83070026  0.93619581  0.78940347  1
  S  S150  1  0.43429645  0.33214871  0.28990645  1
  S  S151  1  0.42646738  0.34284805  0.63338689  1
  S  S152  1  0.42743767  0.32262576  0.95360759  1
  S  S153  1  0.43606175  0.83027707  0.29050922  1
  S  S154  1  0.42955349  0.82423934  0.62583861  1
  S  S155  1  0.43560005  0.83877380  0.95812090  1
  S  S156  1  0.92892773  0.31971682  0.28416982  1
  S  S157  1  0.94170674  0.32719755  0.62144401  1
  S  S158  1  0.94028625  0.33381340  0.96022319  1
  S  S159  1  0.93526740  0.83133127  0.29131314  1
  S  S160  1  0.93406104  0.83280671  0.62484167  1
  S  S161  1  0.93046285  0.83188850  0.95559377  1
  S  S162  1  0.16882997  0.06652673  0.20648284  1
  S  S163  1  0.16460592  0.06107069  0.54488157  1
  S  S164  1  0.16257159  0.06588735  0.87520299  1
  S  S165  1  0.16898721  0.56715840  0.21148300  1
  S  S166  1  0.16524420  0.56632310  0.54266200  1
  S  S167  1  0.15930254  0.56629350  0.87308371  1
  S  S168  1  0.66999903  0.06161961  0.20786724  1
  S  S169  1  0.67543355  0.06795981  0.54908372  1
  S  S170  1  0.66784255  0.06771072  0.86991195  1
  S  S171  1  0.66746792  0.57459566  0.20760381  1
  S  S172  1  0.67048818  0.57189143  0.53627305  1
  S  S173  1  0.67876229  0.56197121  0.87511040  1
  O  O174  1  0.36330200  0.22126881  0.07440692  1
  O  O175  1  0.35915369  0.21323295  0.39489002  1
  O  O176  1  0.36703766  0.21840069  0.74742333  1
  O  O177  1  0.36181417  0.71394331  0.06881449  1
  O  O178  1  0.36670528  0.72227891  0.40740824  1
  O  O179  1  0.36862243  0.72278101  0.74867761  1
  O  O180  1  0.88052354  0.21639716  0.07221962  1
  O  O181  1  0.86592136  0.21554977  0.40988424  1
  O  O182  1  0.87097053  0.21737504  0.73866904  1
  O  O183  1  0.87419187  0.71624539  0.07130770  1
  O  O184  1  0.86904106  0.72716165  0.41295093  1
  O  O185  1  0.86670163  0.72862706  0.74646557  1
  O  O186  1  0.27502210  0.13413612  0.08934624  1
  O  O187  1  0.27706016  0.12899398  0.42483990  1
  O  O188  1  0.28131347  0.12825407  0.76278561  1
  O  O189  1  0.28392621  0.62413631  0.09921360  1
  O  O190  1  0.27700221  0.63473751  0.42260792  1
  O  O191  1  0.26984786  0.63671147  0.75241354  1
  O  O192  1  0.79365839  0.13339649  0.09767274  1
  O  O193  1  0.78591614  0.12555548  0.43189572  1
  O  O194  1  0.77899477  0.12948437  0.74987571  1
  O  O195  1  0.78678941  0.63136224  0.09212151  1
  O  O196  1  0.78054939  0.63353503  0.41955221  1
  O  O197  1  0.77613904  0.63663008  0.75300741  1
  O  O198  1  0.13105981  0.28283650  0.26240295  1
  O  O199  1  0.13364784  0.28261956  0.59226769  1
  O  O200  1  0.13008523  0.28316574  0.92633760  1
  O  O201  1  0.13456082  0.77759099  0.25431218  1
  O  O202  1  0.12811454  0.77949590  0.59318037  1
  O  O203  1  0.12610157  0.78072769  0.92058893  1
  O  O204  1  0.62374365  0.27905722  0.25633545  1
  O  O205  1  0.63920770  0.28803715  0.61226384  1
  O  O206  1  0.63271291  0.28014870  0.92838890  1
  O  O207  1  0.63139192  0.77635804  0.25259239  1
  O  O208  1  0.63086355  0.77729499  0.58747218  1
  O  O209  1  0.64398578  0.77762484  0.91499506  1
  O  O210  1  0.21908571  0.37023150  0.24621540  1
  O  O211  1  0.21772224  0.37124684  0.57302799  1
  O  O212  1  0.21833335  0.36956640  0.90899932  1
  O  O213  1  0.22373986  0.86979513  0.24470309  1
  O  O214  1  0.21715884  0.86658113  0.57787136  1
  O  O215  1  0.21331073  0.87207828  0.90681840  1
  O  O216  1  0.71383898  0.36188972  0.23630138  1
  O  O217  1  0.73821831  0.37163209  0.60088082  1
  O  O218  1  0.72220238  0.36463216  0.90778284  1
  O  O219  1  0.72770282  0.86386934  0.24815516  1
  O  O220  1  0.71999846  0.86594897  0.57323910  1
  O  O221  1  0.71756295  0.87642941  0.89688354  1
  O  O222  1  0.41286646  0.13511138  0.15113381  1
  O  O223  1  0.41602308  0.14726701  0.48779056  1
  O  O224  1  0.42005333  0.12487341  0.81580658  1
  O  O225  1  0.42249650  0.63757654  0.15195243  1
  O  O226  1  0.41498710  0.63459488  0.48138844  1
  O  O227  1  0.40551584  0.62847603  0.81927676  1
  O  O228  1  0.93148228  0.12446086  0.14420350  1
  O  O229  1  0.92477926  0.12628779  0.48203985  1
  O  O230  1  0.91564878  0.13503422  0.82077036  1
  O  O231  1  0.92467570  0.63674614  0.15529696  1
  O  O232  1  0.91692852  0.63904439  0.48741972  1
  O  O233  1  0.91320604  0.63945751  0.82091355  1
  O  O234  1  0.36134194  0.08363603  0.01382217  1
  O  O235  1  0.37010099  0.07595549  0.35516837  1
  O  O236  1  0.36281232  0.08053074  0.68050890  1
  O  O237  1  0.36430762  0.57574882  0.01719631  1
  O  O238  1  0.36176957  0.58445465  0.34454869  1
  O  O239  1  0.36063445  0.58584218  0.68250316  1
  O  O240  1  0.86922861  0.07886157  0.01053936  1
  O  O241  1  0.86672664  0.07838747  0.34733720  1
  O  O242  1  0.87610088  0.07902203  0.68551011  1
  O  O243  1  0.87744409  0.57708093  0.02062457  1
  O  O244  1  0.87375233  0.59043223  0.35029287  1
  O  O245  1  0.87067608  0.59158039  0.68507860  1
  O  O246  1  0.08211562  0.36550778  0.18130810  1
  O  O247  1  0.07909220  0.36986143  0.51617654  1
  O  O248  1  0.08028142  0.36837937  0.84833823  1
  O  O249  1  0.08745366  0.86086999  0.17409429  1
  O  O250  1  0.07959423  0.86715683  0.51687119  1
  O  O251  1  0.07531114  0.87131414  0.84896994  1
  O  O252  1  0.57586242  0.36840553  0.18068769  1
  O  O253  1  0.60661981  0.35190436  0.51524853  1
  O  O254  1  0.58439221  0.36434266  0.84949528  1
  O  O255  1  0.59073806  0.87416629  0.18713984  1
  O  O256  1  0.58159322  0.86717329  0.51660659  1
  O  O257  1  0.57884613  0.86419641  0.84567829  1
  O  O258  1  0.12709362  0.42074715  0.31728881  1
  O  O259  1  0.13242939  0.42051554  0.65138005  1
  O  O260  1  0.13062747  0.42202775  0.98399514  1
  O  O261  1  0.12660049  0.91478768  0.30992473  1
  O  O262  1  0.12849420  0.91771354  0.65233016  1
  O  O263  1  0.12652044  0.91821997  0.98449714  1
  O  O264  1  0.63070085  0.41790361  0.31484225  1
  O  O265  1  0.63006783  0.42546784  0.64649695  1
  O  O266  1  0.63809626  0.41737696  0.98559800  1
  O  O267  1  0.64097042  0.91301120  0.32329978  1
  O  O268  1  0.63679899  0.91491715  0.65314480  1
  O  O269  1  0.63784601  0.91366841  0.98255068  1
  O  O270  1  0.04077335  0.20340235  0.10693658  1
  O  O271  1  0.02752029  0.20750539  0.43884906  1
  O  O272  1  0.03191492  0.19893394  0.77310861  1
  O  O273  1  0.03216325  0.69868872  0.10407502  1
  O  O274  1  0.03042422  0.70355355  0.43947409  1
  O  O275  1  0.02695189  0.69902812  0.77069344  1
  O  O276  1  0.52235969  0.20313767  0.10408884  1
  O  O277  1  0.54627902  0.18248366  0.43355677  1
  O  O278  1  0.52901577  0.20120384  0.77866425  1
  O  O279  1  0.53680682  0.69808475  0.10363647  1
  O  O280  1  0.52804511  0.70147848  0.42823078  1
  O  O281  1  0.52354533  0.69849082  0.76030105  1
  O  O282  1  0.29453814  0.46276470  0.06238123  1
  O  O283  1  0.28786961  0.47575367  0.39510510  1
  O  O284  1  0.29366409  0.47063360  0.73243831  1
  O  O285  1  0.29200404  0.97599679  0.06181170  1
  O  O286  1  0.30900418  0.95756267  0.39633500  1
  O  O287  1  0.29774841  0.96609190  0.72818495  1
  O  O288  1  0.80138116  0.46897524  0.05970723  1
  O  O289  1  0.80110702  0.46587118  0.39542850  1
  O  O290  1  0.81126841  0.48152291  0.74118972  1
  O  O291  1  0.82207208  0.96125014  0.06352425  1
  O  O292  1  0.80431935  0.96846874  0.39705381  1
  O  O293  1  0.80228668  0.97163030  0.72797953  1
  O  O294  1  0.46459395  0.29796351  0.22420199  1
  O  O295  1  0.45543347  0.32895792  0.57043337  1
  O  O296  1  0.46794810  0.29366393  0.89576906  1
  O  O297  1  0.47751236  0.79974586  0.23393094  1
  O  O298  1  0.46814815  0.79779012  0.56640827  1
  O  O299  1  0.46453996  0.81069136  0.89230829  1
  O  O300  1  0.96950715  0.28925753  0.22479454  1
  O  O301  1  0.97668140  0.28946506  0.55986435  1
  O  O302  1  0.97222852  0.30149756  0.89544367  1
  O  O303  1  0.97228665  0.80214253  0.23065706  1
  O  O304  1  0.97011573  0.80229443  0.56415359  1
  O  O305  1  0.96786061  0.80015061  0.89533060  1
  O  O306  1  0.19969410  0.03125773  0.26580610  1
  O  O307  1  0.19699409  0.02960558  0.61036471  1
  O  O308  1  0.19282253  0.03196841  0.93690160  1
  O  O309  1  0.19655646  0.52786694  0.27005879  1
  O  O310  1  0.19756126  0.53038854  0.60358885  1
  O  O311  1  0.19130218  0.53424086  0.93670108  1
  O  O312  1  0.70264471  0.02864857  0.27329215  1
  O  O313  1  0.70764196  0.02531687  0.60665474  1
  O  O314  1  0.70261222  0.03804285  0.93287835  1
  O  O315  1  0.68268406  0.53698538  0.26643693  1
  O  O316  1  0.69093233  0.53835696  0.59762604  1
  O  O317  1  0.71408789  0.52581991  0.93690686  1
  O  O318  1  0.08306538  0.08705003  0.03475326  1
  O  O319  1  0.07435656  0.08915406  0.38011403  1
  O  O320  1  0.08121514  0.08378857  0.70707075  1
  O  O321  1  0.07734680  0.58173141  0.03618952  1
  O  O322  1  0.08413640  0.59237335  0.37383864  1
  O  O323  1  0.08013830  0.58736907  0.70226430  1
  O  O324  1  0.58619428  0.09584467  0.04780388  1
  O  O325  1  0.58586776  0.07351671  0.35185037  1
  O  O326  1  0.57715159  0.08582474  0.70980009  1
  O  O327  1  0.60072492  0.59487912  0.03984416  1
  O  O328  1  0.58992614  0.59462202  0.36427592  1
  O  O329  1  0.59437181  0.59476961  0.71032050  1
  O  O330  1  0.40737257  0.41235851  0.13165283  1
  O  O331  1  0.39642096  0.41316241  0.44764836  1
  O  O332  1  0.40391486  0.41286178  0.79785424  1
  O  O333  1  0.41711197  0.94584137  0.12834506  1
  O  O334  1  0.41133491  0.90591490  0.47514985  1
  O  O335  1  0.40592898  0.90597392  0.79053562  1
  O  O336  1  0.91552541  0.41369893  0.11905324  1
  O  O337  1  0.90930605  0.40444024  0.45563307  1
  O  O338  1  0.91832193  0.41626706  0.79420556  1
  O  O339  1  0.92877143  0.91705595  0.14383426  1
  O  O340  1  0.91863248  0.91932732  0.46400215  1
  O  O341  1  0.91505674  0.92151333  0.79615841  1
  O  O342  1  0.41475379  0.41334267  0.28881273  1
  O  O343  1  0.40881560  0.42733409  0.65714659  1
  O  O344  1  0.40108869  0.39870424  0.95103235  1
  O  O345  1  0.41387108  0.90849399  0.28703854  1
  O  O346  1  0.40902408  0.90541151  0.63351050  1
  O  O347  1  0.41410142  0.92081697  0.96337034  1
  O  O348  1  0.90505782  0.39531056  0.28226009  1
  O  O349  1  0.93599623  0.40896837  0.62495813  1
  O  O350  1  0.92930691  0.41792194  0.96708132  1
  O  O351  1  0.91606638  0.91266610  0.29710961  1
  O  O352  1  0.91839285  0.91573433  0.62912730  1
  O  O353  1  0.91576863  0.91424258  0.95915320  1
  O  O354  1  0.08566252  0.08323151  0.20355364  1
  O  O355  1  0.08316344  0.08253958  0.54545623  1
  O  O356  1  0.07925116  0.08177773  0.86910676  1
  O  O357  1  0.08782345  0.58757478  0.20754300  1
  O  O358  1  0.08428615  0.58399192  0.54204937  1
  O  O359  1  0.07505846  0.57922504  0.86674231  1
  O  O360  1  0.58830753  0.08026653  0.20356629  1
  O  O361  1  0.59766558  0.08441725  0.55014209  1
  O  O362  1  0.58494251  0.08184304  0.86592309  1
  O  O363  1  0.58721797  0.60044370  0.19548953  1
  O  O364  1  0.58823338  0.59073026  0.51988883  1
  O  O365  1  0.59933080  0.57609438  0.87243064  1
  O  O366  1  0.14034578  0.21852147  0.05097447  1
  O  O367  1  0.13512211  0.21770844  0.39067351  1
  O  O368  1  0.13807951  0.21542270  0.72417869  1
  O  O369  1  0.13697206  0.71090032  0.05148962  1
  O  O370  1  0.13729293  0.72589743  0.39362235  1
  O  O371  1  0.13548967  0.72207282  0.72783347  1
  O  O372  1  0.63445600  0.23063300  0.06706837  1
  O  O373  1  0.64827789  0.20689335  0.38158754  1
  O  O374  1  0.62928896  0.21650302  0.72350920  1
  O  O375  1  0.64536114  0.73058698  0.06512425  1
  O  O376  1  0.64149290  0.73128263  0.39460631  1
  O  O377  1  0.63559984  0.72922234  0.72416964  1
  O  O378  1  0.27397989  0.35755229  0.10932055  1
  O  O379  1  0.26398707  0.36472401  0.43499370  1
  O  O380  1  0.26969829  0.35733690  0.76917886  1
  O  O381  1  0.29531285  0.87038817  0.11472521  1
  O  O382  1  0.27409696  0.85456177  0.43999600  1
  O  O383  1  0.27091493  0.85775674  0.77053816  1
  O  O384  1  0.78541331  0.37014346  0.11656479  1
  O  O385  1  0.77560566  0.36402632  0.44540807  1
  O  O386  1  0.78437682  0.36646482  0.77700322  1
  O  O387  1  0.79387930  0.85627664  0.11050374  1
  O  O388  1  0.78615031  0.86461004  0.44798467  1
  O  O389  1  0.78190976  0.86307921  0.77207498  1
  O  O390  1  0.36070678  0.28282439  0.27469097  1
  O  O391  1  0.35455782  0.28920264  0.61520225  1
  O  O392  1  0.35922986  0.26465428  0.93662414  1
  O  O393  1  0.36830571  0.77515532  0.27622225  1
  O  O394  1  0.35885099  0.76952365  0.60692571  1
  O  O395  1  0.36511680  0.78730820  0.94471385  1
  O  O396  1  0.86117938  0.26222704  0.26759914  1
  O  O397  1  0.86766476  0.28046270  0.60540765  1
  O  O398  1  0.86808665  0.28819951  0.94781529  1
  O  O399  1  0.86565851  0.77788916  0.27621094  1
  O  O400  1  0.86226276  0.78330649  0.61041514  1
  O  O401  1  0.85841916  0.78186441  0.93991367  1
  O  O402  1  0.21588334  0.13941698  0.21779474  1
  O  O403  1  0.21538052  0.13157014  0.55767647  1
  O  O404  1  0.21166238  0.13747810  0.88763130  1
  O  O405  1  0.22264307  0.63638848  0.22798576  1
  O  O406  1  0.21585269  0.63797358  0.55675822  1
  O  O407  1  0.20582462  0.63794084  0.88371926  1
  O  O408  1  0.72148967  0.13319804  0.22421210  1
  O  O409  1  0.73062248  0.13808789  0.56873223  1
  O  O410  1  0.71287163  0.13792811  0.87468669  1
  O  O411  1  0.72628128  0.64386968  0.23056040  1
  O  O412  1  0.72511249  0.64429758  0.55710474  1
  O  O413  1  0.73086946  0.63549527  0.89475752  1
  O  O414  1  0.48478579  0.33131466  0.02846223  1
  O  O415  1  0.49418910  0.33672692  0.35953947  1
  O  O416  1  0.48702978  0.33445281  0.70173153  1
  O  O417  1  0.49863980  0.84454316  0.02677014  1
  O  O418  1  0.49327855  0.84093675  0.36731681  1
  O  O419  1  0.48748833  0.82576806  0.69912231  1
  O  O420  1  1.00222780  0.33350165  0.03050993  1
  O  O421  1  0.98851470  0.32453186  0.35764407  1
  O  O422  1  0.99798547  0.32473432  0.69466564  1
  O  O423  1  0.98968857  0.83415767  0.02813490  1
  O  O424  1  0.99552461  0.83535166  0.36435934  1
  O  O425  1  0.99315043  0.83671051  0.69808815  1
  O  O426  1  0.16070495  0.00702582  0.13176011  1
  O  O427  1  0.15455135  -0.00113504  0.47480201  1
  O  O428  1  0.16008141  0.00533454  0.80283075  1
  O  O429  1  0.16253469  0.50854950  0.13666831  1
  O  O430  1  0.16062196  0.50812416  0.46919929  1
  O  O431  1  0.15767444  0.50472442  0.80156002  1
  O  O432  1  0.66698281  -0.00019844  0.13894597  1
  O  O433  1  0.67381497  0.01183975  0.47426439  1
  O  O434  1  0.66226618  0.00385940  0.79682860  1
  O  O435  1  0.67193795  0.51600613  0.13789599  1
  O  O436  1  0.67727192  0.51373675  0.46664933  1
  O  O437  1  0.68201686  0.50610414  0.80300011  1
  O  O438  1  0.00511688  0.16357601  0.30301559  1
  O  O439  1  0.00628438  0.16293396  0.63821264  1
  O  O440  1  0.00582440  0.16813934  0.97093086  1
  O  O441  1  0.00699205  0.67067298  0.30580679  1
  O  O442  1  0.00507708  0.66966262  0.63769412  1
  O  O443  1  0.00290001  0.66350208  0.96954250  1
  O  O444  1  0.51305737  0.16633794  0.30020386  1
  O  O445  1  0.49405766  0.16323684  0.64373203  1
  O  O446  1  0.51011562  0.17026020  0.97234424  1
  O  O447  1  0.51552113  0.67648743  0.29721413  1
  O  O448  1  0.51277314  0.66111255  0.62889285  1
  O  O449  1  0.51825903  0.67136995  0.97194603  1
  O  O450  1  0.32532711  0.48955657  0.19602034  1
  O  O451  1  0.32665540  0.48997119  0.52824667  1
  O  O452  1  0.31966083  0.48675363  0.86257892  1
  O  O453  1  0.33074365  1.00408997  0.19864414  1
  O  O454  1  0.32378940  0.98540135  0.52835515  1
  O  O455  1  0.32690111  0.98641937  0.86023840  1
  O  O456  1  0.85137766  0.50192841  0.19517136  1
  O  O457  1  0.84630224  0.49311443  0.53098862  1
  O  O458  1  0.84796715  0.49123607  0.87236328  1
  O  O459  1  0.83613044  0.98940316  0.19531965  1
  O  O460  1  0.84073936  0.99609399  0.53259261  1
  O  O461  1  0.83233952  0.99453988  0.86160360  1
