# generated using pymatgen
data_Na31Fe20(SO4)36
_symmetry_space_group_name_H-M   'P 1'
_cell_length_a   18.09542579
_cell_length_b   18.08413514
_cell_length_c   19.72303484
_cell_angle_alpha   107.58245477
_cell_angle_beta   107.57722436
_cell_angle_gamma   90.78752579
_symmetry_Int_Tables_number   1
_chemical_formula_structural   Na31Fe20(SO4)36
_chemical_formula_sum   'Na62 Fe40 S72 O288'
_cell_volume   5826.12944038
_cell_formula_units_Z   2
loop_
 _symmetry_equiv_pos_site_id
 _symmetry_equiv_pos_as_xyz
  1  'x, y, z'
loop_
 _atom_site_type_symbol
 _atom_site_label
 _atom_site_symmetry_multiplicity
 _atom_site_fract_x
 _atom_site_fract_y
 _atom_site_fract_z
 _atom_site_occupancy
  Na  Na0  1  0.14114061  0.37148243  0.08613295  1
  Na  Na1  1  0.13267485  0.37466454  0.42144227  1
  Na  Na2  1  0.13693520  0.36823632  0.75195600  1
  Na  Na3  1  0.13620665  0.86380460  0.08908877  1
  Na  Na4  1  0.14929827  0.87477787  0.43141471  1
  Na  Na5  1  0.13250287  0.87006453  0.74249454  1
  Na  Na6  1  0.63202013  0.36528461  0.07992173  1
  Na  Na7  1  0.63361922  0.36844510  0.41731163  1
  Na  Na8  1  0.64232405  0.35818843  0.74758267  1
  Na  Na9  1  0.62867233  0.85553701  0.08120074  1
  Na  Na10  1  0.62656229  0.84783277  0.40208858  1
  Na  Na11  1  0.62972399  0.86581387  0.74468210  1
  Na  Na12  1  0.36928920  0.13043811  0.24805331  1
  Na  Na13  1  0.36522442  0.12942804  0.58481087  1
  Na  Na14  1  0.36132332  0.12630877  0.90669866  1
  Na  Na15  1  0.37157401  0.65560947  0.25980897  1
  Na  Na16  1  0.36779269  0.63821814  0.58480223  1
  Na  Na17  1  0.36590636  0.64437406  0.93462869  1
  Na  Na18  1  0.86993181  0.12973927  0.24958904  1
  Na  Na19  1  0.86298130  0.12180591  0.58398713  1
  Na  Na20  1  0.86262403  0.13319842  0.91508363  1
  Na  Na21  1  0.86888061  0.63786512  0.24953808  1
  Na  Na22  1  0.86575178  0.64838246  0.58706709  1
  Na  Na23  1  0.86774911  0.63659814  0.91928556  1
  Na  Na24  1  0.99977175  -0.01204316  0.42030835  1
  Na  Na25  1  0.49057817  0.52514813  0.39153449  1
  Na  Na26  1  0.99139013  0.51042300  0.74064590  1
  Na  Na27  1  0.49585700  0.59097179  0.14530076  1
  Na  Na28  1  0.44258602  0.00383603  0.73689976  1
  Na  Na29  1  0.50575975  -0.01365775  0.41242970  1
  Na  Na30  1  1.00217523  0.50976773  0.08586585  1
  Na  Na31  1  0.48986736  0.50890943  0.75534167  1
  Na  Na32  1  0.99286747  0.00423717  0.08441333  1
  Na  Na33  1  0.49796525  0.91891988  0.20538171  1
  Na  Na34  1  0.00163203  0.50320887  0.26563478  1
  Na  Na35  1  0.03836889  0.98413705  0.63249365  1
  Na  Na36  1  -0.01515123  0.54329342  0.53155732  1
  Na  Na37  1  0.50844572  0.49445320  0.57515385  1
  Na  Na38  1  0.47735131  0.49904381  0.93510909  1
  Na  Na39  1  0.50209808  0.98552848  0.94010235  1
  Na  Na40  1  0.05893754  0.49722915  0.93514179  1
  Na  Na41  1  0.50368659  0.94899743  0.56847997  1
  Na  Na42  1  0.74242510  0.74023178  0.01205800  1
  Na  Na43  1  0.76243975  0.77240423  0.65864344  1
  Na  Na44  1  0.75941803  0.75206756  0.31959110  1
  Na  Na45  1  0.23481111  0.22700330  0.67514588  1
  Na  Na46  1  0.25155637  0.76073662  0.65984070  1
  Na  Na47  1  0.26243306  0.76360773  0.32124667  1
  Na  Na48  1  0.24537248  0.24372282  0.00227804  1
  Na  Na49  1  0.24197145  0.24578231  0.33800884  1
  Na  Na50  1  0.24047767  0.73933170  0.02128585  1
  Na  Na51  1  0.74301742  0.24356340  0.33657758  1
  Na  Na52  1  0.24702872  0.75009998  0.83358017  1
  Na  Na53  1  0.75766817  0.25639972  0.15494980  1
  Na  Na54  1  0.75347277  0.75570898  0.83191876  1
  Na  Na55  1  0.25087893  0.25182159  0.17021073  1
  Na  Na56  1  0.23500257  0.23087018  0.83743536  1
  Na  Na57  1  0.76082314  0.76541561  0.49164848  1
  Na  Na58  1  0.75218891  0.24599341  0.83446401  1
  Na  Na59  1  0.24474174  0.24452784  0.50687997  1
  Na  Na60  1  0.74026684  0.23802314  0.51567799  1
  Na  Na61  1  0.26914806  0.77303679  0.49426797  1
  Fe  Fe62  1  0.95838444  0.30972323  0.78428655  1
  Fe  Fe63  1  0.46723681  0.31165339  0.12242722  1
  Fe  Fe64  1  0.97366938  0.80428554  0.46266691  1
  Fe  Fe65  1  0.96874778  0.80946002  0.78489161  1
  Fe  Fe66  1  0.96297130  0.81029086  0.12283529  1
  Fe  Fe67  1  0.96269433  0.30935019  0.45181160  1
  Fe  Fe68  1  0.46901438  0.30872724  0.78771768  1
  Fe  Fe69  1  0.96507397  0.30862707  0.11563495  1
  Fe  Fe70  1  0.46617112  0.80483387  0.79007218  1
  Fe  Fe71  1  0.46602984  0.30530933  0.45033256  1
  Fe  Fe72  1  0.69423060  0.03531166  0.04643443  1
  Fe  Fe73  1  0.19069601  0.54105930  0.38476180  1
  Fe  Fe74  1  0.18772112  0.53806391  0.70826249  1
  Fe  Fe75  1  0.18933900  0.03553868  0.37967187  1
  Fe  Fe76  1  0.69794695  0.02819594  0.70899749  1
  Fe  Fe77  1  0.69629859  0.53172107  0.04906093  1
  Fe  Fe78  1  0.69351906  0.53532505  0.71450347  1
  Fe  Fe79  1  0.69641812  0.02795811  0.38011470  1
  Fe  Fe80  1  0.18353892  0.03624153  0.04094742  1
  Fe  Fe81  1  0.69171327  0.53517400  0.37457697  1
  Fe  Fe82  1  0.03915282  0.69452270  0.21610996  1
  Fe  Fe83  1  0.53614621  0.18568296  0.20927565  1
  Fe  Fe84  1  0.03212103  0.18287983  0.87162610  1
  Fe  Fe85  1  0.03398433  0.19565324  0.21335840  1
  Fe  Fe86  1  0.53319384  0.69399618  0.88957681  1
  Fe  Fe87  1  0.02883509  0.19690167  0.54734811  1
  Fe  Fe88  1  0.53488471  0.18920148  0.54559161  1
  Fe  Fe89  1  0.53765689  0.19051557  0.87875662  1
  Fe  Fe90  1  0.53275027  0.69629577  0.54455741  1
  Fe  Fe91  1  0.03517509  0.69331830  0.88315639  1
  Fe  Fe92  1  0.29772429  0.46695692  0.95981695  1
  Fe  Fe93  1  0.80630153  0.96558674  0.95208070  1
  Fe  Fe94  1  0.81047791  0.96090748  0.28576226  1
  Fe  Fe95  1  0.30904546  0.96336081  0.28368520  1
  Fe  Fe96  1  0.80380802  0.46642999  0.61684414  1
  Fe  Fe97  1  0.80910167  0.46455440  0.94967455  1
  Fe  Fe98  1  0.81479878  0.46478548  0.28781768  1
  Fe  Fe99  1  0.30282104  0.46799202  0.28484764  1
  Fe  Fe100  1  0.30817394  0.46252567  0.61859020  1
  Fe  Fe101  1  0.30925333  0.96415741  0.95793123  1
  S  S102  1  0.36049552  0.14381882  0.08254633  1
  S  S103  1  0.35690429  0.14461160  0.41471515  1
  S  S104  1  0.36201287  0.14704688  0.74977415  1
  S  S105  1  0.34245899  0.63473241  0.07305916  1
  S  S106  1  0.35923640  0.63970047  0.41911156  1
  S  S107  1  0.36104285  0.63695276  0.75037652  1
  S  S108  1  0.86149227  0.14083099  0.08292003  1
  S  S109  1  0.85744142  0.14051895  0.41461557  1
  S  S110  1  0.85701284  0.14606965  0.75383345  1
  S  S111  1  0.86192447  0.63800767  0.08377442  1
  S  S112  1  0.86140778  0.63967521  0.41636055  1
  S  S113  1  0.85935142  0.64101340  0.74939240  1
  S  S114  1  0.13787636  0.36299914  0.25309883  1
  S  S115  1  0.13885605  0.36012172  0.58293069  1
  S  S116  1  0.13814003  0.35209585  0.91112040  1
  S  S117  1  0.13739338  0.86308576  0.24991163  1
  S  S118  1  0.14444297  0.85870705  0.57908457  1
  S  S119  1  0.14057353  0.85734460  0.91908669  1
  S  S120  1  0.64420215  0.35403022  0.25021382  1
  S  S121  1  0.63832226  0.36102007  0.58175004  1
  S  S122  1  0.64240763  0.35808017  0.91445713  1
  S  S123  1  0.64938410  0.85482118  0.25254353  1
  S  S124  1  0.63932279  0.85424681  0.58163193  1
  S  S125  1  0.64162162  0.85789268  0.91896850  1
  S  S126  1  0.06660213  0.17472664  0.04330092  1
  S  S127  1  0.06673535  0.17652919  0.37640936  1
  S  S128  1  0.06201440  0.17630877  0.71178496  1
  S  S129  1  0.06112615  0.67194036  0.04532291  1
  S  S130  1  0.06869678  0.67640530  0.37787823  1
  S  S131  1  0.06180728  0.66760781  0.70933483  1
  S  S132  1  0.56858586  0.17080200  0.04216777  1
  S  S133  1  0.57017052  0.17122739  0.37709699  1
  S  S134  1  0.57033203  0.16861939  0.70804486  1
  S  S135  1  0.56990195  0.65709881  0.03768453  1
  S  S136  1  0.56841974  0.66311421  0.37575282  1
  S  S137  1  0.56659209  0.66545610  0.70906637  1
  S  S138  1  0.32854268  0.42448208  0.12680496  1
  S  S139  1  0.33070888  0.43137368  0.45763812  1
  S  S140  1  0.33014873  0.43123287  0.79005180  1
  S  S141  1  0.31959025  0.93893300  0.11764439  1
  S  S142  1  0.33041650  0.94603709  0.45380321  1
  S  S143  1  0.33711751  0.92839825  0.79798415  1
  S  S144  1  0.83676290  0.43467185  0.12621755  1
  S  S145  1  0.82805048  0.43371576  0.45621710  1
  S  S146  1  0.83157219  0.43739191  0.79159821  1
  S  S147  1  0.82895535  0.93297093  0.12152795  1
  S  S148  1  0.83340729  0.92975021  0.45714615  1
  S  S149  1  0.82618024  0.92834465  0.79260087  1
  S  S150  1  0.43231939  0.33039187  0.29131537  1
  S  S151  1  0.43608493  0.33280817  0.62422044  1
  S  S152  1  0.42895860  0.32698495  0.95539645  1
  S  S153  1  0.43320623  0.83843879  0.28985749  1
  S  S154  1  0.43430368  0.82694185  0.62683089  1
  S  S155  1  0.43357701  0.82574578  0.95877511  1
  S  S156  1  0.93403942  0.32999541  0.28935726  1
  S  S157  1  0.92950606  0.33221198  0.62304420  1
  S  S158  1  0.93686337  0.33558429  0.95880034  1
  S  S159  1  0.93455817  0.82664295  0.29385700  1
  S  S160  1  0.93644164  0.83342119  0.62401262  1
  S  S161  1  0.93267276  0.82973115  0.95868426  1
  S  S162  1  0.16661212  0.07086348  0.20749865  1
  S  S163  1  0.15862847  0.07537933  0.53751838  1
  S  S164  1  0.17110710  0.06420378  0.87703129  1
  S  S165  1  0.16650320  0.56517064  0.21245497  1
  S  S166  1  0.17899353  0.56987524  0.54879701  1
  S  S167  1  0.16635318  0.56283972  0.86966061  1
  S  S168  1  0.67609065  0.06743913  0.20938395  1
  S  S169  1  0.66642236  0.06485056  0.53845838  1
  S  S170  1  0.67008321  0.06614285  0.87375918  1
  S  S171  1  0.68154944  0.56013577  0.21293371  1
  S  S172  1  0.66959398  0.56967414  0.54324138  1
  S  S173  1  0.67139393  0.56720958  0.87513735  1
  O  O174  1  0.37244763  0.22173409  0.07290536  1
  O  O175  1  0.36799034  0.22429125  0.40724110  1
  O  O176  1  0.37637255  0.22682829  0.74196375  1
  O  O177  1  0.36353838  0.70495990  0.05648832  1
  O  O178  1  0.36478662  0.71633498  0.41013035  1
  O  O179  1  0.37019814  0.71455555  0.74035602  1
  O  O180  1  0.87182705  0.22046669  0.07802441  1
  O  O181  1  0.86691850  0.21928722  0.40525503  1
  O  O182  1  0.86101980  0.23005665  0.75615689  1
  O  O183  1  0.86882243  0.71708496  0.07543742  1
  O  O184  1  0.87471270  0.72124213  0.41199419  1
  O  O185  1  0.86765212  0.71917938  0.74027223  1
  O  O186  1  0.28058201  0.13818310  0.08923266  1
  O  O187  1  0.27601915  0.13816961  0.41926281  1
  O  O188  1  0.28540741  0.14372616  0.76001506  1
  O  O189  1  0.25846802  0.62165082  0.05802222  1
  O  O190  1  0.28318390  0.62717050  0.43246538  1
  O  O191  1  0.28163231  0.62814482  0.75714432  1
  O  O192  1  0.78268081  0.13146728  0.09079635  1
  O  O193  1  0.77642711  0.13118584  0.41835328  1
  O  O194  1  0.77833900  0.12859876  0.76078686  1
  O  O195  1  0.78392454  0.62628797  0.09135079  1
  O  O196  1  0.77823730  0.63285175  0.41545489  1
  O  O197  1  0.78076237  0.63144765  0.75838069  1
  O  O198  1  0.12924324  0.28437848  0.26231642  1
  O  O199  1  0.12924029  0.28186560  0.59218787  1
  O  O200  1  0.13080862  0.26882609  0.91078540  1
  O  O201  1  0.13125903  0.78309053  0.25706559  1
  O  O202  1  0.13636896  0.77925443  0.58262202  1
  O  O203  1  0.13118447  0.77823697  0.92836599  1
  O  O204  1  0.63028788  0.27536934  0.25847065  1
  O  O205  1  0.62896743  0.28102641  0.58534794  1
  O  O206  1  0.63198174  0.27847975  0.91904485  1
  O  O207  1  0.63961686  0.78406117  0.27138060  1
  O  O208  1  0.62577425  0.77797254  0.59791332  1
  O  O209  1  0.63169962  0.77972386  0.92865462  1
  O  O210  1  0.21760223  0.37069764  0.24666317  1
  O  O211  1  0.21726461  0.36733198  0.57274002  1
  O  O212  1  0.21695473  0.36385171  0.90292407  1
  O  O213  1  0.21406032  0.87490938  0.23971529  1
  O  O214  1  0.21228714  0.87198597  0.55613381  1
  O  O215  1  0.22140011  0.86667197  0.91573676  1
  O  O216  1  0.72429778  0.35956507  0.24413957  1
  O  O217  1  0.71598411  0.37140618  0.57133551  1
  O  O218  1  0.72083640  0.36912504  0.90546666  1
  O  O219  1  0.73205676  0.86633376  0.25184227  1
  O  O220  1  0.71891800  0.85752116  0.57864482  1
  O  O221  1  0.72279971  0.86723468  0.91683444  1
  O  O222  1  0.41772593  0.13899231  0.15325495  1
  O  O223  1  0.41351882  0.13926923  0.48489148  1
  O  O224  1  0.42254611  0.13808172  0.81859079  1
  O  O225  1  0.38653830  0.63467927  0.14901725  1
  O  O226  1  0.42129954  0.63006908  0.48599110  1
  O  O227  1  0.41944008  0.62912005  0.81896699  1
  O  O228  1  0.92056515  0.13010264  0.15019732  1
  O  O229  1  0.91331964  0.13639354  0.48547929  1
  O  O230  1  0.91560253  0.13941408  0.82422013  1
  O  O231  1  0.92293974  0.62992075  0.15070928  1
  O  O232  1  0.91267421  0.62970024  0.48503021  1
  O  O233  1  0.91871874  0.63270158  0.81708955  1
  O  O234  1  0.36966317  0.08285135  0.01685899  1
  O  O235  1  0.36614578  0.08631764  0.34776588  1
  O  O236  1  0.36910651  0.08772848  0.68351048  1
  O  O237  1  0.36972822  0.56690177  0.01768700  1
  O  O238  1  0.36689059  0.57823760  0.35126403  1
  O  O239  1  0.37196811  0.57646770  0.68408129  1
  O  O240  1  0.86986496  0.08210983  0.01503003  1
  O  O241  1  0.86934100  0.08071825  0.34923697  1
  O  O242  1  0.86879601  0.09417263  0.68735966  1
  O  O243  1  0.87081152  0.57917681  0.01543362  1
  O  O244  1  0.87325337  0.58317906  0.34870755  1
  O  O245  1  0.86698198  0.58054538  0.68160701  1
  O  O246  1  0.08026678  0.36953880  0.18396666  1
  O  O247  1  0.07931305  0.36755073  0.51501274  1
  O  O248  1  0.07893423  0.36547489  0.84518355  1
  O  O249  1  0.07612547  0.87050038  0.18284160  1
  O  O250  1  0.07305296  0.87099933  0.51529979  1
  O  O251  1  0.08547927  0.86086498  0.84747411  1
  O  O252  1  0.58719391  0.36083842  0.18084078  1
  O  O253  1  0.57766140  0.37391246  0.51641066  1
  O  O254  1  0.58288314  0.36873549  0.84738211  1
  O  O255  1  0.59630250  0.85564765  0.18038017  1
  O  O256  1  0.58091997  0.85881016  0.51356665  1
  O  O257  1  0.58643482  0.86199780  0.84773130  1
  O  O258  1  0.12792303  0.42276690  0.31975198  1
  O  O259  1  0.13304429  0.41982198  0.65092739  1
  O  O260  1  0.12985768  0.40495706  0.98025821  1
  O  O261  1  0.12904671  0.91984913  0.31891100  1
  O  O262  1  0.14277452  0.91644922  0.64920675  1
  O  O263  1  0.12737085  0.91627145  0.98403460  1
  O  O264  1  0.63761799  0.41386508  0.31809240  1
  O  O265  1  0.63241055  0.41865921  0.65164076  1
  O  O266  1  0.63632555  0.41582057  0.98377135  1
  O  O267  1  0.63494098  0.92256935  0.31390158  1
  O  O268  1  0.62964176  0.91727704  0.64837961  1
  O  O269  1  0.62875099  0.91910989  0.98348388  1
  O  O270  1  0.03127141  0.20721273  0.10536528  1
  O  O271  1  0.02751296  0.20574306  0.43545005  1
  O  O272  1  0.01943820  0.20875946  0.76831882  1
  O  O273  1  0.02423274  0.70826542  0.10573664  1
  O  O274  1  0.03000808  0.70719052  0.43545007  1
  O  O275  1  0.02957986  0.70071172  0.77436739  1
  O  O276  1  0.53082835  0.19797747  0.10238554  1
  O  O277  1  0.52976762  0.20046056  0.43580954  1
  O  O278  1  0.53344519  0.19871822  0.76910245  1
  O  O279  1  0.54254915  0.67812508  0.10159564  1
  O  O280  1  0.53605972  0.67827397  0.44006968  1
  O  O281  1  0.52994149  0.69363167  0.76956925  1
  O  O282  1  0.29733626  0.44998952  0.06106122  1
  O  O283  1  0.29944656  0.46574023  0.39621632  1
  O  O284  1  0.30218158  0.46685867  0.72831814  1
  O  O285  1  0.28471730  0.97982005  0.05961497  1
  O  O286  1  0.29067696  0.97743367  0.38809114  1
  O  O287  1  0.31902224  0.96087893  0.73717789  1
  O  O288  1  0.80366247  0.46661841  0.06256146  1
  O  O289  1  0.79922486  0.47059926  0.39575357  1
  O  O290  1  0.79851637  0.47121782  0.72844503  1
  O  O291  1  0.79970276  0.97363354  0.06309982  1
  O  O292  1  0.80701417  0.96876630  0.39616087  1
  O  O293  1  0.79687081  0.96458225  0.73372640  1
  O  O294  1  0.46919315  0.30291050  0.23098383  1
  O  O295  1  0.47157239  0.30171357  0.56299262  1
  O  O296  1  0.47105153  0.30156171  0.89802625  1
  O  O297  1  0.45672458  0.80855982  0.22329605  1
  O  O298  1  0.46946235  0.78955970  0.56751061  1
  O  O299  1  0.47059093  0.79600874  0.89498031  1
  O  O300  1  0.97061311  0.29969719  0.22860862  1
  O  O301  1  0.96671526  0.30346378  0.56206788  1
  O  O302  1  0.97386732  0.30789870  0.89898404  1
  O  O303  1  0.97086687  0.79770880  0.23250438  1
  O  O304  1  0.96850834  0.79930889  0.56024542  1
  O  O305  1  0.96862083  0.80081742  0.89742001  1
  O  O306  1  0.19610563  0.03592540  0.26862108  1
  O  O307  1  0.17638798  0.04888064  0.60177522  1
  O  O308  1  0.20331019  0.02965080  0.94086399  1
  O  O309  1  0.19858892  0.53207724  0.27745671  1
  O  O310  1  0.20913100  0.52621963  0.60591525  1
  O  O311  1  0.18901842  0.51919190  0.92355718  1
  O  O312  1  0.70671608  0.02949386  0.26873151  1
  O  O313  1  0.68802870  0.03231637  0.60035036  1
  O  O314  1  0.70033158  0.02898092  0.93551972  1
  O  O315  1  0.71527260  0.51793366  0.27041602  1
  O  O316  1  0.69870296  0.53200387  0.60417627  1
  O  O317  1  0.70254991  0.53056793  0.93542155  1
  O  O318  1  0.08261723  0.09374108  0.04208992  1
  O  O319  1  0.08725560  0.09681172  0.37164457  1
  O  O320  1  0.08438454  0.10118323  0.71686618  1
  O  O321  1  0.07164709  0.59145353  0.04535282  1
  O  O322  1  0.08707648  0.59526235  0.37652715  1
  O  O323  1  0.08321176  0.58741716  0.71046992  1
  O  O324  1  0.58972589  0.09003051  0.03737878  1
  O  O325  1  0.59124077  0.09203317  0.37477351  1
  O  O326  1  0.58822543  0.08759146  0.70215854  1
  O  O327  1  0.59166323  0.57382546  0.02258329  1
  O  O328  1  0.58998619  0.57983955  0.36373199  1
  O  O329  1  0.58102177  0.58130847  0.70143504  1
  O  O330  1  0.41136091  0.40909003  0.13739385  1
  O  O331  1  0.41193670  0.41219350  0.46133670  1
  O  O332  1  0.41457381  0.41748650  0.79822122  1
  O  O333  1  0.39684708  0.92402180  0.11343836  1
  O  O334  1  0.41233685  0.93992640  0.45641500  1
  O  O335  1  0.42261076  0.91191958  0.81562932  1
  O  O336  1  0.91932955  0.41875274  0.12959744  1
  O  O337  1  0.90945741  0.41521473  0.46087179  1
  O  O338  1  0.91336347  0.42169539  0.79417388  1
  O  O339  1  0.90943680  0.91454769  0.12235524  1
  O  O340  1  0.91267774  0.90267925  0.45582744  1
  O  O341  1  0.90386682  0.90272313  0.79433308  1
  O  O342  1  0.41063225  0.41087208  0.29862695  1
  O  O343  1  0.42091057  0.41600959  0.62907016  1
  O  O344  1  0.40497672  0.40562622  0.95724059  1
  O  O345  1  0.41295989  0.92336078  0.29441579  1
  O  O346  1  0.42425960  0.90756596  0.62728078  1
  O  O347  1  0.41467052  0.90698622  0.96206387  1
  O  O348  1  0.91652956  0.41122590  0.29105311  1
  O  O349  1  0.90924435  0.41311402  0.62655976  1
  O  O350  1  0.91876208  0.41826460  0.96495828  1
  O  O351  1  0.91696720  0.90833706  0.29903401  1
  O  O352  1  0.92726546  0.91511674  0.63348155  1
  O  O353  1  0.91307882  0.91096283  0.96564590  1
  O  O354  1  0.08544711  0.09106683  0.20263539  1
  O  O355  1  0.07510633  0.09632921  0.51811223  1
  O  O356  1  0.09519182  0.09161087  0.88286621  1
  O  O357  1  0.08502243  0.58537378  0.21235303  1
  O  O358  1  0.10303991  0.59191489  0.55064528  1
  O  O359  1  0.08342625  0.58146180  0.86426555  1
  O  O360  1  0.59698436  0.08862338  0.20867745  1
  O  O361  1  0.58334338  0.08592836  0.52588071  1
  O  O362  1  0.58836335  0.08280783  0.87009382  1
  O  O363  1  0.60585361  0.57846061  0.21871209  1
  O  O364  1  0.58725518  0.58592998  0.53894616  1
  O  O365  1  0.58985544  0.58533712  0.86930667  1
  O  O366  1  0.13929498  0.22530004  0.06004424  1
  O  O367  1  0.13704944  0.23169573  0.39483869  1
  O  O368  1  0.13119092  0.23292050  0.72921533  1
  O  O369  1  0.13221256  0.72162699  0.05969219  1
  O  O370  1  0.13979102  0.72688014  0.39117148  1
  O  O371  1  0.13241736  0.71882406  0.72227014  1
  O  O372  1  0.63769159  0.22532570  0.05901923  1
  O  O373  1  0.64020834  0.22728448  0.39711027  1
  O  O374  1  0.64001389  0.22246491  0.72446811  1
  O  O375  1  0.63555692  0.71068921  0.04375014  1
  O  O376  1  0.63925102  0.71743325  0.39736659  1
  O  O377  1  0.63944585  0.71485170  0.72678601  1
  O  O378  1  0.27916860  0.35215872  0.11679761  1
  O  O379  1  0.27854956  0.36132782  0.44496708  1
  O  O380  1  0.28024015  0.35836856  0.77195950  1
  O  O381  1  0.26687863  0.86854928  0.10106099  1
  O  O382  1  0.28638570  0.86824965  0.43450961  1
  O  O383  1  0.28587807  0.85593801  0.78210746  1
  O  O384  1  0.78758802  0.36477988  0.11637256  1
  O  O385  1  0.77583788  0.36314542  0.44088824  1
  O  O386  1  0.78159311  0.36760186  0.78025710  1
  O  O387  1  0.77578379  0.86264150  0.10312390  1
  O  O388  1  0.77731794  0.85978779  0.43636590  1
  O  O389  1  0.77034420  0.85974054  0.78029226  1
  O  O390  1  0.36306672  0.27552333  0.27574600  1
  O  O391  1  0.36371054  0.28375421  0.60894294  1
  O  O392  1  0.36088518  0.27010052  0.93732307  1
  O  O393  1  0.36299831  0.79205829  0.28567239  1
  O  O394  1  0.35985477  0.78008566  0.61253344  1
  O  O395  1  0.36077261  0.77380883  0.93629010  1
  O  O396  1  0.86293359  0.27831517  0.27329766  1
  O  O397  1  0.86089912  0.27837620  0.60797231  1
  O  O398  1  0.86657433  0.28406449  0.94431377  1
  O  O399  1  0.86547313  0.77358158  0.27832801  1
  O  O400  1  0.86233543  0.78341365  0.60692855  1
  O  O401  1  0.86209300  0.77617434  0.94225156  1
  O  O402  1  0.21942880  0.14171288  0.22227294  1
  O  O403  1  0.21340525  0.14460473  0.54966164  1
  O  O404  1  0.22770730  0.13349797  0.89362353  1
  O  O405  1  0.21795082  0.63508367  0.22664594  1
  O  O406  1  0.23671905  0.63696151  0.56731750  1
  O  O407  1  0.21825230  0.63498382  0.88975616  1
  O  O408  1  0.72993703  0.13787323  0.22510238  1
  O  O409  1  0.72046588  0.13337590  0.55206424  1
  O  O410  1  0.72176847  0.13697400  0.89046848  1
  O  O411  1  0.73626545  0.62858201  0.22869504  1
  O  O412  1  0.72147790  0.64104507  0.56094535  1
  O  O413  1  0.72328170  0.63852208  0.89078695  1
  O  O414  1  0.48778513  0.33221175  0.02936171  1
  O  O415  1  0.49302234  0.33297551  0.36366373  1
  O  O416  1  0.49521967  0.33642584  0.69716356  1
  O  O417  1  0.49236133  0.82493554  0.02724247  1
  O  O418  1  0.49742869  0.84955268  0.36046092  1
  O  O419  1  0.49038275  0.82875147  0.70190234  1
  O  O420  1  0.99683793  0.34010403  0.03236354  1
  O  O421  1  0.99190102  0.33476052  0.36291306  1
  O  O422  1  0.98978507  0.33846319  0.69617409  1
  O  O423  1  0.99199652  0.83245164  0.03130026  1
  O  O424  1  0.99494848  0.83068023  0.36722462  1
  O  O425  1  0.99426662  0.82433172  0.69352224  1
  O  O426  1  0.16053669  0.01140281  0.13392775  1
  O  O427  1  0.15779176  0.01237292  0.46608431  1
  O  O428  1  0.16254219  0.00452952  0.80633416  1
  O  O429  1  0.15708342  0.50287775  0.14219027  1
  O  O430  1  0.17420469  0.51132477  0.47414749  1
  O  O431  1  0.16357946  0.50765570  0.79445369  1
  O  O432  1  0.67091788  0.00928358  0.13537250  1
  O  O433  1  0.66388698  0.00254879  0.46674518  1
  O  O434  1  0.66780353  0.00636385  0.80171654  1
  O  O435  1  0.67513611  0.50232297  0.13752311  1
  O  O436  1  0.66799083  0.51084045  0.47105740  1
  O  O437  1  0.66816711  0.50750145  0.80207976  1
  O  O438  1  0.00836383  0.17453591  0.30352683  1
  O  O439  1  0.00561870  0.17067654  0.63635158  1
  O  O440  1  0.00839587  0.17382612  0.97186417  1
  O  O441  1  0.00987910  0.66801193  0.30240948  1
  O  O442  1  -0.00049113  0.65769004  0.63892093  1
  O  O443  1  0.00396944  0.66808617  0.96991022  1
  O  O444  1  0.51275572  0.16898401  0.30384569  1
  O  O445  1  0.51001765  0.16820668  0.63594517  1
  O  O446  1  0.50919285  0.16622613  0.96904493  1
  O  O447  1  0.50742827  0.66499521  0.30890460  1
  O  O448  1  0.50943322  0.66411625  0.63553761  1
  O  O449  1  0.50375231  0.65137751  0.96546612  1
  O  O450  1  0.32631647  0.48728516  0.19576414  1
  O  O451  1  0.33706023  0.49157734  0.53114641  1
  O  O452  1  0.33023096  0.48952227  0.86202362  1
  O  O453  1  0.32304557  0.99590960  0.19239682  1
  O  O454  1  0.32473886  1.00118503  0.52264746  1
  O  O455  1  0.33424261  0.98793263  0.86973079  1
  O  O456  1  0.84412998  0.49693986  0.19874942  1
  O  O457  1  0.83184177  0.49395440  0.52898635  1
  O  O458  1  0.83540950  0.49898814  0.86353445  1
  O  O459  1  0.83398534  0.98986759  0.19586767  1
  O  O460  1  0.84023190  0.98794057  0.52816664  1
  O  O461  1  0.83395052  0.98860902  0.86733317  1
