# generated using pymatgen
data_Na31Fe20(SO4)36
_symmetry_space_group_name_H-M   'P 1'
_cell_length_a   18.07740704
_cell_length_b   18.08250614
_cell_length_c   19.71931732
_cell_angle_alpha   107.59357377
_cell_angle_beta   107.55413897
_cell_angle_gamma   90.71279692
_symmetry_Int_Tables_number   1
_chemical_formula_structural   Na31Fe20(SO4)36
_chemical_formula_sum   'Na62 Fe40 S72 O288'
_cell_volume   5820.11207385
_cell_formula_units_Z   2
loop_
 _symmetry_equiv_pos_site_id
 _symmetry_equiv_pos_as_xyz
  1  'x, y, z'
loop_
 _atom_site_type_symbol
 _atom_site_label
 _atom_site_symmetry_multiplicity
 _atom_site_fract_x
 _atom_site_fract_y
 _atom_site_fract_z
 _atom_site_occupancy
  Na  Na0  1  0.13250779  0.36777630  0.09627446  1
  Na  Na1  1  0.13068841  0.36077121  0.41187923  1
  Na  Na2  1  0.14517778  0.36484285  0.75322644  1
  Na  Na3  1  0.14488253  0.87955438  0.09323597  1
  Na  Na4  1  0.14181313  0.83065136  0.38928910  1
  Na  Na5  1  0.13088955  0.86184814  0.74457408  1
  Na  Na6  1  0.63490662  0.36798772  0.08513450  1
  Na  Na7  1  0.63230293  0.37431748  0.41933390  1
  Na  Na8  1  0.63758703  0.36515991  0.74579881  1
  Na  Na9  1  0.62764963  0.85658496  0.08420906  1
  Na  Na10  1  0.62476902  0.85803929  0.40525268  1
  Na  Na11  1  0.62515755  0.87454522  0.74737861  1
  Na  Na12  1  0.36394355  0.12836414  0.23797178  1
  Na  Na13  1  0.37723137  0.12882727  0.58624415  1
  Na  Na14  1  0.37269862  0.12761293  0.91701349  1
  Na  Na15  1  0.35733803  0.65072499  0.26004839  1
  Na  Na16  1  0.36223365  0.63100140  0.57899794  1
  Na  Na17  1  0.36656688  0.64013976  0.93093823  1
  Na  Na18  1  0.86247899  0.13213462  0.24612491  1
  Na  Na19  1  0.85851978  0.13079178  0.58689521  1
  Na  Na20  1  0.87771155  0.13940529  0.93005668  1
  Na  Na21  1  0.86587580  0.63835056  0.24369063  1
  Na  Na22  1  0.86628732  0.63654890  0.58162780  1
  Na  Na23  1  0.86398455  0.63907935  0.91793063  1
  Na  Na24  1  0.48716191  -0.00233311  0.07323763  1
  Na  Na25  1  0.96023357  0.00610685  0.75001289  1
  Na  Na26  1  0.48718075  0.52288443  0.73337803  1
  Na  Na27  1  1.01911611  0.49094672  0.74403678  1
  Na  Na28  1  0.49068224  -0.00535572  0.43925958  1
  Na  Na29  1  1.01705568  -0.01771258  0.41053462  1
  Na  Na30  1  0.98525626  0.53221723  0.09022797  1
  Na  Na31  1  0.49294489  0.57459950  0.12925810  1
  Na  Na32  1  0.99056996  0.51651384  0.41008750  1
  Na  Na33  1  -0.00603662  0.99195186  0.58662367  1
  Na  Na34  1  0.04555018  0.49251475  0.58765007  1
  Na  Na35  1  0.01099974  0.99968960  0.22145759  1
  Na  Na36  1  0.01792574  0.48113346  0.23855046  1
  Na  Na37  1  0.50027855  0.94139339  0.23369643  1
  Na  Na38  1  0.45335086  0.52067864  0.30435623  1
  Na  Na39  1  0.50713923  0.48752664  0.91884188  1
  Na  Na40  1  0.01184291  0.49180916  0.91853168  1
  Na  Na41  1  0.03422621  0.98304653  0.95567748  1
  Na  Na42  1  0.26134179  0.26450100  0.32690963  1
  Na  Na43  1  0.25803761  0.75444033  0.65723106  1
  Na  Na44  1  0.74856634  0.24929319  0.33720666  1
  Na  Na45  1  0.24411655  0.24003075  0.00701931  1
  Na  Na46  1  0.76763275  0.26003875  -0.00578091  1
  Na  Na47  1  0.75449635  0.76718850  0.65744486  1
  Na  Na48  1  0.24561601  0.75113330  0.00593330  1
  Na  Na49  1  0.75466878  0.75878602  0.31502424  1
  Na  Na50  1  0.73643573  0.73975311  0.01302758  1
  Na  Na51  1  0.25870698  0.25433561  0.66230574  1
  Na  Na52  1  0.22893691  0.74236545  0.18751242  1
  Na  Na53  1  0.24793735  0.24444276  0.83823201  1
  Na  Na54  1  0.74912567  0.75266546  0.83134336  1
  Na  Na55  1  0.25587264  0.25804357  0.49514005  1
  Na  Na56  1  0.25176205  0.25250467  0.16831636  1
  Na  Na57  1  0.24355952  0.73598396  0.83335857  1
  Na  Na58  1  0.74118260  0.24108177  0.51273677  1
  Na  Na59  1  0.76514278  0.25918614  0.82070666  1
  Na  Na60  1  0.75494016  0.76461094  0.48917119  1
  Na  Na61  1  0.76573443  0.25619161  0.15885102  1
  Fe  Fe62  1  0.96769067  0.79938572  0.11925959  1
  Fe  Fe63  1  0.96516545  0.30656603  0.45280470  1
  Fe  Fe64  1  0.96337278  0.30798503  0.78416906  1
  Fe  Fe65  1  0.45714001  0.80977554  0.45582640  1
  Fe  Fe66  1  0.96427547  0.80494467  0.78401241  1
  Fe  Fe67  1  0.96986964  0.80037167  0.44451919  1
  Fe  Fe68  1  0.46864887  0.30246126  0.78670391  1
  Fe  Fe69  1  0.46738094  0.31256275  0.12284291  1
  Fe  Fe70  1  0.46557555  0.31326726  0.45442292  1
  Fe  Fe71  1  0.46250621  0.81241977  0.78813574  1
  Fe  Fe72  1  0.69869123  0.03071610  0.70877047  1
  Fe  Fe73  1  0.20006827  0.53215917  0.37669721  1
  Fe  Fe74  1  0.19082281  0.03324392  0.71185290  1
  Fe  Fe75  1  0.69298671  0.53630784  0.05086604  1
  Fe  Fe76  1  0.68711499  0.53778104  0.70692139  1
  Fe  Fe77  1  0.19412829  0.53099382  0.05359974  1
  Fe  Fe78  1  0.68533552  0.54091123  0.37645500  1
  Fe  Fe79  1  0.19381354  0.03921816  0.38281118  1
  Fe  Fe80  1  0.69497431  0.03159214  0.38190917  1
  Fe  Fe81  1  0.69251106  0.03186640  0.04379424  1
  Fe  Fe82  1  0.03817316  0.69062948  0.54673851  1
  Fe  Fe83  1  0.52984277  0.69679237  0.88375593  1
  Fe  Fe84  1  0.03441881  0.68577446  0.87624122  1
  Fe  Fe85  1  0.53843471  0.19160267  0.21296417  1
  Fe  Fe86  1  0.52938758  0.69158178  0.54502825  1
  Fe  Fe87  1  0.03391931  0.19558153  0.88444131  1
  Fe  Fe88  1  0.03171620  0.18916525  0.54558648  1
  Fe  Fe89  1  0.54046914  0.19466058  0.54874384  1
  Fe  Fe90  1  0.53956476  0.18632386  0.87811043  1
  Fe  Fe91  1  0.03053393  0.19925616  0.20833171  1
  Fe  Fe92  1  0.30969900  0.46560235  0.95793406  1
  Fe  Fe93  1  0.29977729  0.46817960  0.62570972  1
  Fe  Fe94  1  0.80671293  0.46639753  0.94816858  1
  Fe  Fe95  1  0.80798702  0.46666622  0.61677265  1
  Fe  Fe96  1  0.80848868  0.96235199  0.28450778  1
  Fe  Fe97  1  0.30996659  0.96256805  0.62011709  1
  Fe  Fe98  1  0.81216941  0.96077085  0.95560998  1
  Fe  Fe99  1  0.80827928  0.46440457  0.28391240  1
  Fe  Fe100  1  0.30365614  0.97345207  0.28376893  1
  Fe  Fe101  1  0.29663944  0.96754359  0.95442117  1
  S  S102  1  0.36549462  0.14211674  0.07961401  1
  S  S103  1  0.36245504  0.14423960  0.42081620  1
  S  S104  1  0.35973818  0.13942970  0.75086095  1
  S  S105  1  0.34911128  0.64393922  0.08538158  1
  S  S106  1  0.35632535  0.64357415  0.41900620  1
  S  S107  1  0.35851713  0.64055500  0.74957066  1
  S  S108  1  0.85952576  0.13525579  0.08405742  1
  S  S109  1  0.85850980  0.13960863  0.41598594  1
  S  S110  1  0.86199574  0.14242406  0.75198173  1
  S  S111  1  0.85467069  0.63989557  0.07637741  1
  S  S112  1  0.86024507  0.63941532  0.41576238  1
  S  S113  1  0.85635260  0.64133598  0.74819772  1
  S  S114  1  0.13995904  0.35928321  0.25759462  1
  S  S115  1  0.13892690  0.35311110  0.58557749  1
  S  S116  1  0.14011884  0.35936109  0.91437344  1
  S  S117  1  0.13494297  0.87034524  0.24744827  1
  S  S118  1  0.13924820  0.85862529  0.58014922  1
  S  S119  1  0.13887597  0.84981167  0.91112675  1
  S  S120  1  0.64393714  0.35931580  0.25068054  1
  S  S121  1  0.64164642  0.36179319  0.58142711  1
  S  S122  1  0.64303870  0.35824377  0.91624430  1
  S  S123  1  0.64229015  0.86069788  0.25209850  1
  S  S124  1  0.63555807  0.85821662  0.58180781  1
  S  S125  1  0.64059717  0.85892723  0.91729137  1
  S  S126  1  0.07371878  0.17500964  0.04601214  1
  S  S127  1  0.06299348  0.16717559  0.37569196  1
  S  S128  1  0.06565022  0.17055101  0.70909410  1
  S  S129  1  0.06570387  0.66818807  0.03949148  1
  S  S130  1  0.06239140  0.65389772  0.36871618  1
  S  S131  1  0.06043313  0.66367073  0.70677313  1
  S  S132  1  0.57513317  0.17194114  0.04443819  1
  S  S133  1  0.57118674  0.17343945  0.37761236  1
  S  S134  1  0.57447441  0.17321293  0.71283323  1
  S  S135  1  0.56473696  0.66215494  0.03716863  1
  S  S136  1  0.56126472  0.67203645  0.37758903  1
  S  S137  1  0.56663121  0.67401262  0.71115474  1
  S  S138  1  0.33141383  0.43158976  0.12515548  1
  S  S139  1  0.32386945  0.43043669  0.46092838  1
  S  S140  1  0.33564158  0.42941477  0.79449603  1
  S  S141  1  0.32909688  0.94014351  0.11957473  1
  S  S142  1  0.32374885  0.93649618  0.45940188  1
  S  S143  1  0.32127290  0.93038951  0.78832822  1
  S  S144  1  0.83310067  0.44014255  0.12237147  1
  S  S145  1  0.83686458  0.43523702  0.45941281  1
  S  S146  1  0.83339806  0.43700682  0.78909836  1
  S  S147  1  0.82881266  0.92714001  0.12246518  1
  S  S148  1  0.83907375  0.93511843  0.45732295  1
  S  S149  1  0.83171940  0.93196486  0.79413518  1
  S  S150  1  0.43427549  0.32335486  0.28839018  1
  S  S151  1  0.43329502  0.32895450  0.62600959  1
  S  S152  1  0.43601489  0.32760959  0.95623308  1
  S  S153  1  0.42373938  0.84126185  0.29685507  1
  S  S154  1  0.42788938  0.82777420  0.62534065  1
  S  S155  1  0.42915841  0.83061433  0.95470562  1
  S  S156  1  0.93009939  0.33003317  0.29319026  1
  S  S157  1  0.93326999  0.33093738  0.62322463  1
  S  S158  1  0.93923199  0.33958860  0.95866435  1
  S  S159  1  0.93253033  0.82916770  0.28815319  1
  S  S160  1  0.93777098  0.82876538  0.62120802  1
  S  S161  1  0.93527795  0.82559209  0.95547544  1
  S  S162  1  0.17047589  0.07662640  0.21341474  1
  S  S163  1  0.16720067  0.06706016  0.54326587  1
  S  S164  1  0.16324613  0.06428457  0.86977483  1
  S  S165  1  0.16547053  0.56205281  0.21075884  1
  S  S166  1  0.17123982  0.56360652  0.54058271  1
  S  S167  1  0.16863933  0.55949985  0.87591803  1
  S  S168  1  0.67132455  0.06671212  0.20806376  1
  S  S169  1  0.67038264  0.06800403  0.54086613  1
  S  S170  1  0.68106830  0.06985159  0.87838597  1
  S  S171  1  0.67514282  0.56631744  0.21525615  1
  S  S172  1  0.67443329  0.57371373  0.54431137  1
  S  S173  1  0.66711512  0.56568572  0.87086014  1
  O  O174  1  0.38269424  0.21756701  0.06639017  1
  O  O175  1  0.36933477  0.22551774  0.41734332  1
  O  O176  1  0.36908307  0.21835393  0.74175523  1
  O  O177  1  0.35743949  0.71290844  0.06355452  1
  O  O178  1  0.36250718  0.72508975  0.41737208  1
  O  O179  1  0.37026577  0.71863935  0.73979941  1
  O  O180  1  0.86243124  0.21160651  0.07318907  1
  O  O181  1  0.86877818  0.21932131  0.40951940  1
  O  O182  1  0.86955657  0.22369311  0.74786459  1
  O  O183  1  0.86733085  0.71672883  0.06489564  1
  O  O184  1  0.87087580  0.71861423  0.40831798  1
  O  O185  1  0.86296688  0.72095073  0.74062296  1
  O  O186  1  0.28998681  0.14395578  0.09214617  1
  O  O187  1  0.28583720  0.13397830  0.43363624  1
  O  O188  1  0.28041612  0.13152398  0.75906220  1
  O  O189  1  0.26591638  0.63187130  0.08584950  1
  O  O190  1  0.27678083  0.62726414  0.42626264  1
  O  O191  1  0.28196534  0.63040321  0.75712201  1
  O  O192  1  0.78226220  0.12150434  0.09618266  1
  O  O193  1  0.77855867  0.13145447  0.42234896  1
  O  O194  1  0.78191702  0.13036609  0.75614000  1
  O  O195  1  0.77227854  0.63352965  0.07634923  1
  O  O196  1  0.78131470  0.63208335  0.42408183  1
  O  O197  1  0.77755787  0.63030559  0.75628173  1
  O  O198  1  0.12047705  0.28664170  0.27470778  1
  O  O199  1  0.12870362  0.27219324  0.58993622  1
  O  O200  1  0.13296050  0.27901501  0.91988279  1
  O  O201  1  0.13096916  0.79327212  0.25543687  1
  O  O202  1  0.13117605  0.78218517  0.59417502  1
  O  O203  1  0.13219367  0.76558893  0.90849349  1
  O  O204  1  0.63469112  0.28069182  0.25948563  1
  O  O205  1  0.63382814  0.28256838  0.58849830  1
  O  O206  1  0.63540985  0.27875829  0.92277895  1
  O  O207  1  0.63166775  0.78758247  0.26664011  1
  O  O208  1  0.62193439  0.78160665  0.59489363  1
  O  O209  1  0.62964486  0.77963925  0.92494190  1
  O  O210  1  0.21893619  0.35590984  0.25196670  1
  O  O211  1  0.22097940  0.36246801  0.58438571  1
  O  O212  1  0.21866908  0.36944033  0.90553882  1
  O  O213  1  0.21067862  0.88548089  0.23425103  1
  O  O214  1  0.21988223  0.87077436  0.57973738  1
  O  O215  1  0.21812633  0.86337876  0.90547177  1
  O  O216  1  0.72140066  0.36570190  0.23824034  1
  O  O217  1  0.71958319  0.37168109  0.57093607  1
  O  O218  1  0.72264196  0.36872956  0.90885161  1
  O  O219  1  0.72471569  0.87130830  0.25016190  1
  O  O220  1  0.71143019  0.86019125  0.56956392  1
  O  O221  1  0.72076064  0.86658782  0.91093511  1
  O  O222  1  0.42706697  0.13031784  0.14492878  1
  O  O223  1  0.42478274  0.13307900  0.48562649  1
  O  O224  1  0.41891183  0.13414762  0.81959807  1
  O  O225  1  0.40114886  0.64673312  0.15921939  1
  O  O226  1  0.41482540  0.63480959  0.48762905  1
  O  O227  1  0.42091046  0.63181703  0.81637808  1
  O  O228  1  0.92037554  0.13085032  0.15316812  1
  O  O229  1  0.91588555  0.13187025  0.48496892  1
  O  O230  1  0.91853527  0.13623850  0.82353123  1
  O  O231  1  0.90923221  0.63080167  0.14380250  1
  O  O232  1  0.91924007  0.63035616  0.48349088  1
  O  O233  1  0.91511417  0.63415357  0.81656437  1
  O  O234  1  0.36756362  0.07848215  0.01110843  1
  O  O235  1  0.36729843  0.08892361  0.35013132  1
  O  O236  1  0.36606830  0.08020368  0.68287763  1
  O  O237  1  0.36584067  0.57518761  0.02612064  1
  O  O238  1  0.36529164  0.58932020  0.35104284  1
  O  O239  1  0.36876777  0.58011578  0.68184925  1
  O  O240  1  0.86897505  0.07436300  0.01783693  1
  O  O241  1  0.86682861  0.08155990  0.34781818  1
  O  O242  1  0.87721476  0.08576648  0.68825320  1
  O  O243  1  0.86527505  0.57877847  0.00886636  1
  O  O244  1  0.86890748  0.57979958  0.34867393  1
  O  O245  1  0.86575471  0.58350834  0.68045922  1
  O  O246  1  0.08256193  0.37024989  0.19226076  1
  O  O247  1  0.08478725  0.36058871  0.51398984  1
  O  O248  1  0.08044986  0.36776869  0.84623101  1
  O  O249  1  0.07178680  0.87852082  0.18064991  1
  O  O250  1  0.08380455  0.85881668  0.50675849  1
  O  O251  1  0.08048422  0.86179748  0.84412481  1
  O  O252  1  0.58341988  0.36831570  0.18447383  1
  O  O253  1  0.58129957  0.37041442  0.51487188  1
  O  O254  1  0.58415465  0.36759122  0.84872277  1
  O  O255  1  0.58732812  0.86853085  0.18357752  1
  O  O256  1  0.57307924  0.86782007  0.51646142  1
  O  O257  1  0.58338086  0.86653753  0.84883185  1
  O  O258  1  0.13642456  0.42500729  0.32640750  1
  O  O259  1  0.12446925  0.41024002  0.64952336  1
  O  O260  1  0.12996275  0.41683410  0.98183380  1
  O  O261  1  0.12645316  0.93084565  0.31561499  1
  O  O262  1  0.12166881  0.92058454  0.64179953  1
  O  O263  1  0.12756408  0.90005497  0.97983257  1
  O  O264  1  0.64097540  0.41839220  0.32073981  1
  O  O265  1  0.63610086  0.41994345  0.65086902  1
  O  O266  1  0.63399908  0.41630748  0.98428978  1
  O  O267  1  0.63135061  0.92594420  0.31811571  1
  O  O268  1  0.63470193  0.92006561  0.65186391  1
  O  O269  1  0.63375798  0.91780148  0.98573061  1
  O  O270  1  0.03863865  0.20228469  0.10664237  1
  O  O271  1  0.02681335  0.19683953  0.43753566  1
  O  O272  1  0.03024721  0.19970078  0.77062442  1
  O  O273  1  0.02882204  0.69705875  0.09835296  1
  O  O274  1  0.03547339  0.68908838  0.43762983  1
  O  O275  1  0.02028572  0.69830139  0.76480115  1
  O  O276  1  0.54125951  0.20515438  0.10654615  1
  O  O277  1  0.53170897  0.20385278  0.43652092  1
  O  O278  1  0.53110227  0.19881554  0.77026302  1
  O  O279  1  0.53130262  0.67862803  0.09725702  1
  O  O280  1  0.52825068  0.70447594  0.44179186  1
  O  O281  1  0.53093508  0.70331343  0.77253193  1
  O  O282  1  0.29271603  0.46012009  0.05860739  1
  O  O283  1  0.29496832  0.47091923  0.40421219  1
  O  O284  1  0.31213663  0.46358355  0.73350147  1
  O  O285  1  0.29128808  0.97454301  0.05990909  1
  O  O286  1  0.29574399  0.97436252  0.39847760  1
  O  O287  1  0.29317872  0.96960362  0.72829400  1
  O  O288  1  0.79335028  0.47445345  0.06053005  1
  O  O289  1  0.80791881  0.46907855  0.39725466  1
  O  O290  1  0.80271329  0.46960879  0.72578826  1
  O  O291  1  0.79942507  0.96368050  0.06143018  1
  O  O292  1  0.80528799  0.97018227  0.39506005  1
  O  O293  1  0.80445679  0.96922594  0.73544440  1
  O  O294  1  0.47372727  0.29174445  0.22847722  1
  O  O295  1  0.47172228  0.30290959  0.56621669  1
  O  O296  1  0.47452155  0.29696743  0.89637040  1
  O  O297  1  0.45732801  0.82233579  0.23667339  1
  O  O298  1  0.46503979  0.79801017  0.56516383  1
  O  O299  1  0.46430069  0.80057174  0.89042624  1
  O  O300  1  0.95990008  0.29717886  0.23057208  1
  O  O301  1  0.96975110  0.30028479  0.56220384  1
  O  O302  1  0.97106972  0.30499740  0.89355542  1
  O  O303  1  0.96023640  0.80101723  0.22337859  1
  O  O304  1  0.97218492  0.79405140  0.55890439  1
  O  O305  1  0.97279750  0.79526093  0.89482367  1
  O  O306  1  0.20577033  0.04769775  0.28082483  1
  O  O307  1  0.19876800  0.03144329  0.60414383  1
  O  O308  1  0.19043068  0.02608760  0.92756465  1
  O  O309  1  0.19685948  0.52874217  0.27399238  1
  O  O310  1  0.19232602  0.52103214  0.59599802  1
  O  O311  1  0.19906601  0.52799239  0.94066174  1
  O  O312  1  0.70212304  0.03253155  0.27018530  1
  O  O313  1  0.69538470  0.03673977  0.60343614  1
  O  O314  1  0.70682718  0.02873856  0.93676202  1
  O  O315  1  0.70942162  0.52553415  0.27398376  1
  O  O316  1  0.70402505  0.53297146  0.60310806  1
  O  O317  1  0.69657215  0.52628881  0.92923402  1
  O  O318  1  0.09448304  0.09589646  0.03597169  1
  O  O319  1  0.07846359  0.08403353  0.36887347  1
  O  O320  1  0.08195956  0.08797491  0.70043690  1
  O  O321  1  0.08527816  0.58643838  0.03676624  1
  O  O322  1  0.09008263  0.57458993  0.37194467  1
  O  O323  1  0.07167073  0.58292086  0.70541678  1
  O  O324  1  0.59153049  0.09085846  0.04233875  1
  O  O325  1  0.59297606  0.09451395  0.37692552  1
  O  O326  1  0.59886905  0.09597091  0.71107940  1
  O  O327  1  0.58950728  0.57958918  0.02295702  1
  O  O328  1  0.58390161  0.59176590  0.37857114  1
  O  O329  1  0.58502598  0.59240294  0.70784260  1
  O  O330  1  0.40967705  0.40934901  0.11951545  1
  O  O331  1  0.40202297  0.40754439  0.46012455  1
  O  O332  1  0.41850364  0.40966728  0.80496847  1
  O  O333  1  0.41125429  0.93215521  0.12295418  1
  O  O334  1  0.40525125  0.91826926  0.46533080  1
  O  O335  1  0.40125826  0.91154657  0.79275696  1
  O  O336  1  0.91440475  0.43458630  0.12453985  1
  O  O337  1  0.92059166  0.42007055  0.46828427  1
  O  O338  1  0.91635096  0.42019186  0.79471032  1
  O  O339  1  0.90843956  0.90520767  0.12466280  1
  O  O340  1  0.91936362  0.91211007  0.45570870  1
  O  O341  1  0.91312632  0.91056620  0.79649249  1
  O  O342  1  0.41017112  0.39882781  0.28651437  1
  O  O343  1  0.41053142  0.40871496  0.63322300  1
  O  O344  1  0.41730819  0.40832368  0.95858972  1
  O  O345  1  0.40803009  0.92737686  0.31401920  1
  O  O346  1  0.40762661  0.90730725  0.62727399  1
  O  O347  1  0.40247431  0.90869031  0.95492272  1
  O  O348  1  0.91491529  0.41355534  0.29847327  1
  O  O349  1  0.91696085  0.41321255  0.62812746  1
  O  O350  1  0.91739626  0.41995798  0.95599690  1
  O  O351  1  0.91638940  0.91315297  0.29962705  1
  O  O352  1  0.93096442  0.91169204  0.63000497  1
  O  O353  1  0.92096432  0.90808339  0.96098294  1
  O  O354  1  0.09230711  0.10051197  0.21756083  1
  O  O355  1  0.08409481  0.08176993  0.53904323  1
  O  O356  1  0.08138948  0.08435623  0.86301545  1
  O  O357  1  0.08227791  0.57020199  0.20034784  1
  O  O358  1  0.08674419  0.57952488  0.53096953  1
  O  O359  1  0.08556263  0.57844001  0.87191701  1
  O  O360  1  0.58880115  0.08325714  0.20111938  1
  O  O361  1  0.58810082  0.08948190  0.52988472  1
  O  O362  1  0.60206610  0.09241101  0.87595608  1
  O  O363  1  0.59997091  0.58667616  0.22258691  1
  O  O364  1  0.59573131  0.59373686  0.54315032  1
  O  O365  1  0.58436271  0.58107904  0.86378923  1
  O  O366  1  0.14270447  0.23127682  0.06083332  1
  O  O367  1  0.13627257  0.21692666  0.39478168  1
  O  O368  1  0.13789505  0.22149899  0.72569795  1
  O  O369  1  0.13535460  0.72131750  0.05327139  1
  O  O370  1  0.12689328  0.70439181  0.37201067  1
  O  O371  1  0.13334642  0.71348237  0.72446215  1
  O  O372  1  0.64676557  0.22266591  0.05779717  1
  O  O373  1  0.64114815  0.22884164  0.39509469  1
  O  O374  1  0.64069833  0.23268110  0.73272526  1
  O  O375  1  0.63112745  0.71837232  0.05010332  1
  O  O376  1  0.63214598  0.72365318  0.39165112  1
  O  O377  1  0.63817040  0.72522282  0.72671452  1
  O  O378  1  0.28110795  0.36140594  0.11605101  1
  O  O379  1  0.26886223  0.35963522  0.44324904  1
  O  O380  1  0.28288758  0.35775234  0.77734916  1
  O  O381  1  0.28308342  0.86593233  0.10660714  1
  O  O382  1  0.27157300  0.86775991  0.44466738  1
  O  O383  1  0.26707548  0.85906691  0.76806832  1
  O  O384  1  0.78759254  0.36429947  0.10612693  1
  O  O385  1  0.78696530  0.36310678  0.44479274  1
  O  O386  1  0.78330314  0.36679687  0.77736507  1
  O  O387  1  0.77363791  0.86018643  0.10926248  1
  O  O388  1  0.78660464  0.86451147  0.44252580  1
  O  O389  1  0.77882413  0.86118376  0.77897103  1
  O  O390  1  0.36710978  0.26548183  0.27305940  1
  O  O391  1  0.36428672  0.27204817  0.60762393  1
  O  O392  1  0.36443143  0.27525707  0.93858538  1
  O  O393  1  0.35172662  0.79125341  0.28188670  1
  O  O394  1  0.35974345  0.77389378  0.61199995  1
  O  O395  1  0.36153729  0.77359057  0.93862321  1
  O  O396  1  0.85753676  0.28288173  0.28366779  1
  O  O397  1  0.86314269  0.27954044  0.60869403  1
  O  O398  1  0.86735481  0.28850337  0.94421892  1
  O  O399  1  0.86388724  0.77934039  0.28076950  1
  O  O400  1  0.86214594  0.78206618  0.60330187  1
  O  O401  1  0.86120965  0.77622525  0.93562277  1
  O  O402  1  0.22307903  0.14569239  0.22380116  1
  O  O403  1  0.21708933  0.13895602  0.55814708  1
  O  O404  1  0.21657023  0.13579690  0.88669551  1
  O  O405  1  0.21329495  0.63474544  0.22514239  1
  O  O406  1  0.22217306  0.63623145  0.56329266  1
  O  O407  1  0.21916066  0.63115544  0.89039140  1
  O  O408  1  0.72183548  0.13929825  0.22407976  1
  O  O409  1  0.72338521  0.13683973  0.55274780  1
  O  O410  1  0.73741293  0.13914001  0.89796655  1
  O  O411  1  0.73082428  0.63341931  0.22899125  1
  O  O412  1  0.72960414  0.64350645  0.56255880  1
  O  O413  1  0.71802385  0.63881856  0.89010238  1
  O  O414  1  0.49448507  0.33006832  0.02880376  1
  O  O415  1  0.49363133  0.32903521  0.36248807  1
  O  O416  1  0.49290178  0.33081609  0.69847887  1
  O  O417  1  0.49202845  0.83877515  0.02426232  1
  O  O418  1  0.48356788  0.83954232  0.36955198  1
  O  O419  1  0.48866853  0.83374357  0.69889151  1
  O  O420  1  0.99976914  0.34769816  0.02862687  1
  O  O421  1  0.99078956  0.33472209  0.36657363  1
  O  O422  1  0.99364219  0.33543171  0.69649515  1
  O  O423  1  0.99164229  0.82376404  0.02718953  1
  O  O424  1  0.99809381  0.83052745  0.35820547  1
  O  O425  1  0.99325957  0.82260114  0.69278257  1
  O  O426  1  0.16092538  0.01266255  0.14495724  1
  O  O427  1  0.16238747  0.00872514  0.46945651  1
  O  O428  1  0.15944104  0.00679439  0.79470174  1
  O  O429  1  0.17111658  0.50200364  0.14025409  1
  O  O430  1  0.17276558  0.50944128  0.46655275  1
  O  O431  1  0.16251415  0.49835623  0.80550569  1
  O  O432  1  0.67036948  0.00714130  0.13639863  1
  O  O433  1  0.66815613  0.00475391  0.46990596  1
  O  O434  1  0.67783722  0.01234527  0.80504105  1
  O  O435  1  0.66613195  0.50775382  0.13956168  1
  O  O436  1  0.67325118  0.51525045  0.47156710  1
  O  O437  1  0.66760582  0.50892825  0.79764371  1
  O  O438  1  0.00432232  0.16809089  0.30476554  1
  O  O439  1  0.00591013  0.17066425  0.63744049  1
  O  O440  1  0.01242589  0.17752652  0.97430445  1
  O  O441  1  -0.00648151  0.63743012  0.30226976  1
  O  O442  1  0.00596822  0.66151362  0.63125666  1
  O  O443  1  0.00665748  0.65978706  0.96395486  1
  O  O444  1  0.51368710  0.16770083  0.30332265  1
  O  O445  1  0.51605268  0.16965222  0.63896834  1
  O  O446  1  0.51565908  0.16868606  0.97171042  1
  O  O447  1  0.49915027  0.66296665  0.30740404  1
  O  O448  1  0.50765400  0.67033691  0.63880797  1
  O  O449  1  0.50311840  0.65754502  0.96324522  1
  O  O450  1  0.34250779  0.49612002  0.19422015  1
  O  O451  1  0.32979131  0.48585273  0.53643741  1
  O  O452  1  0.33538850  0.48885197  0.86632774  1
  O  O453  1  0.33003795  0.99624523  0.19472102  1
  O  O454  1  0.32683976  0.99779600  0.53187204  1
  O  O455  1  0.32022937  0.98814699  0.86002189  1
  O  O456  1  0.83017407  0.49511979  0.19532860  1
  O  O457  1  0.83624975  0.49503284  0.53086620  1
  O  O458  1  0.83607637  0.49883962  0.86037394  1
  O  O459  1  0.83656235  0.98916892  0.19596060  1
  O  O460  1  0.84961179  0.99560688  0.52920554  1
  O  O461  1  0.83910737  0.98939407  0.86930292  1
