# generated using pymatgen
data_Na31Fe20(SO4)36
_symmetry_space_group_name_H-M   'P 1'
_cell_length_a   18.07933301
_cell_length_b   18.07420713
_cell_length_c   19.71634121
_cell_angle_alpha   107.56485920
_cell_angle_beta   107.57903810
_cell_angle_gamma   90.71826696
_symmetry_Int_Tables_number   1
_chemical_formula_structural   Na31Fe20(SO4)36
_chemical_formula_sum   'Na62 Fe40 S72 O288'
_cell_volume   5817.25109755
_cell_formula_units_Z   2
loop_
 _symmetry_equiv_pos_site_id
 _symmetry_equiv_pos_as_xyz
  1  'x, y, z'
loop_
 _atom_site_type_symbol
 _atom_site_label
 _atom_site_symmetry_multiplicity
 _atom_site_fract_x
 _atom_site_fract_y
 _atom_site_fract_z
 _atom_site_occupancy
  Na  Na0  1  0.13639917  0.36124103  0.08215037  1
  Na  Na1  1  0.14572782  0.37088975  0.43117390  1
  Na  Na2  1  0.14110822  0.36319646  0.75148877  1
  Na  Na3  1  0.13379795  0.86716093  0.08621271  1
  Na  Na4  1  0.13561856  0.87763489  0.42939532  1
  Na  Na5  1  0.12106355  0.88167607  0.74509240  1
  Na  Na6  1  0.67564167  0.32678203  0.10651272  1
  Na  Na7  1  0.63280043  0.35863937  0.40654051  1
  Na  Na8  1  0.63128142  0.35662357  0.73822979  1
  Na  Na9  1  0.63397554  0.86793440  0.08587601  1
  Na  Na10  1  0.62692024  0.86636665  0.41598083  1
  Na  Na11  1  0.62622090  0.85876485  0.73872668  1
  Na  Na12  1  0.37175718  0.13243815  0.24875285  1
  Na  Na13  1  0.37068948  0.13961043  0.58502580  1
  Na  Na14  1  0.36132906  0.12923606  0.90734769  1
  Na  Na15  1  0.36870417  0.63553815  0.25393848  1
  Na  Na16  1  0.35722304  0.63528629  0.57981026  1
  Na  Na17  1  0.34835208  0.62220837  0.89441041  1
  Na  Na18  1  0.83302795  0.22756097  0.29189240  1
  Na  Na19  1  0.87225115  0.12541094  0.58238216  1
  Na  Na20  1  0.86424171  0.14686309  0.93015288  1
  Na  Na21  1  0.87676834  0.61818169  0.25376982  1
  Na  Na22  1  0.86999234  0.62876626  0.58376984  1
  Na  Na23  1  0.86259377  0.63353532  0.91442320  1
  Na  Na24  1  0.49623560  0.04783668  0.42227396  1
  Na  Na25  1  0.48376453  0.01040060  0.75009661  1
  Na  Na26  1  0.43722702  0.50211112  0.73440019  1
  Na  Na27  1  0.99327476  0.51045349  0.09329794  1
  Na  Na28  1  0.98950150  0.01931898  0.08760090  1
  Na  Na29  1  0.53016686  0.44787283  0.09986960  1
  Na  Na30  1  1.04823119  0.48785314  0.67752140  1
  Na  Na31  1  0.48865075  0.01164286  0.09884004  1
  Na  Na32  1  0.49225175  0.54618678  0.42868330  1
  Na  Na33  1  0.49144537  0.50433243  0.58574719  1
  Na  Na34  1  0.51312497  0.48520970  0.92451951  1
  Na  Na35  1  -0.03747834  1.03108841  0.28376767  1
  Na  Na36  1  0.50252760  0.99400356  0.58152904  1
  Na  Na37  1  0.01549129  0.45710710  0.46599104  1
  Na  Na38  1  0.00986871  1.00357489  0.89467023  1
  Na  Na39  1  0.01347927  0.48677916  0.90667964  1
  Na  Na40  1  0.50647151  0.98602413  0.91886585  1
  Na  Na41  1  0.50443402  0.45644250  0.25016415  1
  Na  Na42  1  0.74501746  0.74391683  0.33618037  1
  Na  Na43  1  0.74097286  0.74680593  0.66451532  1
  Na  Na44  1  0.25471211  0.25491860  0.33515550  1
  Na  Na45  1  0.23806153  0.74139579  0.35179622  1
  Na  Na46  1  0.24747819  0.74706500  -0.00551666  1
  Na  Na47  1  0.25975404  0.26426652  0.65949942  1
  Na  Na48  1  0.74897107  0.24458702  0.66163361  1
  Na  Na49  1  0.25166425  0.75730470  0.65243219  1
  Na  Na50  1  0.74640281  0.74605799  0.00359727  1
  Na  Na51  1  0.26462780  0.25624727  -0.00425698  1
  Na  Na52  1  0.73902092  0.24070273  0.84347642  1
  Na  Na53  1  0.76744804  0.26011650  0.48354293  1
  Na  Na54  1  0.74603722  0.74937263  0.83243718  1
  Na  Na55  1  0.25143151  0.24420632  0.82741879  1
  Na  Na56  1  0.24891508  0.75423088  0.82192674  1
  Na  Na57  1  0.24419766  0.74588002  0.17216949  1
  Na  Na58  1  0.74513352  0.74143371  0.17199521  1
  Na  Na59  1  0.74405968  0.74812098  0.50222689  1
  Na  Na60  1  0.26333106  0.25419608  0.16040572  1
  Na  Na61  1  0.25864762  0.25854864  0.49949575  1
  Fe  Fe62  1  0.96120237  0.31939807  0.12476464  1
  Fe  Fe63  1  0.96444354  0.81190758  0.12359306  1
  Fe  Fe64  1  0.96282460  0.80865746  0.45557448  1
  Fe  Fe65  1  0.46283999  0.80853924  0.12181335  1
  Fe  Fe66  1  0.96453087  0.30307490  0.78330182  1
  Fe  Fe67  1  0.47502962  0.30166951  0.46035948  1
  Fe  Fe68  1  0.46998817  0.30146968  0.78321694  1
  Fe  Fe69  1  0.46611703  0.79934207  0.45508207  1
  Fe  Fe70  1  0.95955839  0.80775414  0.78609841  1
  Fe  Fe71  1  0.46725440  0.80470032  0.78069793  1
  Fe  Fe72  1  0.19194411  0.03494079  0.04828648  1
  Fe  Fe73  1  0.18830422  0.53530004  0.38137847  1
  Fe  Fe74  1  0.69926325  0.53105248  0.05219267  1
  Fe  Fe75  1  0.69096524  0.03413616  0.71591501  1
  Fe  Fe76  1  0.19079368  0.03743672  0.37934586  1
  Fe  Fe77  1  0.68935349  0.03499619  0.38216169  1
  Fe  Fe78  1  0.69024783  0.53415491  0.70875189  1
  Fe  Fe79  1  0.69979588  0.52954963  0.37750505  1
  Fe  Fe80  1  0.19224324  0.53603706  0.04692328  1
  Fe  Fe81  1  0.69377697  0.04212308  0.05549487  1
  Fe  Fe82  1  0.03667822  0.18937980  0.87527500  1
  Fe  Fe83  1  0.03344635  0.20143443  0.22079887  1
  Fe  Fe84  1  0.03504421  0.68758252  0.87521701  1
  Fe  Fe85  1  0.03464195  0.69081776  0.54442294  1
  Fe  Fe86  1  0.53574409  0.20087912  0.21308469  1
  Fe  Fe87  1  0.03458625  0.69718958  0.21782645  1
  Fe  Fe88  1  0.03264255  0.19459363  0.54460683  1
  Fe  Fe89  1  0.53483228  0.69009218  0.87807416  1
  Fe  Fe90  1  0.53277076  0.68926810  0.21025135  1
  Fe  Fe91  1  0.53833555  0.19238067  0.88971430  1
  Fe  Fe92  1  0.29507070  0.96865733  0.61817481  1
  Fe  Fe93  1  0.80855697  0.46234498  0.94930720  1
  Fe  Fe94  1  0.80620667  0.96533798  0.61977312  1
  Fe  Fe95  1  0.80129530  0.96524248  0.28797917  1
  Fe  Fe96  1  0.81284156  0.46332801  0.61783430  1
  Fe  Fe97  1  0.30872778  0.96529152  0.28744296  1
  Fe  Fe98  1  0.30300132  0.96484423  0.94908055  1
  Fe  Fe99  1  0.31483750  0.46189992  0.95872248  1
  Fe  Fe100  1  0.80428019  0.96875934  0.95607991  1
  Fe  Fe101  1  0.30932339  0.46395894  0.28838032  1
  S  S102  1  0.36058782  0.13598584  0.08487153  1
  S  S103  1  0.35646249  0.14033742  0.41275520  1
  S  S104  1  0.36510142  0.13710953  0.74956434  1
  S  S105  1  0.35725359  0.64297678  0.08136210  1
  S  S106  1  0.35566334  0.63936841  0.41460207  1
  S  S107  1  0.35954736  0.64450923  0.75005547  1
  S  S108  1  0.86412902  0.14044975  0.08592581  1
  S  S109  1  0.86102943  0.13476546  0.41827162  1
  S  S110  1  0.85814754  0.13867938  0.75492119  1
  S  S111  1  0.86182648  0.64084382  0.08191608  1
  S  S112  1  0.85683086  0.64380842  0.41970093  1
  S  S113  1  0.85747608  0.64065347  0.75220380  1
  S  S114  1  0.14516457  0.35902128  0.24619517  1
  S  S115  1  0.14044047  0.35362441  0.58578246  1
  S  S116  1  0.14195760  0.35939968  0.91936128  1
  S  S117  1  0.14131674  0.86055201  0.25059764  1
  S  S118  1  0.13549498  0.86118674  0.58146798  1
  S  S119  1  0.13598760  0.86168609  0.91673726  1
  S  S120  1  0.64039955  0.36371325  0.24849049  1
  S  S121  1  0.64692251  0.35835407  0.58539854  1
  S  S122  1  0.63993991  0.36011735  0.91874034  1
  S  S123  1  0.63685622  0.85875525  0.24773291  1
  S  S124  1  0.63652908  0.86018866  0.58483075  1
  S  S125  1  0.63951022  0.86066612  0.91902455  1
  S  S126  1  0.06910402  0.16713458  0.04136149  1
  S  S127  1  0.06958550  0.17463656  0.37910358  1
  S  S128  1  0.06814805  0.17128231  0.71138396  1
  S  S129  1  0.06451481  0.67091941  0.04185412  1
  S  S130  1  0.06679847  0.67752786  0.37632935  1
  S  S131  1  0.06822157  0.68338185  0.71561487  1
  S  S132  1  0.56274239  0.15527793  0.03831311  1
  S  S133  1  0.56930198  0.16972524  0.37405849  1
  S  S134  1  0.56684455  0.16366280  0.71150383  1
  S  S135  1  0.56911434  0.66869313  0.04217207  1
  S  S136  1  0.56833237  0.66644058  0.37190329  1
  S  S137  1  0.56558904  0.66858070  0.70791087  1
  S  S138  1  0.33283204  0.43706091  0.12428530  1
  S  S139  1  0.33719254  0.43421504  0.45945778  1
  S  S140  1  0.33752361  0.42681178  0.79782787  1
  S  S141  1  0.32651787  0.92873430  0.12153004  1
  S  S142  1  0.32951881  0.93400171  0.45583730  1
  S  S143  1  0.33465764  0.93015373  0.79147937  1
  S  S144  1  0.83490576  0.43611744  0.11754838  1
  S  S145  1  0.82533164  0.43335944  0.45807071  1
  S  S146  1  0.83005375  0.43036000  0.78970877  1
  S  S147  1  0.82845718  0.93279098  0.12481059  1
  S  S148  1  0.82069783  0.92648384  0.45445015  1
  S  S149  1  0.82459097  0.93149580  0.79344044  1
  S  S150  1  0.43200351  0.32831536  0.29571648  1
  S  S151  1  0.44089813  0.32982017  0.62244230  1
  S  S152  1  0.43741804  0.32294316  0.95715004  1
  S  S153  1  0.43075763  0.82826826  0.29144621  1
  S  S154  1  0.42723321  0.83667255  0.62397597  1
  S  S155  1  0.43172747  0.82998055  0.95786987  1
  S  S156  1  0.95787416  0.36152581  0.29051505  1
  S  S157  1  0.93374759  0.32484093  0.62635153  1
  S  S158  1  0.93644671  0.33177639  0.95616943  1
  S  S159  1  0.92851926  0.82791718  0.28956445  1
  S  S160  1  0.92559140  0.82613887  0.62343427  1
  S  S161  1  0.93009429  0.83195479  0.95965330  1
  S  S162  1  0.16856726  0.06962683  0.21029307  1
  S  S163  1  0.17483647  0.07820553  0.54199138  1
  S  S164  1  0.17356029  0.06840039  0.87851702  1
  S  S165  1  0.17110509  0.56946877  0.20910388  1
  S  S166  1  0.16431815  0.56708710  0.54130773  1
  S  S167  1  0.16471687  0.56219446  0.87668977  1
  S  S168  1  0.67147857  0.06953940  0.21105730  1
  S  S169  1  0.66568457  0.06038951  0.54355203  1
  S  S170  1  0.66802673  0.06327636  0.87647627  1
  S  S171  1  0.66756678  0.56882777  0.20935917  1
  S  S172  1  0.66951423  0.56405076  0.54198322  1
  S  S173  1  0.67000422  0.56564033  0.87511719  1
  O  O174  1  0.36300686  0.21299665  0.07608794  1
  O  O175  1  0.37103670  0.21991386  0.40799157  1
  O  O176  1  0.37684502  0.21387200  0.73658483  1
  O  O177  1  0.36813420  0.72217071  0.07341844  1
  O  O178  1  0.36751391  0.71726809  0.40405097  1
  O  O179  1  0.37174759  0.72637212  0.74632704  1
  O  O180  1  0.87722724  0.21565671  0.07366328  1
  O  O181  1  0.86353815  0.21076270  0.40728322  1
  O  O182  1  0.86380701  0.21880623  0.74862812  1
  O  O183  1  0.87113005  0.72086478  0.07571214  1
  O  O184  1  0.86172378  0.72694068  0.41828703  1
  O  O185  1  0.86029253  0.72099102  0.74559799  1
  O  O186  1  0.28541359  0.12180950  0.10033841  1
  O  O187  1  0.27366412  0.13517384  0.41299088  1
  O  O188  1  0.29212145  0.13227383  0.76550188  1
  O  O189  1  0.27718970  0.63633634  0.08824075  1
  O  O190  1  0.27302351  0.63091360  0.41294653  1
  O  O191  1  0.28654949  0.63756726  0.76615504  1
  O  O192  1  0.78520593  0.13096353  0.09180802  1
  O  O193  1  0.78596594  0.12033252  0.43297916  1
  O  O194  1  0.77992525  0.12705022  0.76477044  1
  O  O195  1  0.78194307  0.63230468  0.08839017  1
  O  O196  1  0.77542251  0.63176383  0.42699429  1
  O  O197  1  0.77893269  0.62706532  0.76105018  1
  O  O198  1  0.13803405  0.27927361  0.25342484  1
  O  O199  1  0.12385870  0.27095110  0.59208259  1
  O  O200  1  0.13206125  0.28028601  0.92698306  1
  O  O201  1  0.13445182  0.77936589  0.25478104  1
  O  O202  1  0.12844598  0.77891786  0.58468304  1
  O  O203  1  0.12601953  0.78130387  0.92181283  1
  O  O204  1  0.62470429  0.28929694  0.26321192  1
  O  O205  1  0.63711238  0.28566811  0.60069216  1
  O  O206  1  0.63019256  0.28250085  0.92811729  1
  O  O207  1  0.62945629  0.77842741  0.25402739  1
  O  O208  1  0.62732784  0.78670336  0.59913335  1
  O  O209  1  0.63026166  0.78178974  0.92786122  1
  O  O210  1  0.22288630  0.36763080  0.23354494  1
  O  O211  1  0.22012674  0.35361644  0.58138366  1
  O  O212  1  0.22264518  0.36778638  0.91466084  1
  O  O213  1  0.21905113  0.87108619  0.23986855  1
  O  O214  1  0.21239043  0.87196481  0.56837587  1
  O  O215  1  0.21420624  0.86948683  0.90657565  1
  O  O216  1  0.71685764  0.36976790  0.24063377  1
  O  O217  1  0.72747199  0.36838428  0.58015374  1
  O  O218  1  0.71817592  0.36801707  0.90902192  1
  O  O219  1  0.71498846  0.86785291  0.23709266  1
  O  O220  1  0.71617024  0.86967235  0.57735467  1
  O  O221  1  0.71946299  0.86905364  0.91280390  1
  O  O222  1  0.42463472  0.12810441  0.15066769  1
  O  O223  1  0.40958357  0.12576938  0.47839527  1
  O  O224  1  0.43024315  0.12705505  0.81416404  1
  O  O225  1  0.41425676  0.63646619  0.15080063  1
  O  O226  1  0.41029051  0.63210810  0.48314405  1
  O  O227  1  0.42430007  0.63350421  0.81617402  1
  O  O228  1  0.92348129  0.12998812  0.15293436  1
  O  O229  1  0.92481523  0.13081738  0.48683772  1
  O  O230  1  0.91838985  0.13124456  0.82257433  1
  O  O231  1  0.92055735  0.63094056  0.14913057  1
  O  O232  1  0.91464618  0.63792652  0.48918162  1
  O  O233  1  0.91694571  0.63590832  0.82135570  1
  O  O234  1  0.36700135  0.07486181  0.01657561  1
  O  O235  1  0.36481951  0.08194094  0.34296560  1
  O  O236  1  0.36909180  0.07538794  0.68059517  1
  O  O237  1  0.36505594  0.58397667  0.01391631  1
  O  O238  1  0.36862190  0.57953382  0.34773667  1
  O  O239  1  0.36501749  0.58833916  0.68129056  1
  O  O240  1  0.87238500  0.07702590  0.01811721  1
  O  O241  1  0.86889352  0.07196082  0.35187523  1
  O  O242  1  0.86463419  0.08157572  0.68561530  1
  O  O243  1  0.87066106  0.58324760  0.01356284  1
  O  O244  1  0.86373286  0.58957480  0.35208423  1
  O  O245  1  0.86784311  0.58417159  0.68503365  1
  O  O246  1  0.08490711  0.36687751  0.17912404  1
  O  O247  1  0.08391986  0.36346148  0.51886949  1
  O  O248  1  0.08426603  0.36934416  0.85180152  1
  O  O249  1  0.08065329  0.86843239  0.18328604  1
  O  O250  1  0.07346417  0.86724885  0.51349697  1
  O  O251  1  0.07514247  0.87535653  0.85284281  1
  O  O252  1  0.57833908  0.37352230  0.18388961  1
  O  O253  1  0.59020121  0.36275807  0.51422025  1
  O  O254  1  0.58091379  0.36871461  0.85047438  1
  O  O255  1  0.57728927  0.86600124  0.17968354  1
  O  O256  1  0.57828827  0.86445492  0.51387109  1
  O  O257  1  0.58174704  0.86785834  0.84975943  1
  O  O258  1  0.14386462  0.41719016  0.31649268  1
  O  O259  1  0.13470965  0.40832002  0.65564265  1
  O  O260  1  0.13195492  0.41829418  0.98707142  1
  O  O261  1  0.13499966  0.91669619  0.31993529  1
  O  O262  1  0.13148491  0.91702775  0.64984111  1
  O  O263  1  0.13177996  0.91827504  0.98778851  1
  O  O264  1  0.63232435  0.42764298  0.31858688  1
  O  O265  1  0.63571114  0.42409902  0.64928708  1
  O  O266  1  0.63098989  0.42170517  0.98532449  1
  O  O267  1  0.63002604  0.91613767  0.31620562  1
  O  O268  1  0.62532750  0.92572911  0.64832581  1
  O  O269  1  0.62978814  0.92049410  0.98553532  1
  O  O270  1  0.03634954  0.19523928  0.10367037  1
  O  O271  1  0.03578685  0.19307399  0.44103582  1
  O  O272  1  0.02479309  0.20479298  0.76951409  1
  O  O273  1  0.03075985  0.70191195  0.10444101  1
  O  O274  1  0.02430862  0.70340533  0.43323635  1
  O  O275  1  0.02267042  0.71081279  0.77218026  1
  O  O276  1  0.53526857  0.19028667  0.10236132  1
  O  O277  1  0.52971354  0.19479997  0.43174207  1
  O  O278  1  0.54169561  0.20110354  0.77969723  1
  O  O279  1  0.53113712  0.69703945  0.10198084  1
  O  O280  1  0.53089602  0.69213867  0.43077846  1
  O  O281  1  0.53783256  0.70470550  0.77555518  1
  O  O282  1  0.29797928  0.47580834  0.06486140  1
  O  O283  1  0.30479818  0.46489428  0.39330399  1
  O  O284  1  0.31611682  0.46179362  0.73881230  1
  O  O285  1  0.29474433  0.96269514  0.05924937  1
  O  O286  1  0.30189873  0.97347701  0.39585221  1
  O  O287  1  0.30947675  0.96322215  0.73028479  1
  O  O288  1  0.79936160  0.47038847  0.05251107  1
  O  O289  1  0.79328513  0.47528491  0.40141869  1
  O  O290  1  0.80547468  0.46793959  0.72998021  1
  O  O291  1  0.79574831  0.96936695  0.06447844  1
  O  O292  1  0.78843603  0.96115265  0.39217280  1
  O  O293  1  0.79516700  0.96517937  0.73089486  1
  O  O294  1  0.46349674  0.29949254  0.23284358  1
  O  O295  1  0.47403043  0.29290516  0.56198751  1
  O  O296  1  0.46594968  0.29191808  0.89006786  1
  O  O297  1  0.46889078  0.79997491  0.23099809  1
  O  O298  1  0.45896568  0.81075344  0.56127959  1
  O  O299  1  0.46996282  0.80196634  0.89862944  1
  O  O300  1  0.97526937  0.29804828  0.22267681  1
  O  O301  1  0.96758473  0.29004481  0.56579692  1
  O  O302  1  0.97396767  0.30062396  0.89624599  1
  O  O303  1  0.96754638  0.79881698  0.22908775  1
  O  O304  1  0.96650574  0.79772550  0.56638297  1
  O  O305  1  0.96523522  0.80300680  0.89827061  1
  O  O306  1  0.19576365  0.02904424  0.26805373  1
  O  O307  1  0.20360818  0.04135727  0.60059826  1
  O  O308  1  0.20304249  0.03480616  0.94384442  1
  O  O309  1  0.19837313  0.53058771  0.26749441  1
  O  O310  1  0.17560243  0.52894854  0.59753391  1
  O  O311  1  0.19823576  0.52937366  0.94097294  1
  O  O312  1  0.69902453  0.03268106  0.27272796  1
  O  O313  1  0.70578400  0.02757300  0.60646876  1
  O  O314  1  0.70003944  0.03089783  0.94057044  1
  O  O315  1  0.69354503  0.54086898  0.27490270  1
  O  O316  1  0.71008042  0.52899506  0.60235157  1
  O  O317  1  0.70249223  0.53064842  0.93677681  1
  O  O318  1  0.08158292  0.08193670  0.03055944  1
  O  O319  1  0.08796248  0.09139750  0.36197900  1
  O  O320  1  0.08371632  0.09388853  0.71148179  1
  O  O321  1  0.07981050  0.58791976  0.03589215  1
  O  O322  1  0.09297802  0.60073134  0.37433972  1
  O  O323  1  0.09870506  0.61210449  0.72495013  1
  O  O324  1  0.57717083  0.07107673  0.03471765  1
  O  O325  1  0.58621463  0.08676171  0.36879385  1
  O  O326  1  0.58332475  0.08103168  0.71139064  1
  O  O327  1  0.59159642  0.58858610  0.03832155  1
  O  O328  1  0.59121326  0.58518711  0.36764964  1
  O  O329  1  0.58562786  0.58790284  0.70767555  1
  O  O330  1  0.41364673  0.42565063  0.12757310  1
  O  O331  1  0.41703843  0.41020614  0.46132821  1
  O  O332  1  0.42193039  0.40906540  0.81115994  1
  O  O333  1  0.40841491  0.91330003  0.12563930  1
  O  O334  1  0.41060808  0.91377443  0.46085208  1
  O  O335  1  0.41904454  0.91352919  0.80258329  1
  O  O336  1  0.91738124  0.42494801  0.11704691  1
  O  O337  1  0.89885925  0.40618607  0.45275681  1
  O  O338  1  0.91125380  0.40907149  0.79826592  1
  O  O339  1  0.91085718  0.91838286  0.12814269  1
  O  O340  1  0.89820084  0.90345934  0.45358674  1
  O  O341  1  0.90615664  0.91252884  0.79978578  1
  O  O342  1  0.41785571  0.41276922  0.30388989  1
  O  O343  1  0.43231663  0.41216361  0.62753003  1
  O  O344  1  0.42243376  0.40725379  0.96622312  1
  O  O345  1  0.41424244  0.91035758  0.29919222  1
  O  O346  1  0.40874124  0.91973923  0.63323795  1
  O  O347  1  0.41616994  0.91332362  0.96572154  1
  O  O348  1  0.96678937  0.43649804  0.27934572  1
  O  O349  1  0.91620930  0.40570035  0.62714906  1
  O  O350  1  0.92290534  0.41532226  0.96116180  1
  O  O351  1  0.90538443  0.90634151  0.28874056  1
  O  O352  1  0.90049370  0.90344416  0.62251022  1
  O  O353  1  0.91202095  0.91402468  0.96644491  1
  O  O354  1  0.08883555  0.09280895  0.20663463  1
  O  O355  1  0.09595312  0.10259344  0.54052519  1
  O  O356  1  0.09318452  0.09023780  0.87798280  1
  O  O357  1  0.09089359  0.59191669  0.20373201  1
  O  O358  1  0.08101479  0.58875032  0.52096434  1
  O  O359  1  0.08484910  0.58448855  0.87973112  1
  O  O360  1  0.59072151  0.08976299  0.20440737  1
  O  O361  1  0.58426273  0.06681908  0.54222476  1
  O  O362  1  0.58532935  0.07845323  0.87184987  1
  O  O363  1  0.58353281  0.58400964  0.19537301  1
  O  O364  1  0.58783179  0.56781650  0.53996994  1
  O  O365  1  0.58801638  0.58122124  0.87141685  1
  O  O366  1  0.14326407  0.21472610  0.05655561  1
  O  O367  1  0.13975061  0.22849166  0.39590529  1
  O  O368  1  0.13787997  0.22772990  0.73219629  1
  O  O369  1  0.13738353  0.72076883  0.05749849  1
  O  O370  1  0.13119444  0.73702225  0.39154657  1
  O  O371  1  0.13058680  0.74628922  0.73241741  1
  O  O372  1  0.63411947  0.19750260  0.04178197  1
  O  O373  1  0.64172931  0.22018423  0.39251958  1
  O  O374  1  0.63990166  0.20969587  0.72111858  1
  O  O375  1  0.63908348  0.72396885  0.05971860  1
  O  O376  1  0.63780423  0.72093833  0.38705686  1
  O  O377  1  0.63749761  0.71888466  0.72054359  1
  O  O378  1  0.28244403  0.36337646  0.10490953  1
  O  O379  1  0.28312973  0.36491605  0.44658889  1
  O  O380  1  0.28649459  0.35463297  0.78285330  1
  O  O381  1  0.27631470  0.85629953  0.10662353  1
  O  O382  1  0.27459420  0.86478419  0.43673362  1
  O  O383  1  0.28373636  0.85912287  0.77778422  1
  O  O384  1  0.79176694  0.36026891  0.09915693  1
  O  O385  1  0.76684915  0.36934332  0.44680533  1
  O  O386  1  0.77512530  0.36147469  0.77382224  1
  O  O387  1  0.77906113  0.85932091  0.10772574  1
  O  O388  1  0.76536647  0.85851140  0.44197577  1
  O  O389  1  0.77242521  0.86068566  0.77897840  1
  O  O390  1  0.35779596  0.28037891  0.28052848  1
  O  O391  1  0.36645135  0.28328997  0.60905153  1
  O  O392  1  0.36300892  0.27499700  0.94132173  1
  O  O393  1  0.35877113  0.77585046  0.27178746  1
  O  O394  1  0.35910026  0.78464572  0.61386155  1
  O  O395  1  0.35852036  0.77965782  0.93951461  1
  O  O396  1  0.87883947  0.33590956  0.28515849  1
  O  O397  1  0.86255320  0.27467095  0.61537313  1
  O  O398  1  0.86298198  0.28313308  0.93797676  1
  O  O399  1  0.85960498  0.77210800  0.27238520  1
  O  O400  1  0.85741989  0.76946804  0.60814071  1
  O  O401  1  0.85881319  0.77966993  0.94407847  1
  O  O402  1  0.22491358  0.13733115  0.22643061  1
  O  O403  1  0.23013088  0.14590159  0.55335434  1
  O  O404  1  0.22620355  0.13989428  0.89586349  1
  O  O405  1  0.22615591  0.63903705  0.22580012  1
  O  O406  1  0.22011942  0.63683934  0.56124716  1
  O  O407  1  0.21593864  0.63373468  0.89095366  1
  O  O408  1  0.72518081  0.13658058  0.22358873  1
  O  O409  1  0.71118911  0.13425681  0.55660827  1
  O  O410  1  0.71716360  0.13427005  0.88868694  1
  O  O411  1  0.71839768  0.63999282  0.22188918  1
  O  O412  1  0.71312260  0.64059841  0.55832046  1
  O  O413  1  0.71963254  0.63968735  0.89209898  1
  O  O414  1  0.49923801  0.32044632  0.02368937  1
  O  O415  1  0.49123943  0.32718974  0.36673158  1
  O  O416  1  0.49694460  0.32860887  0.69676239  1
  O  O417  1  0.48926669  0.82985960  0.03068521  1
  O  O418  1  0.48835757  0.82555072  0.36284698  1
  O  O419  1  0.49130625  0.83991236  0.69567538  1
  O  O420  1  0.99318548  0.33214951  0.02919001  1
  O  O421  1  1.01671917  0.35597577  0.35910170  1
  O  O422  1  0.99384543  0.33347456  0.70099090  1
  O  O423  1  0.98998079  0.83386258  0.03199265  1
  O  O424  1  0.98733042  0.83337543  0.36215790  1
  O  O425  1  0.98318678  0.83485687  0.69880599  1
  O  O426  1  0.16140242  0.00985686  0.13580790  1
  O  O427  1  0.16591901  0.01749104  0.46717013  1
  O  O428  1  0.17073298  0.00808592  0.81015199  1
  O  O429  1  0.16571592  0.51064647  0.13464751  1
  O  O430  1  0.16844109  0.50900452  0.46815641  1
  O  O431  1  0.15641840  0.50162622  0.80602178  1
  O  O432  1  0.66776325  0.00588800  0.13922947  1
  O  O433  1  0.66515585  0.00284421  0.47002040  1
  O  O434  1  0.66537330  0.00110253  0.80542152  1
  O  O435  1  0.66889317  0.50575970  0.13999625  1
  O  O436  1  0.67163313  0.51081793  0.46718246  1
  O  O437  1  0.67044545  0.50824950  0.80325422  1
  O  O438  1  0.00687007  0.17746926  0.31000903  1
  O  O439  1  0.01212548  0.17301504  0.63686468  1
  O  O440  1  0.01031315  0.16872800  0.96973013  1
  O  O441  1  0.00678437  0.66991735  0.30138773  1
  O  O442  1  0.01061636  0.67080882  0.63951871  1
  O  O443  1  0.00568698  0.67094184  0.97026902  1
  O  O444  1  0.51276027  0.16788149  0.29997028  1
  O  O445  1  0.50359592  0.15690434  0.64300637  1
  O  O446  1  0.49948598  0.14872837  0.96566474  1
  O  O447  1  0.50936103  0.66073114  0.29755127  1
  O  O448  1  0.50244056  0.66278519  0.63958978  1
  O  O449  1  0.51027247  0.66436314  0.96905139  1
  O  O450  1  0.33167462  0.49214599  0.19795456  1
  O  O451  1  0.34510934  0.49800447  0.52845056  1
  O  O452  1  0.33682401  0.48573467  0.87120871  1
  O  O453  1  0.32732263  0.98781245  0.19336447  1
  O  O454  1  0.33211098  0.99276759  0.52858875  1
  O  O455  1  0.33668154  0.99028670  0.86448945  1
  O  O456  1  0.83257856  0.49485604  0.18518959  1
  O  O457  1  0.83773795  0.49410043  0.53459159  1
  O  O458  1  0.83316033  0.49096289  0.86273011  1
  O  O459  1  0.83080707  0.98961118  0.19793758  1
  O  O460  1  0.82744587  0.98811479  0.52682963  1
  O  O461  1  0.82831406  0.99264832  0.86527695  1
