# generated using pymatgen
data_Na31Fe20(SO4)36
_symmetry_space_group_name_H-M   'P 1'
_cell_length_a   18.07270443
_cell_length_b   18.07325642
_cell_length_c   19.72223674
_cell_angle_alpha   107.59670379
_cell_angle_beta   107.58835773
_cell_angle_gamma   90.71740082
_symmetry_Int_Tables_number   1
_chemical_formula_structural   Na31Fe20(SO4)36
_chemical_formula_sum   'Na62 Fe40 S72 O288'
_cell_volume   5815.06764611
_cell_formula_units_Z   2
loop_
 _symmetry_equiv_pos_site_id
 _symmetry_equiv_pos_as_xyz
  1  'x, y, z'
loop_
 _atom_site_type_symbol
 _atom_site_label
 _atom_site_symmetry_multiplicity
 _atom_site_fract_x
 _atom_site_fract_y
 _atom_site_fract_z
 _atom_site_occupancy
  Na  Na0  1  0.12826244  0.37017477  0.07992868  1
  Na  Na1  1  0.13178920  0.36698127  0.41465173  1
  Na  Na2  1  0.14954306  0.37506994  0.76300570  1
  Na  Na3  1  0.13714513  0.85964314  0.07664490  1
  Na  Na4  1  0.13928023  0.86011521  0.42198064  1
  Na  Na5  1  0.14440984  0.86696859  0.75302646  1
  Na  Na6  1  0.63408233  0.36603522  0.08372017  1
  Na  Na7  1  0.63190886  0.36430813  0.40912334  1
  Na  Na8  1  0.63134272  0.36990753  0.75802454  1
  Na  Na9  1  0.63176171  0.86611789  0.08620380  1
  Na  Na10  1  0.62519292  0.85935922  0.41050733  1
  Na  Na11  1  0.63253687  0.85110141  0.73854669  1
  Na  Na12  1  0.38209159  0.13077722  0.25245047  1
  Na  Na13  1  0.37791934  0.13387396  0.59124276  1
  Na  Na14  1  0.36751569  0.13491177  0.91363066  1
  Na  Na15  1  0.36901637  0.63500114  0.24951954  1
  Na  Na16  1  0.36752969  0.64911608  0.59437127  1
  Na  Na17  1  0.35120555  0.62598795  0.90803236  1
  Na  Na18  1  0.86537082  0.13535458  0.25209738  1
  Na  Na19  1  0.87257348  0.12740813  0.58457747  1
  Na  Na20  1  0.86414100  0.13764227  0.91345193  1
  Na  Na21  1  0.86211005  0.63907296  0.25277831  1
  Na  Na22  1  0.83646248  0.64261219  0.56615996  1
  Na  Na23  1  0.86000981  0.62819999  0.91198369  1
  Na  Na24  1  0.99152925  0.00172861  0.43401704  1
  Na  Na25  1  0.49361218  0.51545678  0.41529161  1
  Na  Na26  1  0.49816586  0.00272341  0.74080376  1
  Na  Na27  1  0.48388886  0.01926161  0.11470362  1
  Na  Na28  1  0.47897507  0.51165085  0.75483694  1
  Na  Na29  1  0.97872817  0.50840539  0.42770854  1
  Na  Na30  1  0.47924846  0.53598846  0.08229638  1
  Na  Na31  1  0.98959172  0.00659478  0.08197940  1
  Na  Na32  1  1.00300663  0.00478258  0.72902006  1
  Na  Na33  1  0.50935884  0.48737623  0.58375673  1
  Na  Na34  1  0.50538013  0.94922309  0.90825365  1
  Na  Na35  1  0.00959399  0.99023475  0.91009198  1
  Na  Na36  1  0.03223377  0.48579980  0.64684765  1
  Na  Na37  1  0.50148830  0.45079958  0.90842918  1
  Na  Na38  1  -0.00194551  0.51156790  0.23303323  1
  Na  Na39  1  0.00911040  0.98483239  0.25326786  1
  Na  Na40  1  -0.00762760  0.50027966  0.91715629  1
  Na  Na41  1  0.56777163  0.50906329  0.27276692  1
  Na  Na42  1  0.74251026  0.74256760  0.00498931  1
  Na  Na43  1  0.26048689  0.26488513  -0.00733228  1
  Na  Na44  1  0.26953154  0.26262928  0.66312127  1
  Na  Na45  1  0.73829384  0.24137781  0.33733865  1
  Na  Na46  1  0.75543462  0.26311813  -0.00353840  1
  Na  Na47  1  0.26201497  0.75617491  0.66367097  1
  Na  Na48  1  0.72559145  0.72400710  0.35027751  1
  Na  Na49  1  0.74856121  0.24845117  0.66868716  1
  Na  Na50  1  0.25625874  0.25321971  0.32440064  1
  Na  Na51  1  0.25155845  0.74996189  0.33630051  1
  Na  Na52  1  0.75661973  0.26128776  0.83295293  1
  Na  Na53  1  0.25701496  0.25819247  0.15805472  1
  Na  Na54  1  0.74619150  0.24388645  0.50379797  1
  Na  Na55  1  0.23859271  0.73119430  0.84249790  1
  Na  Na56  1  0.73588796  0.24213657  0.17057821  1
  Na  Na57  1  0.25642021  0.25515863  0.49712588  1
  Na  Na58  1  0.27703496  0.27287599  0.83064035  1
  Na  Na59  1  0.75595851  0.75400155  0.82487387  1
  Na  Na60  1  0.73617069  0.73883412  0.17459858  1
  Na  Na61  1  0.26389415  0.75910285  0.15288605  1
  Fe  Fe62  1  0.96227845  0.30932350  0.11654006  1
  Fe  Fe63  1  0.96418609  0.30612003  0.78682531  1
  Fe  Fe64  1  0.96579337  0.30758263  0.45472179  1
  Fe  Fe65  1  0.46574823  0.30592223  0.45233672  1
  Fe  Fe66  1  0.96651998  0.80390276  0.11423056  1
  Fe  Fe67  1  0.96403157  0.80850389  0.45331767  1
  Fe  Fe68  1  0.96109204  0.80647371  0.77691000  1
  Fe  Fe69  1  0.46767353  0.79935544  0.12714318  1
  Fe  Fe70  1  0.46442699  0.81057627  0.45746918  1
  Fe  Fe71  1  0.47120673  0.30024963  0.12591549  1
  Fe  Fe72  1  0.68959665  0.03307352  0.37534921  1
  Fe  Fe73  1  0.68909954  0.03634442  0.04454356  1
  Fe  Fe74  1  0.69191530  0.03157522  0.70793631  1
  Fe  Fe75  1  0.69796090  0.53070235  0.03903821  1
  Fe  Fe76  1  0.19884045  0.53199269  0.03933996  1
  Fe  Fe77  1  0.19407122  0.03419389  0.38287306  1
  Fe  Fe78  1  0.19391695  0.03318396  0.05077521  1
  Fe  Fe79  1  0.19356777  0.03654014  0.71412436  1
  Fe  Fe80  1  0.18930416  0.53667844  0.38070939  1
  Fe  Fe81  1  0.69248824  0.53482911  0.71495038  1
  Fe  Fe82  1  0.03752637  0.19530386  0.55147102  1
  Fe  Fe83  1  0.03443310  0.69113592  0.21047607  1
  Fe  Fe84  1  0.03632534  0.19158325  0.88308916  1
  Fe  Fe85  1  0.03225536  0.19391804  0.21532592  1
  Fe  Fe86  1  0.53606582  0.18869783  0.54416259  1
  Fe  Fe87  1  0.53556486  0.69195484  0.55021694  1
  Fe  Fe88  1  0.53142564  0.19847932  0.87713518  1
  Fe  Fe89  1  0.03768391  0.69498513  0.55064040  1
  Fe  Fe90  1  0.52750286  0.70151058  0.87512031  1
  Fe  Fe91  1  0.03623792  0.68880591  0.87646240  1
  Fe  Fe92  1  0.80610229  0.46883993  0.61966086  1
  Fe  Fe93  1  0.80381993  0.95679054  0.61136856  1
  Fe  Fe94  1  0.80863937  0.96265419  0.28327351  1
  Fe  Fe95  1  0.30778364  0.96354528  0.95173066  1
  Fe  Fe96  1  0.80203102  0.46955562  0.28770782  1
  Fe  Fe97  1  0.30798747  0.96054397  0.61725505  1
  Fe  Fe98  1  0.31215940  0.96582120  0.28906324  1
  Fe  Fe99  1  0.29910732  0.47146908  0.62492275  1
  Fe  Fe100  1  0.30360560  0.46757493  0.28735464  1
  Fe  Fe101  1  0.80646681  0.96686202  0.94835709  1
  S  S102  1  0.35360898  0.13897264  0.08188606  1
  S  S103  1  0.35744126  0.14246324  0.41662047  1
  S  S104  1  0.35973639  0.13740438  0.74846832  1
  S  S105  1  0.35605331  0.64111299  0.08363367  1
  S  S106  1  0.35622285  0.63985997  0.41933143  1
  S  S107  1  0.35687574  0.64298424  0.74734635  1
  S  S108  1  0.85876875  0.14041931  0.08212686  1
  S  S109  1  0.86346611  0.13762543  0.41655325  1
  S  S110  1  0.86382970  0.13233552  0.74709100  1
  S  S111  1  0.86116723  0.64368739  0.08295457  1
  S  S112  1  0.86413001  0.64110078  0.41623303  1
  S  S113  1  0.85921014  0.64157458  0.75026604  1
  S  S114  1  0.13786187  0.35931976  0.24988577  1
  S  S115  1  0.14192835  0.35347412  0.58064639  1
  S  S116  1  0.13872645  0.35818417  0.91813819  1
  S  S117  1  0.13907256  0.86058977  0.24818675  1
  S  S118  1  0.13787161  0.86251309  0.58380306  1
  S  S119  1  0.13743216  0.86260065  0.91515113  1
  S  S120  1  0.64530850  0.35735455  0.25032114  1
  S  S121  1  0.64075905  0.35906293  0.58337400  1
  S  S122  1  0.64132736  0.35675297  0.91727590  1
  S  S123  1  0.64494847  0.85694024  0.25088531  1
  S  S124  1  0.64158903  0.85697480  0.58320952  1
  S  S125  1  0.64681672  0.86014238  0.91738359  1
  S  S126  1  0.06393454  0.16511260  0.04322150  1
  S  S127  1  0.06595861  0.16759458  0.37549175  1
  S  S128  1  0.07257970  0.17430365  0.71364241  1
  S  S129  1  0.07034334  0.67101440  0.04279557  1
  S  S130  1  0.06785056  0.66963820  0.37189775  1
  S  S131  1  0.06854234  0.68028471  0.71381967  1
  S  S132  1  0.56305828  0.16367512  0.03693423  1
  S  S133  1  0.57013373  0.17342912  0.37925201  1
  S  S134  1  0.57351239  0.16823189  0.70855390  1
  S  S135  1  0.56539780  0.66943601  0.03664098  1
  S  S136  1  0.55734800  0.66900243  0.38228309  1
  S  S137  1  0.56775471  0.66705972  0.70999206  1
  S  S138  1  0.32491317  0.43097868  0.12510096  1
  S  S139  1  0.32418487  0.43137916  0.45796331  1
  S  S140  1  0.33313532  0.43711390  0.78842245  1
  S  S141  1  0.32817186  0.93388091  0.12571997  1
  S  S142  1  0.32599388  0.93365679  0.45520716  1
  S  S143  1  0.33208123  0.93808897  0.78989860  1
  S  S144  1  0.83130619  0.43471022  0.12572053  1
  S  S145  1  0.83664079  0.42989605  0.46033823  1
  S  S146  1  0.83013129  0.43195398  0.78849855  1
  S  S147  1  0.83566074  0.93552027  0.12341303  1
  S  S148  1  0.82809739  0.93014837  0.45180805  1
  S  S149  1  0.83137954  0.93385268  0.79180352  1
  S  S150  1  0.42919395  0.33288861  0.29301941  1
  S  S151  1  0.43411450  0.33632507  0.62357172  1
  S  S152  1  0.43749937  0.32987997  0.96607038  1
  S  S153  1  0.42864425  0.83034654  0.29281400  1
  S  S154  1  0.43572253  0.83590493  0.62628148  1
  S  S155  1  0.43243104  0.83207648  0.96402447  1
  S  S156  1  0.93073006  0.32949120  0.29004781  1
  S  S157  1  0.93256464  0.32704677  0.62418154  1
  S  S158  1  0.93531904  0.32804829  0.95461703  1
  S  S159  1  0.93683335  0.83321283  0.29119706  1
  S  S160  1  0.93582065  0.83249958  0.62539060  1
  S  S161  1  0.93478179  0.83237722  0.95581722  1
  S  S162  1  0.16391723  0.06618831  0.20890250  1
  S  S163  1  0.17174799  0.06927906  0.54259293  1
  S  S164  1  0.16617599  0.06640997  0.87585198  1
  S  S165  1  0.17081342  0.56854114  0.20648606  1
  S  S166  1  0.16644844  0.56495347  0.54066394  1
  S  S167  1  0.15708197  0.56352886  0.87326028  1
  S  S168  1  0.67541590  0.06603088  0.20997189  1
  S  S169  1  0.67686823  0.06900910  0.54292694  1
  S  S170  1  0.67239381  0.06991806  0.87437388  1
  S  S171  1  0.67248703  0.56618857  0.20348828  1
  S  S172  1  0.65914912  0.55799342  0.54147734  1
  S  S173  1  0.66622485  0.57157529  0.87345591  1
  O  O174  1  0.36381064  0.22074760  0.08030378  1
  O  O175  1  0.36500971  0.22211014  0.40885698  1
  O  O176  1  0.36678753  0.21348523  0.73824816  1
  O  O177  1  0.36344949  0.72606561  0.09034186  1
  O  O178  1  0.36505443  0.71838696  0.41154507  1
  O  O179  1  0.37237401  0.71518767  0.73272175  1
  O  O180  1  0.86816275  0.21891522  0.07363162  1
  O  O181  1  0.87310825  0.21567130  0.40647343  1
  O  O182  1  0.87229453  0.21020775  0.73620445  1
  O  O183  1  0.87005814  0.72718266  0.08110798  1
  O  O184  1  0.87719211  0.71734433  0.40227572  1
  O  O185  1  0.86531214  0.72254126  0.74698581  1
  O  O186  1  0.27257217  0.13077069  0.08823747  1
  O  O187  1  0.27762435  0.13280806  0.42353123  1
  O  O188  1  0.28295626  0.12797110  0.76274478  1
  O  O189  1  0.27192366  0.62789414  0.08609068  1
  O  O190  1  0.27575280  0.62753890  0.42229299  1
  O  O191  1  0.28087056  0.63575838  0.75777599  1
  O  O192  1  0.77980999  0.13090895  0.08925649  1
  O  O193  1  0.78400516  0.13016385  0.42336740  1
  O  O194  1  0.78594813  0.12580791  0.75787914  1
  O  O195  1  0.78044770  0.63487210  0.08850940  1
  O  O196  1  0.78729699  0.63492274  0.42421157  1
  O  O197  1  0.78205223  0.62861372  0.76127944  1
  O  O198  1  0.12745673  0.28157446  0.26098014  1
  O  O199  1  0.13837038  0.27104985  0.58301260  1
  O  O200  1  0.12524283  0.28334064  0.93420373  1
  O  O201  1  0.13057386  0.78197734  0.25663940  1
  O  O202  1  0.13102597  0.78457257  0.59494206  1
  O  O203  1  0.12664628  0.78422986  0.92176552  1
  O  O204  1  0.63976709  0.27771944  0.25399495  1
  O  O205  1  0.63239348  0.27871871  0.58890129  1
  O  O206  1  0.62884721  0.27881903  0.92937813  1
  O  O207  1  0.64353671  0.78116363  0.26257724  1
  O  O208  1  0.62962114  0.78095129  0.59466000  1
  O  O209  1  0.63455582  0.78125680  0.92395722  1
  O  O210  1  0.21832970  0.36582025  0.24460880  1
  O  O211  1  0.22183099  0.36803637  0.57495332  1
  O  O212  1  0.21414701  0.36001015  0.90579299  1
  O  O213  1  0.21738939  0.87221282  0.24101459  1
  O  O214  1  0.21528073  0.87231480  0.57385167  1
  O  O215  1  0.21570020  0.87152886  0.90544566  1
  O  O216  1  0.72275624  0.37077742  0.23795417  1
  O  O217  1  0.71945127  0.36826674  0.57470103  1
  O  O218  1  0.72055547  0.36250695  0.91282597  1
  O  O219  1  0.72101412  0.87144391  0.23602207  1
  O  O220  1  0.72015140  0.86493744  0.57428957  1
  O  O221  1  0.72977601  0.86847395  0.91656934  1
  O  O222  1  0.41075450  0.12460309  0.14545815  1
  O  O223  1  0.41586675  0.13660967  0.48543848  1
  O  O224  1  0.42183774  0.12866339  0.81466183  1
  O  O225  1  0.40960044  0.62466267  0.14845474  1
  O  O226  1  0.41350496  0.63056659  0.48792654  1
  O  O227  1  0.41872932  0.63282700  0.81414126  1
  O  O228  1  0.91753140  0.13224568  0.15067224  1
  O  O229  1  0.92214369  0.13060816  0.48581005  1
  O  O230  1  0.92440116  0.12476995  0.81451803  1
  O  O231  1  0.91735239  0.63775068  0.15443341  1
  O  O232  1  0.92543734  0.63498710  0.48497788  1
  O  O233  1  0.91994946  0.63249945  0.81691228  1
  O  O234  1  0.35726860  0.08382909  0.00959640  1
  O  O235  1  0.36454045  0.08486028  0.34806938  1
  O  O236  1  0.36500382  0.07496568  0.68042717  1
  O  O237  1  0.36452655  0.59171101  0.01345417  1
  O  O238  1  0.36727314  0.58009834  0.35234183  1
  O  O239  1  0.36392988  0.57638640  0.67941151  1
  O  O240  1  0.86920329  0.08105754  0.01513089  1
  O  O241  1  0.87420753  0.07723948  0.35064660  1
  O  O242  1  0.87139891  0.07117457  0.67988801  1
  O  O243  1  0.87194115  0.58970643  0.01672854  1
  O  O244  1  0.87471189  0.57845355  0.35042305  1
  O  O245  1  0.86468398  0.58560274  0.67958190  1
  O  O246  1  0.08101242  0.36433350  0.17953285  1
  O  O247  1  0.08429039  0.35929326  0.51057868  1
  O  O248  1  0.07591500  0.36660471  0.85271441  1
  O  O249  1  0.07923548  0.86786888  0.17946828  1
  O  O250  1  0.07747871  0.86719752  0.51481155  1
  O  O251  1  0.07740718  0.87605021  0.85023503  1
  O  O252  1  0.58367490  0.36635417  0.18288930  1
  O  O253  1  0.58070117  0.36936427  0.51702571  1
  O  O254  1  0.58197823  0.36424753  0.85087365  1
  O  O255  1  0.58212905  0.86099394  0.18321124  1
  O  O256  1  0.58274891  0.86649858  0.51613668  1
  O  O257  1  0.59293276  0.87213139  0.85074263  1
  O  O258  1  0.12804977  0.42060658  0.31528660  1
  O  O259  1  0.12890655  0.40640569  0.64725882  1
  O  O260  1  0.13555371  0.42206057  0.98723745  1
  O  O261  1  0.12791695  0.92025251  0.31501336  1
  O  O262  1  0.12908353  0.92285718  0.65077924  1
  O  O263  1  0.13146163  0.92184076  0.98518867  1
  O  O264  1  0.63915033  0.41603889  0.31794649  1
  O  O265  1  0.63263535  0.41604043  0.65237392  1
  O  O266  1  0.63280122  0.41749061  0.98569620  1
  O  O267  1  0.63891664  0.91898191  0.31838999  1
  O  O268  1  0.63712045  0.91857834  0.65222751  1
  O  O269  1  0.63815830  0.91862695  0.98683785  1
  O  O270  1  0.02792064  0.19684102  0.10428906  1
  O  O271  1  0.03055908  0.19738343  0.43662955  1
  O  O272  1  0.03533677  0.20374523  0.77410361  1
  O  O273  1  0.03188666  0.69718479  0.10353480  1
  O  O274  1  0.03740489  0.70126136  0.43636843  1
  O  O275  1  0.02763349  0.71251726  0.77273809  1
  O  O276  1  0.52496854  0.19107106  0.09503311  1
  O  O277  1  0.53237125  0.20359035  0.44155835  1
  O  O278  1  0.53866646  0.19213029  0.76892245  1
  O  O279  1  0.52624121  0.69457979  0.09450627  1
  O  O280  1  0.52287801  0.70585732  0.44623930  1
  O  O281  1  0.53524792  0.69631281  0.77154409  1
  O  O282  1  0.29491930  0.47078091  0.06741486  1
  O  O283  1  0.29391467  0.46737382  0.39673449  1
  O  O284  1  0.29723587  0.46605564  0.72253032  1
  O  O285  1  0.29883209  0.97087841  0.06373773  1
  O  O286  1  0.29717063  0.97308180  0.39497262  1
  O  O287  1  0.29143866  0.96921329  0.72619477  1
  O  O288  1  0.80357606  0.47214971  0.06788503  1
  O  O289  1  0.81738320  0.46327818  0.39866089  1
  O  O290  1  0.79932055  0.46395481  0.72342881  1
  O  O291  1  0.80698498  0.97401591  0.06445702  1
  O  O292  1  0.80007448  0.97028452  0.39319571  1
  O  O293  1  0.80002620  0.96586961  0.72857633  1
  O  O294  1  0.46504095  0.31321824  0.23341452  1
  O  O295  1  0.46551023  0.30665101  0.55794272  1
  O  O296  1  0.46883819  0.29725139  0.90282850  1
  O  O297  1  0.46716859  0.80710815  0.23498625  1
  O  O298  1  0.46530029  0.79844472  0.56065119  1
  O  O299  1  0.47385075  0.81025632  0.90731079  1
  O  O300  1  0.96746560  0.29970083  0.22869641  1
  O  O301  1  0.97073280  0.29666323  0.56345383  1
  O  O302  1  0.96568799  0.28505132  0.89034215  1
  O  O303  1  0.97397109  0.80518790  0.23093085  1
  O  O304  1  0.96924865  0.79956276  0.56245174  1
  O  O305  1  0.96887606  0.80231743  0.89412388  1
  O  O306  1  0.19566228  0.03373705  0.27186578  1
  O  O307  1  0.19988758  0.03329576  0.60338908  1
  O  O308  1  0.19523396  0.02980041  0.93610170  1
  O  O309  1  0.19741536  0.52676811  0.26419424  1
  O  O310  1  0.19425149  0.52357610  0.59657619  1
  O  O311  1  0.18657309  0.53037140  0.93741294  1
  O  O312  1  0.71110090  0.03092593  0.27204814  1
  O  O313  1  0.70741443  0.03073419  0.60307641  1
  O  O314  1  0.70140012  0.03245064  0.93565600  1
  O  O315  1  0.70271676  0.53045651  0.26434799  1
  O  O316  1  0.69689279  0.52960906  0.60916840  1
  O  O317  1  0.68787916  0.53599275  0.93366915  1
  O  O318  1  0.07997608  0.08248394  0.03951910  1
  O  O319  1  0.08276407  0.08510209  0.36956666  1
  O  O320  1  0.09041110  0.09299677  0.71070339  1
  O  O321  1  0.09281996  0.59034729  0.03671818  1
  O  O322  1  0.08115137  0.58568835  0.36368475  1
  O  O323  1  0.08846033  0.60295337  0.71551108  1
  O  O324  1  0.58077704  0.08026744  0.03050181  1
  O  O325  1  0.59768267  0.09734601  0.38345970  1
  O  O326  1  0.58976253  0.08475619  0.69681689  1
  O  O327  1  0.58484496  0.58745045  0.02936436  1
  O  O328  1  0.57758164  0.59162068  0.38872930  1
  O  O329  1  0.58025354  0.58196267  0.69884838  1
  O  O330  1  0.40266435  0.40674128  0.12531480  1
  O  O331  1  0.40727040  0.41707874  0.46512564  1
  O  O332  1  0.41457041  0.42366045  0.79107620  1
  O  O333  1  0.40858065  0.91519681  0.13045839  1
  O  O334  1  0.40482569  0.91244949  0.45858369  1
  O  O335  1  0.41440746  0.93523350  0.79407161  1
  O  O336  1  0.91310611  0.41281880  0.12976933  1
  O  O337  1  0.92213089  0.41563391  0.47744971  1
  O  O338  1  0.90913302  0.40609576  0.78911056  1
  O  O339  1  0.91810065  0.91743905  0.12717722  1
  O  O340  1  0.90969017  0.91236974  0.45440723  1
  O  O341  1  0.91298279  0.91467736  0.79468434  1
  O  O342  1  0.40756200  0.41475604  0.30790234  1
  O  O343  1  0.40668070  0.41563337  0.62373545  1
  O  O344  1  0.42901536  0.41299808  0.97596148  1
  O  O345  1  0.40823702  0.91185528  0.30161671  1
  O  O346  1  0.41277428  0.91518660  0.62234400  1
  O  O347  1  0.41586768  0.91675450  0.97247581  1
  O  O348  1  0.91444509  0.41129570  0.29696108  1
  O  O349  1  0.91298923  0.40715881  0.62634174  1
  O  O350  1  0.92723101  0.40747802  0.95472857  1
  O  O351  1  0.92233422  0.91731147  0.29874771  1
  O  O352  1  0.91251891  0.91152163  0.62382015  1
  O  O353  1  0.91796280  0.91548971  0.96122973  1
  O  O354  1  0.08037177  0.08129112  0.20349658  1
  O  O355  1  0.09112886  0.09089437  0.53832466  1
  O  O356  1  0.08206027  0.08056958  0.86905486  1
  O  O357  1  0.08879064  0.58498348  0.20199437  1
  O  O358  1  0.08533089  0.58527331  0.53788490  1
  O  O359  1  0.07536597  0.58317173  0.87203210  1
  O  O360  1  0.59614300  0.08066967  0.20725600  1
  O  O361  1  0.59912721  0.09208025  0.54280019  1
  O  O362  1  0.59093843  0.08737332  0.86707585  1
  O  O363  1  0.59013698  0.57719846  0.19538791  1
  O  O364  1  0.57764447  0.57726074  0.54354611  1
  O  O365  1  0.58461954  0.59223852  0.85993861  1
  O  O366  1  0.13514439  0.21542215  0.05784307  1
  O  O367  1  0.13713456  0.21847045  0.38950410  1
  O  O368  1  0.14319637  0.22587627  0.72824035  1
  O  O369  1  0.13819079  0.72721020  0.06094076  1
  O  O370  1  0.13834547  0.71793506  0.38165622  1
  O  O371  1  0.13850780  0.73503909  0.73202167  1
  O  O372  1  0.63679547  0.21390415  0.05510067  1
  O  O373  1  0.63948805  0.23076612  0.39785431  1
  O  O374  1  0.64631216  0.21963666  0.72559799  1
  O  O375  1  0.63818251  0.72338067  0.05756093  1
  O  O376  1  0.62659662  0.72185783  0.39572703  1
  O  O377  1  0.64136227  0.71408833  0.72439751  1
  O  O378  1  0.26787836  0.36186201  0.10848504  1
  O  O379  1  0.27399168  0.35728236  0.43818114  1
  O  O380  1  0.28471702  0.36167731  0.77166525  1
  O  O381  1  0.27347336  0.86556843  0.10993442  1
  O  O382  1  0.26992059  0.86475127  0.43618228  1
  O  O383  1  0.28884308  0.86238700  0.77619774  1
  O  O384  1  0.77951540  0.36338394  0.11138579  1
  O  O385  1  0.78675908  0.35644796  0.44235820  1
  O  O386  1  0.77527398  0.36253120  0.77439865  1
  O  O387  1  0.78377243  0.86501220  0.10781291  1
  O  O388  1  0.77628870  0.85952392  0.43462649  1
  O  O389  1  0.78055322  0.86627459  0.78454094  1
  O  O390  1  0.35930451  0.27649175  0.27369668  1
  O  O391  1  0.36588118  0.28008219  0.60907209  1
  O  O392  1  0.36205638  0.28178984  0.94901234  1
  O  O393  1  0.35664702  0.77654640  0.27347444  1
  O  O394  1  0.36672195  0.78619208  0.61823720  1
  O  O395  1  0.36013290  0.78079718  0.94269802  1
  O  O396  1  0.86011413  0.27650448  0.27351653  1
  O  O397  1  0.86210265  0.27318729  0.60680463  1
  O  O398  1  0.86152105  0.28074032  0.94270474  1
  O  O399  1  0.86421013  0.78389807  0.27379984  1
  O  O400  1  0.87118091  0.77988041  0.62007668  1
  O  O401  1  0.86393263  0.78204420  0.94331345  1
  O  O402  1  0.21203877  0.13814870  0.22052973  1
  O  O403  1  0.22645608  0.13704964  0.55538331  1
  O  O404  1  0.21484810  0.13930350  0.89204274  1
  O  O405  1  0.22295275  0.64067075  0.22806275  1
  O  O406  1  0.21949995  0.63500232  0.55733900  1
  O  O407  1  0.20790881  0.63456831  0.88879276  1
  O  O408  1  0.72804356  0.13778913  0.22603339  1
  O  O409  1  0.73309835  0.13866988  0.56049080  1
  O  O410  1  0.72608515  0.14100348  0.89290668  1
  O  O411  1  0.72309012  0.64064053  0.22410868  1
  O  O412  1  0.70661800  0.62756472  0.54970075  1
  O  O413  1  0.72202570  0.64117571  0.89123598  1
  O  O414  1  0.49439986  0.32279371  0.03684628  1
  O  O415  1  0.48869656  0.33161068  0.36479924  1
  O  O416  1  0.49714360  0.34539010  0.69261001  1
  O  O417  1  0.48799007  0.83327501  0.03833326  1
  O  O418  1  0.48553762  0.82968722  0.36551720  1
  O  O419  1  0.50043837  0.84941437  0.69613530  1
  O  O420  1  0.99384333  0.32492193  0.02640677  1
  O  O421  1  0.99043890  0.32997482  0.36222092  1
  O  O422  1  0.99198622  0.32957464  0.69606435  1
  O  O423  1  0.99534626  0.83702267  0.02888433  1
  O  O424  1  0.99520168  0.83455270  0.36399218  1
  O  O425  1  1.00057616  0.84721189  0.69881932  1
  O  O426  1  0.16060885  0.00502562  0.13698628  1
  O  O427  1  0.16354919  0.00742126  0.46890802  1
  O  O428  1  0.16354114  0.00805246  0.80258689  1
  O  O429  1  0.17096185  0.51368460  0.13251575  1
  O  O430  1  0.15833521  0.50762305  0.46415144  1
  O  O431  1  0.15105690  0.50270155  0.80280334  1
  O  O432  1  0.67701793  0.00746501  0.13765598  1
  O  O433  1  0.67314234  0.00997859  0.47056824  1
  O  O434  1  0.67271338  0.01046816  0.80301498  1
  O  O435  1  0.67752806  0.51063838  0.13139974  1
  O  O436  1  0.64949107  0.49227287  0.47360193  1
  O  O437  1  0.66902601  0.51059594  0.80270758  1
  O  O438  1  0.00573355  0.16511392  0.30293744  1
  O  O439  1  0.01255572  0.16977411  0.64059860  1
  O  O440  1  0.00469534  0.16003522  0.96975966  1
  O  O441  1  0.00488065  0.66669185  0.30015736  1
  O  O442  1  0.01029001  0.67758483  0.64055583  1
  O  O443  1  0.00895740  0.66884031  0.97152779  1
  O  O444  1  0.51186447  0.16644830  0.30813057  1
  O  O445  1  0.51517372  0.17256095  0.63735974  1
  O  O446  1  0.50771231  0.16116959  0.96230955  1
  O  O447  1  0.49760981  0.65920072  0.31019871  1
  O  O448  1  0.50823690  0.67036819  0.63906175  1
  O  O449  1  0.51012579  0.67039224  0.96314046  1
  O  O450  1  0.33100334  0.48843699  0.20029664  1
  O  O451  1  0.32126809  0.48822740  0.52936132  1
  O  O452  1  0.33047196  0.49422752  0.85741522  1
  O  O453  1  0.32910619  0.99524382  0.19729007  1
  O  O454  1  0.32674022  0.99318605  0.52690945  1
  O  O455  1  0.32765332  0.99475094  0.86212513  1
  O  O456  1  0.84052403  0.49252760  0.20194572  1
  O  O457  1  0.82892144  0.48941413  0.52900177  1
  O  O458  1  0.83906448  0.49402245  0.85848341  1
  O  O459  1  0.84220918  0.99371479  0.19823497  1
  O  O460  1  0.83248564  0.98842362  0.52547838  1
  O  O461  1  0.84032309  0.99786964  0.86457025  1
