# generated using pymatgen
data_Na31Fe20(SO4)36
_symmetry_space_group_name_H-M   'P 1'
_cell_length_a   18.08831523
_cell_length_b   18.07809183
_cell_length_c   19.71664620
_cell_angle_alpha   107.59168442
_cell_angle_beta   107.56399848
_cell_angle_gamma   90.71881508
_symmetry_Int_Tables_number   1
_chemical_formula_structural   Na31Fe20(SO4)36
_chemical_formula_sum   'Na62 Fe40 S72 O288'
_cell_volume   5821.04675971
_cell_formula_units_Z   2
loop_
 _symmetry_equiv_pos_site_id
 _symmetry_equiv_pos_as_xyz
  1  'x, y, z'
loop_
 _atom_site_type_symbol
 _atom_site_label
 _atom_site_symmetry_multiplicity
 _atom_site_fract_x
 _atom_site_fract_y
 _atom_site_fract_z
 _atom_site_occupancy
  Na  Na0  1  0.13132316  0.36637941  0.07953028  1
  Na  Na1  1  0.13899759  0.38967168  0.42754433  1
  Na  Na2  1  0.06635381  0.45563505  0.73343269  1
  Na  Na3  1  0.14665976  0.85995741  0.08218690  1
  Na  Na4  1  0.15555605  0.86925976  0.43054261  1
  Na  Na5  1  0.12436358  0.78419329  0.69291283  1
  Na  Na6  1  0.63412641  0.36279859  0.08458075  1
  Na  Na7  1  0.62467021  0.36456341  0.40774926  1
  Na  Na8  1  0.62961149  0.36888497  0.75335543  1
  Na  Na9  1  0.63847560  0.86561360  0.08544711  1
  Na  Na10  1  0.64056766  0.86523563  0.42286581  1
  Na  Na11  1  0.62608074  0.86103227  0.74326411  1
  Na  Na12  1  0.36356298  0.13825392  0.24918231  1
  Na  Na13  1  0.35952923  0.12735973  0.58219191  1
  Na  Na14  1  0.36365857  0.12598726  0.91268481  1
  Na  Na15  1  0.36443007  0.63416942  0.25106343  1
  Na  Na16  1  0.37906539  0.68331341  0.63164040  1
  Na  Na17  1  0.36092201  0.63932935  0.91679379  1
  Na  Na18  1  0.86534459  0.13651049  0.25075165  1
  Na  Na19  1  0.86892586  0.13306928  0.58440293  1
  Na  Na20  1  0.86377236  0.13029604  0.90867994  1
  Na  Na21  1  0.86891026  0.63386990  0.25279471  1
  Na  Na22  1  0.88172508  0.64148496  0.59497557  1
  Na  Na23  1  0.87243602  0.62616972  0.91461738  1
  Na  Na24  1  0.47896782  0.49884858  0.10018976  1
  Na  Na25  1  1.01729530  -0.00734313  0.05384110  1
  Na  Na26  1  0.48892628  0.52195306  0.40772532  1
  Na  Na27  1  1.02377121  0.58428702  0.48421572  1
  Na  Na28  1  0.48816143  0.03532585  0.08703195  1
  Na  Na29  1  0.41887945  -0.01549646  0.72045184  1
  Na  Na30  1  0.99425644  0.51001274  0.06715366  1
  Na  Na31  1  0.45418216  0.00788389  0.40181764  1
  Na  Na32  1  1.00973268  -0.01412838  0.42055456  1
  Na  Na33  1  0.49443257  0.52439549  0.88918904  1
  Na  Na34  1  0.50364267  0.93935204  0.89277392  1
  Na  Na35  1  0.03857976  0.49262477  0.26974431  1
  Na  Na36  1  0.51028088  0.99334347  0.58119618  1
  Na  Na37  1  0.00537287  0.98073535  0.60151815  1
  Na  Na38  1  0.47025470  0.51156579  0.61178985  1
  Na  Na39  1  0.49081903  1.01528706  0.24820025  1
  Na  Na40  1  0.02623033  0.99284563  0.24231026  1
  Na  Na41  1  0.02540573  0.94513795  0.79478291  1
  Na  Na42  1  0.74193228  0.74135907  0.34531201  1
  Na  Na43  1  0.75747689  0.25637625  -0.01373299  1
  Na  Na44  1  0.76473506  0.75940436  0.65353119  1
  Na  Na45  1  0.73425729  0.24244684  0.33788153  1
  Na  Na46  1  0.24426329  0.25605069  0.66919304  1
  Na  Na47  1  0.25221552  0.25249683  -0.00398551  1
  Na  Na48  1  0.76109143  0.75448809  -0.00322532  1
  Na  Na49  1  0.24729049  0.24929003  0.33200570  1
  Na  Na50  1  0.24406061  0.74201807  0.34286662  1
  Na  Na51  1  0.73876172  0.24080924  0.68260382  1
  Na  Na52  1  0.73745838  0.24505290  0.17096309  1
  Na  Na53  1  0.73971665  0.24382844  0.50519789  1
  Na  Na54  1  0.74575540  0.74214362  0.17035129  1
  Na  Na55  1  0.26630547  0.76638625  0.15898539  1
  Na  Na56  1  0.23532208  0.73598860  0.52073402  1
  Na  Na57  1  0.76661575  0.75995419  0.82285730  1
  Na  Na58  1  0.24538608  0.25061978  0.49913671  1
  Na  Na59  1  0.25243598  0.73799089  0.83356125  1
  Na  Na60  1  0.25340937  0.25536124  0.16257614  1
  Na  Na61  1  0.24693193  0.25720985  0.83063182  1
  Fe  Fe62  1  0.96433950  0.30719216  0.11652643  1
  Fe  Fe63  1  0.46499948  0.31082969  0.45831260  1
  Fe  Fe64  1  0.46602684  0.80923386  0.44828515  1
  Fe  Fe65  1  0.46429964  0.30697589  0.79172175  1
  Fe  Fe66  1  0.46566870  0.81158703  0.12152359  1
  Fe  Fe67  1  0.96654299  0.80385980  0.45587684  1
  Fe  Fe68  1  0.96577152  0.80588544  0.11829155  1
  Fe  Fe69  1  0.96648045  0.30762184  0.78351737  1
  Fe  Fe70  1  0.46723233  0.30354353  0.12884089  1
  Fe  Fe71  1  0.96475544  0.31267649  0.45271452  1
  Fe  Fe72  1  0.69166786  0.03607725  0.38029178  1
  Fe  Fe73  1  0.19461734  0.02984068  0.04206130  1
  Fe  Fe74  1  0.18970723  0.53887172  0.04616778  1
  Fe  Fe75  1  0.69133687  0.53228784  0.04429017  1
  Fe  Fe76  1  0.68997472  0.03664768  0.04664885  1
  Fe  Fe77  1  0.69206207  0.53802264  0.38162010  1
  Fe  Fe78  1  0.69410612  0.53172891  0.71397358  1
  Fe  Fe79  1  0.20393568  0.02736914  0.37822426  1
  Fe  Fe80  1  0.19648336  0.02935696  0.70923032  1
  Fe  Fe81  1  0.69401197  0.03801226  0.71908508  1
  Fe  Fe82  1  0.53797833  0.69209957  0.21615163  1
  Fe  Fe83  1  0.03663317  0.18904415  0.87469953  1
  Fe  Fe84  1  0.03361748  0.69538520  0.87540115  1
  Fe  Fe85  1  0.53694708  0.70114677  0.87722400  1
  Fe  Fe86  1  0.53584519  0.69464272  0.54958696  1
  Fe  Fe87  1  0.03466514  0.69141696  0.21309544  1
  Fe  Fe88  1  0.03157300  0.18943165  0.20818553  1
  Fe  Fe89  1  0.03525975  0.19415177  0.54403802  1
  Fe  Fe90  1  0.53476193  0.18696116  0.88008784  1
  Fe  Fe91  1  0.53178160  0.19344778  0.54960009  1
  Fe  Fe92  1  0.80510244  0.45912674  0.94754193  1
  Fe  Fe93  1  0.81004616  0.96502071  0.62290910  1
  Fe  Fe94  1  0.29876902  0.47200802  0.63112606  1
  Fe  Fe95  1  0.80884959  0.46683322  0.62039619  1
  Fe  Fe96  1  0.80926907  0.96650171  0.28649791  1
  Fe  Fe97  1  0.29580501  0.46984857  0.29560614  1
  Fe  Fe98  1  0.30789421  0.95662546  0.95127088  1
  Fe  Fe99  1  0.81071344  0.46639361  0.28830966  1
  Fe  Fe100  1  0.81062929  0.96601920  0.95282374  1
  Fe  Fe101  1  0.30015653  0.46995669  0.94984650  1
  S  S102  1  0.35631202  0.13972233  0.08358438  1
  S  S103  1  0.35932433  0.14454863  0.41637381  1
  S  S104  1  0.35754283  0.14300745  0.75248608  1
  S  S105  1  0.36325747  0.63922721  0.08723601  1
  S  S106  1  0.36110973  0.64360710  0.41383133  1
  S  S107  1  0.37698224  0.62869764  0.76267238  1
  S  S108  1  0.85644869  0.14219273  0.08138419  1
  S  S109  1  0.85898672  0.14271366  0.41545868  1
  S  S110  1  0.85951221  0.14235097  0.74845931  1
  S  S111  1  0.86033360  0.63737192  0.08246149  1
  S  S112  1  0.85528175  0.64175397  0.41432775  1
  S  S113  1  0.85641705  0.63925811  0.75391232  1
  S  S114  1  0.13728803  0.35443481  0.24828541  1
  S  S115  1  0.13793302  0.35814374  0.58034497  1
  S  S116  1  0.13624712  0.36177363  0.91464716  1
  S  S117  1  0.14033899  0.85662364  0.25043733  1
  S  S118  1  0.13324364  0.86632950  0.57388363  1
  S  S119  1  0.14245155  0.85563818  0.91753112  1
  S  S120  1  0.64194793  0.36387598  0.24967996  1
  S  S121  1  0.64064157  0.35872389  0.58498041  1
  S  S122  1  0.63875968  0.35658907  0.91889833  1
  S  S123  1  0.64564998  0.85985437  0.25134890  1
  S  S124  1  0.64108435  0.86376847  0.58387599  1
  S  S125  1  0.65162997  0.85840914  0.92072039  1
  S  S126  1  0.06726321  0.17049092  0.03925967  1
  S  S127  1  0.06654441  0.16444212  0.37094268  1
  S  S128  1  0.07012835  0.16876300  0.70546059  1
  S  S129  1  0.06774096  0.67324192  0.04422649  1
  S  S130  1  0.06231837  0.67347407  0.37675531  1
  S  S131  1  0.05869370  0.64862536  0.71436297  1
  S  S132  1  0.56354100  0.16939550  0.04219302  1
  S  S133  1  0.56306313  0.16874394  0.37762473  1
  S  S134  1  0.56501277  0.16985585  0.70943405  1
  S  S135  1  0.57047306  0.67206805  0.04448925  1
  S  S136  1  0.56842098  0.67167470  0.37502487  1
  S  S137  1  0.57770762  0.66686546  0.70815353  1
  S  S138  1  0.32325210  0.43009437  0.12587663  1
  S  S139  1  0.32807526  0.42920343  0.46416378  1
  S  S140  1  0.33254697  0.42641584  0.79452348  1
  S  S141  1  0.33608473  0.93969996  0.12664126  1
  S  S142  1  0.33665629  0.93646521  0.45583794  1
  S  S143  1  0.32043897  0.92432863  0.78993625  1
  S  S144  1  0.83191728  0.43317438  0.12282433  1
  S  S145  1  0.82444930  0.43138507  0.45433252  1
  S  S146  1  0.82576471  0.42747790  0.78795337  1
  S  S147  1  0.83539467  0.93617427  0.12617649  1
  S  S148  1  0.83198145  0.93373497  0.45649722  1
  S  S149  1  0.82531362  0.93307065  0.78826924  1
  S  S150  1  0.42517306  0.33456920  0.29509577  1
  S  S151  1  0.42764336  0.32625842  0.62683153  1
  S  S152  1  0.42775864  0.32965895  0.96193538  1
  S  S153  1  0.44423150  0.83386177  0.28827766  1
  S  S154  1  0.44132883  0.83481743  0.61548640  1
  S  S155  1  0.44258502  0.83334019  0.96397345  1
  S  S156  1  0.93050582  0.32732935  0.28559918  1
  S  S157  1  0.92738091  0.32363494  0.61689274  1
  S  S158  1  0.93193567  0.32647902  0.95541817  1
  S  S159  1  0.92944196  0.82823676  0.29025032  1
  S  S160  1  0.93540028  0.83563606  0.62494564  1
  S  S161  1  0.93530685  0.82675705  0.95909566  1
  S  S162  1  0.16359475  0.06473695  0.20379942  1
  S  S163  1  0.16978080  0.07310545  0.54028717  1
  S  S164  1  0.17173259  0.06686112  0.87445722  1
  S  S165  1  0.16474109  0.56387177  0.20603741  1
  S  S166  1  0.18980643  0.57961224  0.55931399  1
  S  S167  1  0.17814230  0.58297500  0.88768882  1
  S  S168  1  0.66844869  0.06256516  0.20992381  1
  S  S169  1  0.66807316  0.06830309  0.54288177  1
  S  S170  1  0.66870028  0.06401271  0.87731160  1
  S  S171  1  0.67133062  0.56758585  0.20702377  1
  S  S172  1  0.67001784  0.56717533  0.54172649  1
  S  S173  1  0.67675461  0.56882157  0.88121161  1
  O  O174  1  0.36504294  0.22085334  0.07904708  1
  O  O175  1  0.36812810  0.22708140  0.41603275  1
  O  O176  1  0.36608046  0.22435981  0.74882437  1
  O  O177  1  0.37486955  0.71880970  0.08293814  1
  O  O178  1  0.37830637  0.71627373  0.39553429  1
  O  O179  1  0.39054457  0.70430439  0.75374466  1
  O  O180  1  0.86596401  0.22149911  0.07431289  1
  O  O181  1  0.86745222  0.22124185  0.40649339  1
  O  O182  1  0.87042232  0.22040758  0.73883507  1
  O  O183  1  0.86943070  0.71699758  0.07574425  1
  O  O184  1  0.86855545  0.72052339  0.40410285  1
  O  O185  1  0.85624564  0.71700846  0.74595893  1
  O  O186  1  0.27450156  0.13044197  0.08719823  1
  O  O187  1  0.27854274  0.13273588  0.42002357  1
  O  O188  1  0.28024699  0.13315426  0.76371438  1
  O  O189  1  0.28715336  0.63174223  0.10098055  1
  O  O190  1  0.28425707  0.64515916  0.42267067  1
  O  O191  1  0.30614746  0.61942712  0.78124404  1
  O  O192  1  0.77729617  0.13275899  0.08933480  1
  O  O193  1  0.77888661  0.13373861  0.42243710  1
  O  O194  1  0.78078225  0.13555276  0.75711351  1
  O  O195  1  0.78079674  0.62804144  0.08886564  1
  O  O196  1  0.77239019  0.63539766  0.41246892  1
  O  O197  1  0.78159538  0.62222094  0.76853282  1
  O  O198  1  0.12854252  0.27176902  0.24857760  1
  O  O199  1  0.13374666  0.27388560  0.57859765  1
  O  O200  1  0.12898835  0.28171068  0.92264109  1
  O  O201  1  0.12697976  0.77795206  0.25927546  1
  O  O202  1  0.12169894  0.78840809  0.57872569  1
  O  O203  1  0.12539418  0.77946179  0.92957800  1
  O  O204  1  0.63741603  0.28718109  0.25964305  1
  O  O205  1  0.63129669  0.27910608  0.59258777  1
  O  O206  1  0.62638767  0.27773974  0.92658598  1
  O  O207  1  0.63852066  0.77938831  0.25664311  1
  O  O208  1  0.63278705  0.78552751  0.59301536  1
  O  O209  1  0.63939098  0.78025695  0.92963979  1
  O  O210  1  0.21788423  0.36604466  0.24436752  1
  O  O211  1  0.21840684  0.37295940  0.57368286  1
  O  O212  1  0.21743758  0.37253135  0.91163196  1
  O  O213  1  0.21427421  0.86294960  0.23699213  1
  O  O214  1  0.20534990  0.87874106  0.55825857  1
  O  O215  1  0.22613559  0.85965102  0.92023115  1
  O  O216  1  0.71924252  0.37666424  0.23700704  1
  O  O217  1  0.71991531  0.36798724  0.57802300  1
  O  O218  1  0.71874542  0.36352400  0.91370138  1
  O  O219  1  0.72344367  0.86961423  0.24027047  1
  O  O220  1  0.71990740  0.87382172  0.57630729  1
  O  O221  1  0.73447053  0.86462529  0.92007483  1
  O  O222  1  0.41304778  0.12933433  0.14977337  1
  O  O223  1  0.41602164  0.13428411  0.48553662  1
  O  O224  1  0.41832483  0.13346687  0.81972405  1
  O  O225  1  0.42504611  0.62489440  0.15128009  1
  O  O226  1  0.42287824  0.63371355  0.47962838  1
  O  O227  1  0.44444443  0.61651243  0.82518957  1
  O  O228  1  0.91467980  0.13384877  0.14946351  1
  O  O229  1  0.91694771  0.13458633  0.48355888  1
  O  O230  1  0.91916922  0.13455989  0.81585905  1
  O  O231  1  0.91851675  0.62943061  0.15095491  1
  O  O232  1  0.90829684  0.63503789  0.48363935  1
  O  O233  1  0.91984590  0.63392866  0.82163689  1
  O  O234  1  0.36484042  0.08301602  0.01412026  1
  O  O235  1  0.37122049  0.09061907  0.34957350  1
  O  O236  1  0.36411460  0.08670958  0.68436112  1
  O  O237  1  0.36739413  0.58060763  0.01681893  1
  O  O238  1  0.36478728  0.57719499  0.34655312  1
  O  O239  1  0.37932878  0.56484432  0.69145102  1
  O  O240  1  0.86487950  0.08402662  0.01320942  1
  O  O241  1  0.86705278  0.08328074  0.34772445  1
  O  O242  1  0.86501777  0.08251672  0.67963441  1
  O  O243  1  0.87071082  0.57814107  0.01551919  1
  O  O244  1  0.86663933  0.58194571  0.34737778  1
  O  O245  1  0.86216002  0.58021223  0.68474997  1
  O  O246  1  0.08069857  0.36448618  0.17903387  1
  O  O247  1  0.08025277  0.36365404  0.50981114  1
  O  O248  1  0.07965946  0.36649527  0.84471605  1
  O  O249  1  0.07591897  0.86842824  0.18644154  1
  O  O250  1  0.06581540  0.87790686  0.50760511  1
  O  O251  1  0.09183165  0.86206383  0.84756986  1
  O  O252  1  0.58031509  0.36893173  0.18138380  1
  O  O253  1  0.58249439  0.36496320  0.51581646  1
  O  O254  1  0.58121067  0.36530938  0.85059702  1
  O  O255  1  0.58503393  0.87024211  0.18605708  1
  O  O256  1  0.58220571  0.87207406  0.51565637  1
  O  O257  1  0.59832329  0.86801342  0.85270110  1
  O  O258  1  0.12545124  0.40885073  0.31479794  1
  O  O259  1  0.12876843  0.40950077  0.64782709  1
  O  O260  1  0.12598055  0.41985371  0.98175940  1
  O  O261  1  0.13546617  0.91603340  0.32106408  1
  O  O262  1  0.12444061  0.92670974  0.64171205  1
  O  O263  1  0.13253111  0.91827518  0.98459589  1
  O  O264  1  0.63477720  0.42492891  0.31713124  1
  O  O265  1  0.63129508  0.41693384  0.65253830  1
  O  O266  1  0.63085790  0.41606541  0.98688505  1
  O  O267  1  0.64167139  0.91664068  0.32229003  1
  O  O268  1  0.63135811  0.92395066  0.65076552  1
  O  O269  1  0.64148537  0.91781112  0.98849813  1
  O  O270  1  0.02670142  0.19844978  0.09769469  1
  O  O271  1  0.02757827  0.19523717  0.42940169  1
  O  O272  1  0.03323292  0.19999739  0.76652969  1
  O  O273  1  0.02618582  0.70082554  0.10257664  1
  O  O274  1  0.02198118  0.70917442  0.43369922  1
  O  O275  1  0.02622891  0.69330015  0.77775050  1
  O  O276  1  0.52667588  0.19850512  0.10104047  1
  O  O277  1  0.53181258  0.20053811  0.44299099  1
  O  O278  1  0.52790598  0.19753216  0.77025820  1
  O  O279  1  0.53571413  0.70085608  0.10666032  1
  O  O280  1  0.53698119  0.70537563  0.43865366  1
  O  O281  1  0.55355537  0.69768832  0.77474310  1
  O  O282  1  0.29584539  0.46850074  0.06582864  1
  O  O283  1  0.30486241  0.46920587  0.40764346  1
  O  O284  1  0.30246407  0.44953514  0.72634957  1
  O  O285  1  0.30223326  0.96958700  0.06002925  1
  O  O286  1  0.30628592  0.96989772  0.39299108  1
  O  O287  1  0.29096415  0.96478409  0.73237870  1
  O  O288  1  0.80098025  0.46897386  0.06129848  1
  O  O289  1  0.79616996  0.47157330  0.39535321  1
  O  O290  1  0.79635799  0.46457025  0.72724607  1
  O  O291  1  0.80676552  0.97375559  0.06647667  1
  O  O292  1  0.80464453  0.97364353  0.39789723  1
  O  O293  1  0.79375469  0.97485441  0.73030864  1
  O  O294  1  0.46084778  0.31421742  0.23499924  1
  O  O295  1  0.46807525  0.30046818  0.56796038  1
  O  O296  1  0.46668221  0.30278504  0.90271532  1
  O  O297  1  0.47941684  0.79372444  0.22695762  1
  O  O298  1  0.47239215  0.79170579  0.55086318  1
  O  O299  1  0.48332101  0.80921805  0.90708312  1
  O  O300  1  0.96800744  0.29642353  0.22486861  1
  O  O301  1  0.96815555  0.29584196  0.55832914  1
  O  O302  1  0.96817789  0.29818882  0.89460876  1
  O  O303  1  0.96543640  0.79831305  0.22954229  1
  O  O304  1  0.95326055  0.81217753  0.55194811  1
  O  O305  1  0.97054490  0.79458294  0.89972249  1
  O  O306  1  0.18081445  0.03077024  0.26505713  1
  O  O307  1  0.19376099  0.04569406  0.60531589  1
  O  O308  1  0.20037258  0.02695342  0.93289674  1
  O  O309  1  0.18916715  0.52395735  0.26306595  1
  O  O310  1  0.21782108  0.53814773  0.61892864  1
  O  O311  1  0.20339108  0.54191145  0.94878251  1
  O  O312  1  0.70547660  0.02843496  0.27237340  1
  O  O313  1  0.69834067  0.03437830  0.60510733  1
  O  O314  1  0.70037676  0.02574022  0.93742543  1
  O  O315  1  0.70038426  0.53328717  0.26855941  1
  O  O316  1  0.69777920  0.52857825  0.60144388  1
  O  O317  1  0.70370307  0.52515651  0.93814639  1
  O  O318  1  0.08909444  0.09086065  0.03714079  1
  O  O319  1  0.08532291  0.08314807  0.36792197  1
  O  O320  1  0.08781959  0.08777335  0.70197571  1
  O  O321  1  0.08114276  0.59067418  0.03844674  1
  O  O322  1  0.07386910  0.59405287  0.37866131  1
  O  O323  1  0.04850583  0.56534494  0.70368662  1
  O  O324  1  0.58252845  0.08725309  0.03873867  1
  O  O325  1  0.58623478  0.08818288  0.37632758  1
  O  O326  1  0.58748645  0.08975766  0.70535542  1
  O  O327  1  0.58708039  0.58929057  0.03640168  1
  O  O328  1  0.58600039  0.59073996  0.37379183  1
  O  O329  1  0.59152120  0.58253530  0.69680540  1
  O  O330  1  0.40398294  0.41022476  0.13014736  1
  O  O331  1  0.41266529  0.41460419  0.47788322  1
  O  O332  1  0.41659944  0.41160081  0.80529424  1
  O  O333  1  0.41742515  0.91983069  0.12695679  1
  O  O334  1  0.41950171  0.91801144  0.45638096  1
  O  O335  1  0.39991590  0.90699255  0.78952159  1
  O  O336  1  0.91451371  0.41775613  0.12808786  1
  O  O337  1  0.90258339  0.40833066  0.45374522  1
  O  O338  1  0.90391311  0.40456939  0.78911663  1
  O  O339  1  0.91736606  0.91797434  0.13239274  1
  O  O340  1  0.91320538  0.91274772  0.45898986  1
  O  O341  1  0.90190345  0.91154330  0.78796832  1
  O  O342  1  0.40313972  0.41589957  0.30922767  1
  O  O343  1  0.40421145  0.40554124  0.63080250  1
  O  O344  1  0.40776971  0.41116531  0.96923221  1
  O  O345  1  0.43831029  0.91495168  0.28891842  1
  O  O346  1  0.43969546  0.91639971  0.61548230  1
  O  O347  1  0.42410606  0.91618517  0.97035690  1
  O  O348  1  0.91405586  0.40859303  0.28895636  1
  O  O349  1  0.90363417  0.40150762  0.61753231  1
  O  O350  1  0.91053190  0.40728651  0.96044967  1
  O  O351  1  0.91575768  0.91177045  0.29752870  1
  O  O352  1  0.91323718  0.91854350  0.63647749  1
  O  O353  1  0.91261017  0.90638102  0.95931854  1
  O  O354  1  0.07835171  0.08035139  0.18559352  1
  O  O355  1  0.08501553  0.08849890  0.52476749  1
  O  O356  1  0.09054624  0.08581802  0.87135086  1
  O  O357  1  0.08124194  0.58069627  0.19815271  1
  O  O358  1  0.13152659  0.62928979  0.57979970  1
  O  O359  1  0.09788469  0.60607607  0.88622734  1
  O  O360  1  0.58672504  0.07053692  0.20521113  1
  O  O361  1  0.58472572  0.08261197  0.53521097  1
  O  O362  1  0.58808888  0.08156166  0.87546148  1
  O  O363  1  0.58949616  0.58601685  0.19992479  1
  O  O364  1  0.58864803  0.58758329  0.53614199  1
  O  O365  1  0.60052867  0.59511901  0.88424080  1
  O  O366  1  0.13709343  0.22547036  0.05764173  1
  O  O367  1  0.13664465  0.21716706  0.38582326  1
  O  O368  1  0.14038728  0.22024528  0.71981695  1
  O  O369  1  0.14081007  0.72364523  0.06709068  1
  O  O370  1  0.13533319  0.72358042  0.39417942  1
  O  O371  1  0.14080598  0.68284756  0.73981382  1
  O  O372  1  0.63579879  0.22006293  0.05713012  1
  O  O373  1  0.63345754  0.22178805  0.39158378  1
  O  O374  1  0.63190878  0.22533352  0.72335842  1
  O  O375  1  0.64290970  0.72336042  0.06167938  1
  O  O376  1  0.63734368  0.72218139  0.38409504  1
  O  O377  1  0.64777351  0.71485479  0.71426288  1
  O  O378  1  0.26948615  0.35806918  0.10570291  1
  O  O379  1  0.27601216  0.35567120  0.44112780  1
  O  O380  1  0.28457156  0.35652896  0.78709946  1
  O  O381  1  0.28618125  0.86981863  0.11588964  1
  O  O382  1  0.28833685  0.86290417  0.44011930  1
  O  O383  1  0.26793998  0.85601242  0.77801379  1
  O  O384  1  0.78147910  0.36047685  0.10573466  1
  O  O385  1  0.76845803  0.36234003  0.43712094  1
  O  O386  1  0.76931053  0.36082091  0.77441810  1
  O  O387  1  0.78382089  0.86426107  0.10942753  1
  O  O388  1  0.77854710  0.86414187  0.43905041  1
  O  O389  1  0.76809109  0.86463536  0.77041198  1
  O  O390  1  0.35576594  0.27791065  0.27646440  1
  O  O391  1  0.35866598  0.26996567  0.60806353  1
  O  O392  1  0.35702399  0.27509331  0.94261980  1
  O  O393  1  0.36916512  0.78852641  0.27234104  1
  O  O394  1  0.36301895  0.79627146  0.59939025  1
  O  O395  1  0.37218761  0.78063678  0.94551822  1
  O  O396  1  0.85828276  0.27566284  0.26802445  1
  O  O397  1  0.85963364  0.26648165  0.59953060  1
  O  O398  1  0.86417580  0.27241367  0.94254471  1
  O  O399  1  0.85703733  0.77837988  0.27390986  1
  O  O400  1  0.87007559  0.78226253  0.61786020  1
  O  O401  1  0.86646219  0.77395894  0.94879435  1
  O  O402  1  0.21579239  0.13656790  0.22279347  1
  O  O403  1  0.22045856  0.14443094  0.55325805  1
  O  O404  1  0.22426431  0.13910189  0.89416261  1
  O  O405  1  0.21645998  0.63608484  0.22528243  1
  O  O406  1  0.25738806  0.62789200  0.56112062  1
  O  O407  1  0.23387118  0.65226226  0.91041267  1
  O  O408  1  0.71585450  0.13739016  0.22631804  1
  O  O409  1  0.71748842  0.14173677  0.55940005  1
  O  O410  1  0.72101365  0.13469222  0.89366486  1
  O  O411  1  0.72343493  0.63891304  0.22232894  1
  O  O412  1  0.72427834  0.63575872  0.55744391  1
  O  O413  1  0.73529453  0.63533569  0.90018394  1
  O  O414  1  0.48576511  0.33131667  0.03506515  1
  O  O415  1  0.48568896  0.33235914  0.36606395  1
  O  O416  1  0.48693776  0.32867455  0.69927064  1
  O  O417  1  0.49984929  0.83622168  0.03858634  1
  O  O418  1  0.50052155  0.83239800  0.36119315  1
  O  O419  1  0.49579017  0.82998489  0.68564904  1
  O  O420  1  0.99328778  0.33340443  0.02902301  1
  O  O421  1  0.98828190  0.32726177  0.35752134  1
  O  O422  1  0.98617557  0.32989751  0.69059462  1
  O  O423  1  0.99574467  0.83893014  0.03496539  1
  O  O424  1  0.98728004  0.82956870  0.36346789  1
  O  O425  1  1.00658943  0.84027601  0.68641837  1
  O  O426  1  0.16810923  0.00509491  0.13352935  1
  O  O427  1  0.17219469  0.01058830  0.47062380  1
  O  O428  1  0.16748065  0.01074196  0.80082082  1
  O  O429  1  0.16198244  0.50835084  0.13059905  1
  O  O430  1  0.15467438  0.51829558  0.48611180  1
  O  O431  1  0.17570769  0.52388925  0.81831361  1
  O  O432  1  0.67275832  0.00613802  0.13795237  1
  O  O433  1  0.67073590  0.00972711  0.47189807  1
  O  O434  1  0.66524323  0.00595880  0.80403436  1
  O  O435  1  0.66928038  0.50753240  0.13484598  1
  O  O436  1  0.66442043  0.50700792  0.46808929  1
  O  O437  1  0.66818752  0.51041248  0.80675094  1
  O  O438  1  0.00784197  0.15851130  0.29609353  1
  O  O439  1  0.00968122  0.16497082  0.63263394  1
  O  O440  1  0.00955063  0.16713192  0.96592191  1
  O  O441  1  0.00730012  0.66932344  0.30058668  1
  O  O442  1  0.01237596  0.66736178  0.64732757  1
  O  O443  1  0.01207836  0.67630739  0.97187093  1
  O  O444  1  0.50162365  0.16080771  0.30738384  1
  O  O445  1  0.50386094  0.16238365  0.63566840  1
  O  O446  1  0.50615233  0.16520531  0.96775810  1
  O  O447  1  0.50616924  0.66558751  0.30267445  1
  O  O448  1  0.51176852  0.66462345  0.63849822  1
  O  O449  1  0.51169461  0.67241011  0.97324208  1
  O  O450  1  0.32304132  0.48638287  0.19836407  1
  O  O451  1  0.32543441  0.48191780  0.53853069  1
  O  O452  1  0.33488361  0.49209448  0.86350297  1
  O  O453  1  0.34419577  1.00369537  0.19561367  1
  O  O454  1  0.34298081  0.99516596  0.52756879  1
  O  O455  1  0.32928075  0.98505726  0.86618926  1
  O  O456  1  0.83242754  0.49167803  0.19487114  1
  O  O457  1  0.82967341  0.48974967  0.52776994  1
  O  O458  1  0.83176536  0.48814167  0.86144119  1
  O  O459  1  0.83741597  0.99457456  0.19923746  1
  O  O460  1  0.83784888  0.99186208  0.53070674  1
  O  O461  1  0.82853320  0.99149353  0.86242016  1
