# generated using pymatgen
data_Na31Fe20(SO4)36
_symmetry_space_group_name_H-M   'P 1'
_cell_length_a   18.07634077
_cell_length_b   18.06877924
_cell_length_c   19.71725155
_cell_angle_alpha   107.54807155
_cell_angle_beta   107.58016583
_cell_angle_gamma   90.69825382
_symmetry_Int_Tables_number   1
_chemical_formula_structural   Na31Fe20(SO4)36
_chemical_formula_sum   'Na62 Fe40 S72 O288'
_cell_volume   5815.63530346
_cell_formula_units_Z   2
loop_
 _symmetry_equiv_pos_site_id
 _symmetry_equiv_pos_as_xyz
  1  'x, y, z'
loop_
 _atom_site_type_symbol
 _atom_site_label
 _atom_site_symmetry_multiplicity
 _atom_site_fract_x
 _atom_site_fract_y
 _atom_site_fract_z
 _atom_site_occupancy
  Na  Na0  1  0.13906554  0.36658039  0.08358427  1
  Na  Na1  1  0.12610784  0.36461377  0.41445008  1
  Na  Na2  1  0.12849000  0.37953227  0.74567404  1
  Na  Na3  1  0.13570562  0.86182390  0.07934032  1
  Na  Na4  1  0.13804678  0.86193385  0.41590842  1
  Na  Na5  1  0.12740486  0.86379848  0.74826358  1
  Na  Na6  1  0.63747607  0.36189786  0.08620985  1
  Na  Na7  1  0.64179285  0.36732192  0.41866866  1
  Na  Na8  1  0.63341815  0.36875276  0.75017800  1
  Na  Na9  1  0.62336410  0.86819828  0.07812587  1
  Na  Na10  1  0.64511024  0.87224061  0.43158754  1
  Na  Na11  1  0.62785241  0.85765067  0.73755286  1
  Na  Na12  1  0.36975821  0.13519511  0.25383577  1
  Na  Na13  1  0.36113338  0.13327797  0.57913933  1
  Na  Na14  1  0.36413992  0.11694173  0.91312085  1
  Na  Na15  1  0.36454396  0.64684786  0.25972549  1
  Na  Na16  1  0.36889110  0.65319743  0.59451848  1
  Na  Na17  1  0.35852653  0.63189256  0.90475988  1
  Na  Na18  1  0.86216109  0.14487317  0.26495395  1
  Na  Na19  1  0.85924141  0.13123195  0.58071230  1
  Na  Na20  1  0.86096747  0.13633923  0.91640765  1
  Na  Na21  1  0.86527584  0.63536303  0.25122169  1
  Na  Na22  1  0.87773158  0.63702477  0.58401607  1
  Na  Na23  1  0.86518437  0.63487124  0.91606454  1
  Na  Na24  1  0.95502218  0.00714921  0.75912464  1
  Na  Na25  1  0.99202235  0.50725988  0.08539228  1
  Na  Na26  1  0.47220990  -0.00279254  0.04743853  1
  Na  Na27  1  1.03682494  0.49628282  0.58850664  1
  Na  Na28  1  0.99488401  0.01882738  0.05684163  1
  Na  Na29  1  0.49251260  -0.00643092  0.77795206  1
  Na  Na30  1  0.48918102  0.51827259  0.07970019  1
  Na  Na31  1  0.49193691  0.00871012  0.41532909  1
  Na  Na32  1  0.98737639  0.01241069  0.42088658  1
  Na  Na33  1  0.00227919  0.49064671  0.27248509  1
  Na  Na34  1  0.50769676  0.50187313  0.89204313  1
  Na  Na35  1  0.01102578  0.49525512  0.90068996  1
  Na  Na36  1  0.00847697  0.99360670  0.24143907  1
  Na  Na37  1  0.48499070  0.54215921  0.53539179  1
  Na  Na38  1  -0.00487989  0.98253172  0.59291874  1
  Na  Na39  1  0.51438644  0.96796075  0.23323780  1
  Na  Na40  1  0.51576651  0.98139799  0.58968126  1
  Na  Na41  1  0.50579300  0.49141164  0.26772386  1
  Na  Na42  1  0.75086052  0.75636956  -0.00281613  1
  Na  Na43  1  0.24968560  0.24569971  -0.00192064  1
  Na  Na44  1  0.74214532  0.24485651  0.67611390  1
  Na  Na45  1  0.25649025  0.26108161  0.65082379  1
  Na  Na46  1  0.74445481  0.23689320  0.00342951  1
  Na  Na47  1  0.24038293  0.23925876  0.34749818  1
  Na  Na48  1  0.21425723  0.72054563  0.66115897  1
  Na  Na49  1  0.27502610  0.77262248  -0.00331612  1
  Na  Na50  1  0.74609763  0.74784568  0.33633111  1
  Na  Na51  1  0.74614792  0.75143758  0.66051120  1
  Na  Na52  1  0.74814142  0.75447503  0.82836767  1
  Na  Na53  1  0.25419550  0.75954562  0.83013665  1
  Na  Na54  1  0.74497487  0.74787613  0.16434594  1
  Na  Na55  1  0.26041554  0.75617973  0.16458576  1
  Na  Na56  1  0.24635574  0.75083703  0.49534372  1
  Na  Na57  1  0.77311316  0.26225901  0.48230305  1
  Na  Na58  1  0.73665641  0.23024179  0.17727201  1
  Na  Na59  1  0.25417956  0.25574921  0.82703102  1
  Na  Na60  1  0.75430174  0.75653477  0.50410118  1
  Na  Na61  1  0.25051672  0.24715224  0.17258585  1
  Fe  Fe62  1  0.96541445  0.80450280  0.11949138  1
  Fe  Fe63  1  0.46575374  0.30954867  0.45511744  1
  Fe  Fe64  1  0.96706189  0.79977765  0.45675977  1
  Fe  Fe65  1  0.46564960  0.30827063  0.12118595  1
  Fe  Fe66  1  0.46749058  0.30286711  0.78396506  1
  Fe  Fe67  1  0.96498531  0.80683144  0.78691328  1
  Fe  Fe68  1  0.47048567  0.80141346  0.45468531  1
  Fe  Fe69  1  0.46446643  0.80590238  0.78473693  1
  Fe  Fe70  1  0.96350118  0.30667158  0.78172243  1
  Fe  Fe71  1  0.96785675  0.30750762  0.11590661  1
  Fe  Fe72  1  0.19599011  0.03123781  0.03895774  1
  Fe  Fe73  1  0.69027061  0.53686321  0.70788484  1
  Fe  Fe74  1  0.69673135  0.53848449  0.38340103  1
  Fe  Fe75  1  0.19500275  0.03334678  0.38278139  1
  Fe  Fe76  1  0.19195206  0.03328702  0.71398474  1
  Fe  Fe77  1  0.69411734  0.53077855  0.04504596  1
  Fe  Fe78  1  0.69448111  0.03243398  0.38352698  1
  Fe  Fe79  1  0.69944522  0.03250464  0.71411889  1
  Fe  Fe80  1  0.19484977  0.53914539  0.38451581  1
  Fe  Fe81  1  0.19321615  0.53657790  0.05041894  1
  Fe  Fe82  1  0.53408727  0.19647332  0.55019213  1
  Fe  Fe83  1  0.53906505  0.18823897  0.21410122  1
  Fe  Fe84  1  0.03269531  0.20236214  0.54466840  1
  Fe  Fe85  1  0.03452875  0.19679957  0.21885765  1
  Fe  Fe86  1  0.53129158  0.69994994  0.20919716  1
  Fe  Fe87  1  0.53585700  0.19152552  0.88392855  1
  Fe  Fe88  1  0.03850488  0.69218777  0.21774784  1
  Fe  Fe89  1  0.03283419  0.19494428  0.87768590  1
  Fe  Fe90  1  0.03628650  0.68711300  0.87760051  1
  Fe  Fe91  1  0.53433337  0.68988853  0.87547068  1
  Fe  Fe92  1  0.30339808  0.46527973  0.62337152  1
  Fe  Fe93  1  0.31021897  0.46801817  0.29171436  1
  Fe  Fe94  1  0.80709500  0.46108982  0.94653769  1
  Fe  Fe95  1  0.81238733  0.46784801  0.61731982  1
  Fe  Fe96  1  0.30944529  0.96337919  0.28441766  1
  Fe  Fe97  1  0.79646119  0.96805050  0.95865849  1
  Fe  Fe98  1  0.30482520  0.46833473  0.95018154  1
  Fe  Fe99  1  0.81281445  0.46162236  0.29144902  1
  Fe  Fe100  1  0.30497542  0.96648906  0.61806507  1
  Fe  Fe101  1  0.80574953  0.96437157  0.28619366  1
  S  S102  1  0.36108198  0.14474795  0.08594870  1
  S  S103  1  0.36155967  0.13902781  0.41660629  1
  S  S104  1  0.35985167  0.13855248  0.75180452  1
  S  S105  1  0.35942321  0.64010933  0.08511461  1
  S  S106  1  0.35944408  0.64047082  0.41700577  1
  S  S107  1  0.36106299  0.63741632  0.74532223  1
  S  S108  1  0.86372558  0.14183877  0.08284697  1
  S  S109  1  0.86176780  0.13583420  0.41904292  1
  S  S110  1  0.85905569  0.14470153  0.75128394  1
  S  S111  1  0.86073171  0.63644124  0.08282538  1
  S  S112  1  0.85724712  0.64076222  0.41091545  1
  S  S113  1  0.85890221  0.64187750  0.75245800  1
  S  S114  1  0.14166705  0.36201119  0.25037080  1
  S  S115  1  0.14286378  0.36062326  0.58365392  1
  S  S116  1  0.13941048  0.36234834  0.91585754  1
  S  S117  1  0.14113636  0.85965346  0.24814613  1
  S  S118  1  0.13794449  0.86201760  0.57907435  1
  S  S119  1  0.13632151  0.85678018  0.92135953  1
  S  S120  1  0.63970218  0.36127071  0.25019174  1
  S  S121  1  0.64279090  0.35955028  0.58256510  1
  S  S122  1  0.64189576  0.35770367  0.91722373  1
  S  S123  1  0.64410121  0.85797232  0.24999950  1
  S  S124  1  0.63989599  0.86207848  0.58344317  1
  S  S125  1  0.63708014  0.85738823  0.91509859  1
  S  S126  1  0.07384635  0.17495560  0.04367186  1
  S  S127  1  0.06605528  0.15886024  0.37056147  1
  S  S128  1  0.06793044  0.17322017  0.70749567  1
  S  S129  1  0.06562102  0.66668001  0.04433842  1
  S  S130  1  0.06574326  0.67023640  0.37379694  1
  S  S131  1  0.06363589  0.66823157  0.71457941  1
  S  S132  1  0.56138951  0.16838623  0.04478971  1
  S  S133  1  0.56853114  0.16947671  0.37862150  1
  S  S134  1  0.56709160  0.17080529  0.70849981  1
  S  S135  1  0.56685788  0.65817777  0.03543382  1
  S  S136  1  0.57116205  0.67549862  0.37311732  1
  S  S137  1  0.56732837  0.66799731  0.70629711  1
  S  S138  1  0.33225786  0.43372025  0.12666712  1
  S  S139  1  0.32643362  0.42952964  0.45725684  1
  S  S140  1  0.33306337  0.42957739  0.79014337  1
  S  S141  1  0.33173812  0.94017248  0.12555266  1
  S  S142  1  0.33212709  0.93307018  0.45762933  1
  S  S143  1  0.32143356  0.92742363  0.78428919  1
  S  S144  1  0.83249895  0.43159354  0.12314805  1
  S  S145  1  0.83509221  0.43960308  0.45862752  1
  S  S146  1  0.82979405  0.43433353  0.78886851  1
  S  S147  1  0.83120266  0.92916586  0.12689974  1
  S  S148  1  0.83591610  0.93260926  0.45930936  1
  S  S149  1  0.82485406  0.93028573  0.79565501  1
  S  S150  1  0.43447466  0.33165829  0.29290529  1
  S  S151  1  0.42939529  0.32779894  0.62481952  1
  S  S152  1  0.43209554  0.33085481  0.95841728  1
  S  S153  1  0.43827813  0.83355197  0.29353228  1
  S  S154  1  0.42958371  0.84082796  0.62501456  1
  S  S155  1  0.43356123  0.82309443  0.94828548  1
  S  S156  1  0.93392621  0.32623289  0.28448508  1
  S  S157  1  0.93110307  0.32835127  0.62320189  1
  S  S158  1  0.93632732  0.33488040  0.95861569  1
  S  S159  1  0.93393500  0.82752348  0.28969269  1
  S  S160  1  0.93169875  0.83645490  0.62827156  1
  S  S161  1  0.92680910  0.82943983  0.95967044  1
  S  S162  1  0.16996150  0.06795997  0.20721523  1
  S  S163  1  0.16798535  0.06937744  0.54205118  1
  S  S164  1  0.16108138  0.06958940  0.87011132  1
  S  S165  1  0.17007461  0.56608354  0.20844915  1
  S  S166  1  0.17504757  0.56195234  0.54056979  1
  S  S167  1  0.17337886  0.56877195  0.88243853  1
  S  S168  1  0.66700649  0.06102920  0.21100591  1
  S  S169  1  0.66448386  0.07125821  0.54317946  1
  S  S170  1  0.66984690  0.06668308  0.87481994  1
  S  S171  1  0.66790571  0.56650492  0.20654729  1
  S  S172  1  0.67793332  0.56991697  0.54397259  1
  S  S173  1  0.67487226  0.56678977  0.87565897  1
  O  O174  1  0.36786936  0.22595062  0.07983933  1
  O  O175  1  0.37131642  0.21705415  0.40687415  1
  O  O176  1  0.36796273  0.21975525  0.74833160  1
  O  O177  1  0.36466908  0.71704578  0.07701591  1
  O  O178  1  0.37454284  0.71816628  0.40890779  1
  O  O179  1  0.37598745  0.71158222  0.72916313  1
  O  O180  1  0.87821638  0.21641953  0.06652809  1
  O  O181  1  0.86544499  0.21095445  0.40723311  1
  O  O182  1  0.86710732  0.22655225  0.74818430  1
  O  O183  1  0.86792165  0.71536195  0.07443302  1
  O  O184  1  0.86963811  0.71769985  0.39757478  1
  O  O185  1  0.86413417  0.72245886  0.74685573  1
  O  O186  1  0.28040949  0.13454582  0.09065381  1
  O  O187  1  0.28149688  0.12877795  0.42070971  1
  O  O188  1  0.28290584  0.12850866  0.76352462  1
  O  O189  1  0.28294340  0.62648657  0.09794019  1
  O  O190  1  0.27615261  0.63510936  0.41671360  1
  O  O191  1  0.28536037  0.63735546  0.75780114  1
  O  O192  1  0.78678221  0.13935300  0.09159247  1
  O  O193  1  0.78591954  0.12189680  0.43292537  1
  O  O194  1  0.77886435  0.13242798  0.75452937  1
  O  O195  1  0.78241896  0.62666375  0.09219718  1
  O  O196  1  0.77355167  0.63850705  0.41163635  1
  O  O197  1  0.78002462  0.63001460  0.76099631  1
  O  O198  1  0.13287214  0.28343706  0.25990047  1
  O  O199  1  0.13248061  0.27936880  0.58899771  1
  O  O200  1  0.13086221  0.28331930  0.92381706  1
  O  O201  1  0.13078310  0.78024291  0.25273810  1
  O  O202  1  0.13507391  0.78563127  0.58872011  1
  O  O203  1  0.11944036  0.78242173  0.93720094  1
  O  O204  1  0.63041571  0.28183097  0.25609763  1
  O  O205  1  0.63059359  0.28194552  0.59311683  1
  O  O206  1  0.63144141  0.27893879  0.92520612  1
  O  O207  1  0.63428191  0.77613245  0.25219734  1
  O  O208  1  0.62883423  0.78726449  0.59537412  1
  O  O209  1  0.63093181  0.77479702  0.91886761  1
  O  O210  1  0.22204790  0.37131732  0.24499845  1
  O  O211  1  0.22917695  0.36815103  0.58739311  1
  O  O212  1  0.21818642  0.37118109  0.90718147  1
  O  O213  1  0.21930377  0.86992095  0.23878919  1
  O  O214  1  0.21361026  0.87754804  0.56527106  1
  O  O215  1  0.21567175  0.85800474  0.91683008  1
  O  O216  1  0.71781425  0.37113932  0.24047266  1
  O  O217  1  0.72040832  0.36587497  0.57189039  1
  O  O218  1  0.71978338  0.36752040  0.90882725  1
  O  O219  1  0.72567748  0.86610297  0.24627830  1
  O  O220  1  0.71404244  0.87257386  0.57003446  1
  O  O221  1  0.71841489  0.86662332  0.90980248  1
  O  O222  1  0.41794982  0.14093289  0.15751097  1
  O  O223  1  0.41928784  0.13224061  0.48602023  1
  O  O224  1  0.42185466  0.12655844  0.81633688  1
  O  O225  1  0.42116219  0.63133409  0.15222230  1
  O  O226  1  0.41077690  0.63020921  0.48575446  1
  O  O227  1  0.42247633  0.62690105  0.81107114  1
  O  O228  1  0.92496137  0.13503779  0.15076377  1
  O  O229  1  0.92483327  0.12853116  0.48610445  1
  O  O230  1  0.91595840  0.13857663  0.82282850  1
  O  O231  1  0.92107216  0.62835199  0.15007943  1
  O  O232  1  0.91000672  0.63502487  0.47975690  1
  O  O233  1  0.91744352  0.63445424  0.82128494  1
  O  O234  1  0.37358478  0.08754730  0.02140661  1
  O  O235  1  0.37332071  0.07856098  0.35094216  1
  O  O236  1  0.36420930  0.08311865  0.68062902  1
  O  O237  1  0.36834067  0.57861648  0.01763507  1
  O  O238  1  0.36800642  0.58039694  0.34862398  1
  O  O239  1  0.36370340  0.57341073  0.67638607  1
  O  O240  1  0.87125640  0.07712176  0.01696983  1
  O  O241  1  0.87057666  0.07294718  0.35209958  1
  O  O242  1  0.87452087  0.08928582  0.68721724  1
  O  O243  1  0.86888149  0.57726719  0.01482457  1
  O  O244  1  0.86357995  0.57916538  0.34267596  1
  O  O245  1  0.86791613  0.58570032  0.68445410  1
  O  O246  1  0.08488392  0.36764860  0.18003944  1
  O  O247  1  0.09267580  0.36752876  0.51336167  1
  O  O248  1  0.07924463  0.37171236  0.84916452  1
  O  O249  1  0.08089905  0.87153478  0.18196631  1
  O  O250  1  0.07532069  0.86850903  0.51145555  1
  O  O251  1  0.08007084  0.86288535  0.85106398  1
  O  O252  1  0.57967696  0.37175897  0.18310736  1
  O  O253  1  0.58192608  0.36634157  0.51488896  1
  O  O254  1  0.58130978  0.36763113  0.85055081  1
  O  O255  1  0.58817658  0.87041408  0.18482102  1
  O  O256  1  0.57576207  0.87229885  0.51719237  1
  O  O257  1  0.58158805  0.86371767  0.84371952  1
  O  O258  1  0.13003214  0.42240472  0.31537294  1
  O  O259  1  0.13036211  0.41799953  0.64843651  1
  O  O260  1  0.13202385  0.42100397  0.98453904  1
  O  O261  1  0.13459397  0.91791580  0.31761729  1
  O  O262  1  0.12778898  0.92336047  0.64571045  1
  O  O263  1  0.12740694  0.92129087  0.98625432  1
  O  O264  1  0.63125661  0.42031743  0.31820736  1
  O  O265  1  0.63785224  0.41989851  0.65109700  1
  O  O266  1  0.63428211  0.41622289  0.98618857  1
  O  O267  1  0.63665789  0.91316542  0.32105972  1
  O  O268  1  0.63137671  0.92550495  0.65092230  1
  O  O269  1  0.62705404  0.91247282  0.98107634  1
  O  O270  1  0.03937115  0.20442421  0.10600464  1
  O  O271  1  0.03442445  0.18388830  0.43279757  1
  O  O272  1  0.03045743  0.20251528  0.76863510  1
  O  O273  1  0.02827871  0.69727973  0.10483896  1
  O  O274  1  0.02868011  0.69804556  0.43192652  1
  O  O275  1  0.02682333  0.70501636  0.77777563  1
  O  O276  1  0.52765218  0.20816350  0.10776433  1
  O  O277  1  0.53017710  0.19914772  0.43863993  1
  O  O278  1  0.53073752  0.20012460  0.77049629  1
  O  O279  1  0.53380006  0.68166201  0.09721104  1
  O  O280  1  0.53528360  0.70164115  0.43264940  1
  O  O281  1  0.53631618  0.70086943  0.77109889  1
  O  O282  1  0.30119941  0.46633517  0.06349685  1
  O  O283  1  0.29960679  0.47230230  0.40047495  1
  O  O284  1  0.31333329  0.46617660  0.73043824  1
  O  O285  1  0.29408882  0.97552194  0.06692453  1
  O  O286  1  0.29976242  0.96841379  0.39510451  1
  O  O287  1  0.29164586  0.96308343  0.72026265  1
  O  O288  1  0.80250627  0.46746271  0.06154083  1
  O  O289  1  0.79683445  0.47562429  0.39610396  1
  O  O290  1  0.80277158  0.47094348  0.72825179  1
  O  O291  1  0.80546061  0.96327372  0.06634260  1
  O  O292  1  0.80062534  0.96174403  0.39318104  1
  O  O293  1  0.80085873  0.97070833  0.73851645  1
  O  O294  1  0.47208014  0.30292285  0.23306093  1
  O  O295  1  0.46666676  0.30073945  0.56350602  1
  O  O296  1  0.46886806  0.29893276  0.89807054  1
  O  O297  1  0.47606618  0.80596353  0.23510663  1
  O  O298  1  0.46261589  0.81860607  0.56339029  1
  O  O299  1  0.46814103  0.78696738  0.88420295  1
  O  O300  1  0.96929479  0.29897194  0.21996854  1
  O  O301  1  0.96793491  0.29993057  0.56429392  1
  O  O302  1  0.97172591  0.30332887  0.89729021  1
  O  O303  1  0.97110539  0.79770331  0.22847831  1
  O  O304  1  0.96296074  0.80799704  0.56482202  1
  O  O305  1  0.95997152  0.80275845  0.89727188  1
  O  O306  1  0.19939329  0.03164169  0.26838233  1
  O  O307  1  0.19897212  0.03681110  0.60572638  1
  O  O308  1  0.18528120  0.03766544  0.93240977  1
  O  O309  1  0.20035411  0.53010277  0.26940180  1
  O  O310  1  0.21089467  0.52189100  0.59783002  1
  O  O311  1  0.20559022  0.53539374  0.94802560  1
  O  O312  1  0.70054259  0.03053487  0.27796309  1
  O  O313  1  0.68863548  0.03855514  0.60479714  1
  O  O314  1  0.69652530  0.02951696  0.93349740  1
  O  O315  1  0.69543324  0.53022176  0.26704884  1
  O  O316  1  0.71076393  0.52938694  0.60300729  1
  O  O317  1  0.70404255  0.52779247  0.93568897  1
  O  O318  1  0.09254612  0.09407914  0.03937546  1
  O  O319  1  0.08477498  0.07478868  0.36086154  1
  O  O320  1  0.08493263  0.09102050  0.70092321  1
  O  O321  1  0.07930436  0.58312737  0.03863368  1
  O  O322  1  0.08835176  0.58969014  0.36908786  1
  O  O323  1  0.08358591  0.59128798  0.71804166  1
  O  O324  1  0.57007642  0.08855273  0.04386108  1
  O  O325  1  0.58183347  0.08575554  0.37117567  1
  O  O326  1  0.58668145  0.09021582  0.70372818  1
  O  O327  1  0.58316333  0.57322407  0.02326007  1
  O  O328  1  0.59261397  0.59388017  0.36559861  1
  O  O329  1  0.59059709  0.58855210  0.70604221  1
  O  O330  1  0.41566978  0.41909376  0.13362637  1
  O  O331  1  0.40819493  0.41234126  0.46161454  1
  O  O332  1  0.41388051  0.40519435  0.80115194  1
  O  O333  1  0.41207945  0.92902359  0.12570908  1
  O  O334  1  0.41482437  0.91994674  0.46273832  1
  O  O335  1  0.40125549  0.90545317  0.78442874  1
  O  O336  1  0.91639412  0.41851090  0.13004872  1
  O  O337  1  0.91424299  0.42673592  0.46024617  1
  O  O338  1  0.91073499  0.41313772  0.79553896  1
  O  O339  1  0.91404841  0.90924584  0.13620266  1
  O  O340  1  0.91719204  0.91265458  0.45933283  1
  O  O341  1  0.90588510  0.90952820  0.80093339  1
  O  O342  1  0.41510832  0.41271575  0.29548024  1
  O  O343  1  0.40166989  0.40484653  0.62528090  1
  O  O344  1  0.41391563  0.41244498  0.96200111  1
  O  O345  1  0.42090725  0.91681972  0.29863883  1
  O  O346  1  0.41788195  0.92707021  0.64171380  1
  O  O347  1  0.40943169  0.89836166  0.94257724  1
  O  O348  1  0.91424698  0.40797685  0.28786113  1
  O  O349  1  0.90903060  0.40817341  0.62593741  1
  O  O350  1  0.91961976  0.41740325  0.96150397  1
  O  O351  1  0.91926841  0.91053926  0.29645771  1
  O  O352  1  0.92053139  0.91977110  0.64113509  1
  O  O353  1  0.90652750  0.91065710  0.97025661  1
  O  O354  1  0.08712316  0.08479996  0.20074427  1
  O  O355  1  0.08650638  0.08764667  0.53648613  1
  O  O356  1  0.07812158  0.08907292  0.85734773  1
  O  O357  1  0.08713592  0.58188793  0.20275316  1
  O  O358  1  0.09946804  0.58215142  0.54666471  1
  O  O359  1  0.09214758  0.58627065  0.88270093  1
  O  O360  1  0.58600427  0.08201344  0.21163463  1
  O  O361  1  0.57969390  0.08684726  0.53044982  1
  O  O362  1  0.58843426  0.08888520  0.87036736  1
  O  O363  1  0.58629098  0.58587227  0.19930378  1
  O  O364  1  0.60257511  0.59326904  0.54753140  1
  O  O365  1  0.59411106  0.58489899  0.87224957  1
  O  O366  1  0.14503657  0.22746626  0.05900819  1
  O  O367  1  0.13498108  0.20986831  0.38062813  1
  O  O368  1  0.13975983  0.22522384  0.72616700  1
  O  O369  1  0.13881197  0.71591448  0.06300996  1
  O  O370  1  0.13403065  0.72388720  0.38551407  1
  O  O371  1  0.13417360  0.72411733  0.73261878  1
  O  O372  1  0.63563926  0.21696670  0.06011575  1
  O  O373  1  0.64122012  0.21908345  0.39697349  1
  O  O374  1  0.63475298  0.22539287  0.72230455  1
  O  O375  1  0.63929433  0.70866634  0.05138726  1
  O  O376  1  0.64149827  0.72946875  0.38860404  1
  O  O377  1  0.63739404  0.72076606  0.71892280  1
  O  O378  1  0.28255138  0.36119260  0.11187786  1
  O  O379  1  0.27273641  0.35909429  0.43631785  1
  O  O380  1  0.27602447  0.36159844  0.77272861  1
  O  O381  1  0.28402834  0.86608554  0.11281419  1
  O  O382  1  0.28273672  0.86192602  0.44376152  1
  O  O383  1  0.26771654  0.85632767  0.76616565  1
  O  O384  1  0.78341959  0.35829714  0.10576298  1
  O  O385  1  0.78229360  0.36939519  0.44408235  1
  O  O386  1  0.77493900  0.36646016  0.77447675  1
  O  O387  1  0.77922901  0.85795457  0.11247155  1
  O  O388  1  0.78595348  0.86103053  0.44743476  1
  O  O389  1  0.77040698  0.85901271  0.77566053  1
  O  O390  1  0.36334600  0.27938833  0.27685790  1
  O  O391  1  0.36554239  0.26928540  0.61258153  1
  O  O392  1  0.36045589  0.27950767  0.94295712  1
  O  O393  1  0.36535028  0.78384226  0.27623164  1
  O  O394  1  0.35557774  0.79258222  0.60720631  1
  O  O395  1  0.36444549  0.76686302  0.93319931  1
  O  O396  1  0.86186188  0.27466920  0.26473606  1
  O  O397  1  0.86145472  0.27446687  0.60959592  1
  O  O398  1  0.86672303  0.28550836  0.94811004  1
  O  O399  1  0.86070291  0.77676634  0.26956555  1
  O  O400  1  0.85886189  0.78647362  0.61369054  1
  O  O401  1  0.85690415  0.77509254  0.94474161  1
  O  O402  1  0.22117728  0.14102863  0.22592519  1
  O  O403  1  0.22069105  0.13793626  0.55389192  1
  O  O404  1  0.21440698  0.14032096  0.88518869  1
  O  O405  1  0.21969678  0.63634997  0.22066651  1
  O  O406  1  0.22905222  0.63186120  0.55356554  1
  O  O407  1  0.22296543  0.64183911  0.89924195  1
  O  O408  1  0.71785914  0.13143179  0.22387173  1
  O  O409  1  0.71465040  0.14299960  0.55787237  1
  O  O410  1  0.72302615  0.13685255  0.89021587  1
  O  O411  1  0.72132056  0.63701249  0.22194938  1
  O  O412  1  0.73478015  0.63737151  0.55811175  1
  O  O413  1  0.72748061  0.63855767  0.89514438  1
  O  O414  1  0.49128761  0.33571379  0.03184641  1
  O  O415  1  0.49271978  0.33488153  0.36602741  1
  O  O416  1  0.49247104  0.33643688  0.69733209  1
  O  O417  1  0.49362109  0.82895671  0.01910312  1
  O  O418  1  0.49466983  0.83755637  0.36834667  1
  O  O419  1  0.48850903  0.83451057  0.69481421  1
  O  O420  1  0.99837939  0.34229162  0.03215535  1
  O  O421  1  0.99397757  0.32555437  0.35202120  1
  O  O422  1  0.99052325  0.33485561  0.69797941  1
  O  O423  1  0.98877547  0.82881887  0.03060012  1
  O  O424  1  0.99131576  0.82567624  0.36082583  1
  O  O425  1  0.99110379  0.83102801  0.69898989  1
  O  O426  1  0.16849214  0.01051289  0.13473753  1
  O  O427  1  0.16484582  0.00648425  0.47049405  1
  O  O428  1  0.16158537  0.00836579  0.79931865  1
  O  O429  1  0.16550647  0.50455975  0.13533356  1
  O  O430  1  0.16779015  0.50438251  0.46470940  1
  O  O431  1  0.17241802  0.50813389  0.81477968  1
  O  O432  1  0.66076248  -0.00191181  0.14277331  1
  O  O433  1  0.66577452  0.01065031  0.47162513  1
  O  O434  1  0.66237111  0.00850502  0.79954596  1
  O  O435  1  0.66607639  0.50651432  0.13393911  1
  O  O436  1  0.67055833  0.51016964  0.46954267  1
  O  O437  1  0.67396270  0.50944217  0.80342044  1
  O  O438  1  0.00332398  0.15442968  0.29812265  1
  O  O439  1  0.00933997  0.17293682  0.63591104  1
  O  O440  1  0.01359076  0.17427861  0.97254217  1
  O  O441  1  0.00559155  0.66109746  0.29766410  1
  O  O442  1  0.00568017  0.66527194  0.64363105  1
  O  O443  1  0.00798393  0.66577098  0.97177000  1
  O  O444  1  0.51054361  0.17138893  0.30674186  1
  O  O445  1  0.50472989  0.16703787  0.63644215  1
  O  O446  1  0.50418473  0.17193666  0.97260806  1
  O  O447  1  0.51162405  0.67116066  0.29923646  1
  O  O448  1  0.50454540  0.66050603  0.63651001  1
  O  O449  1  0.50737219  0.65792399  0.96354485  1
  O  O450  1  0.33317210  0.49335005  0.19831315  1
  O  O451  1  0.33003253  0.48526501  0.53219725  1
  O  O452  1  0.33634384  0.49069869  0.86251150  1
  O  O453  1  0.33437226  0.99630584  0.20154649  1
  O  O454  1  0.33332574  0.99413000  0.52948151  1
  O  O455  1  0.32477282  0.98770089  0.85337640  1
  O  O456  1  0.83211194  0.48947440  0.19515579  1
  O  O457  1  0.83455200  0.49952775  0.53089596  1
  O  O458  1  0.83536380  0.49502439  0.86256918  1
  O  O459  1  0.83415980  0.98974758  0.19937904  1
  O  O460  1  0.84296662  0.99526306  0.52869779  1
  O  O461  1  0.82709169  0.98688503  0.86959044  1
