# generated using pymatgen
data_Na31Fe20(SO4)36
_symmetry_space_group_name_H-M   'P 1'
_cell_length_a   18.06729041
_cell_length_b   18.07007904
_cell_length_c   19.69532725
_cell_angle_alpha   107.59768998
_cell_angle_beta   107.57823568
_cell_angle_gamma   90.69596391
_symmetry_Int_Tables_number   1
_chemical_formula_structural   Na31Fe20(SO4)36
_chemical_formula_sum   'Na62 Fe40 S72 O288'
_cell_volume   5804.98049453
_cell_formula_units_Z   2
loop_
 _symmetry_equiv_pos_site_id
 _symmetry_equiv_pos_as_xyz
  1  'x, y, z'
loop_
 _atom_site_type_symbol
 _atom_site_label
 _atom_site_symmetry_multiplicity
 _atom_site_fract_x
 _atom_site_fract_y
 _atom_site_fract_z
 _atom_site_occupancy
  Na  Na0  1  0.13972800  0.37824364  0.09998538  1
  Na  Na1  1  0.13463194  0.36308641  0.41617463  1
  Na  Na2  1  0.13683448  0.36350443  0.74788659  1
  Na  Na3  1  0.13402151  0.85467618  0.08157816  1
  Na  Na4  1  0.12686450  0.85762454  0.40552028  1
  Na  Na5  1  0.14789146  0.83691097  0.74147580  1
  Na  Na6  1  0.63887832  0.37346310  0.08559560  1
  Na  Na7  1  0.62381372  0.37613678  0.41517704  1
  Na  Na8  1  0.64280522  0.37033062  0.75301677  1
  Na  Na9  1  0.64795019  0.86884828  0.09455935  1
  Na  Na10  1  0.63139719  0.86250044  0.41446416  1
  Na  Na11  1  0.63190492  0.86181900  0.73978475  1
  Na  Na12  1  0.36554909  0.13267935  0.24867420  1
  Na  Na13  1  0.36150813  0.12866515  0.57917280  1
  Na  Na14  1  0.36522631  0.13523887  0.91184381  1
  Na  Na15  1  0.38406374  0.62765374  0.28499531  1
  Na  Na16  1  0.34198059  0.68287643  0.59586127  1
  Na  Na17  1  0.36038947  0.64032526  0.91246816  1
  Na  Na18  1  0.86545630  0.12214860  0.24800985  1
  Na  Na19  1  0.86761742  0.13398207  0.58655168  1
  Na  Na20  1  0.87198561  0.12769768  0.91830586  1
  Na  Na21  1  0.86956197  0.63510001  0.25111826  1
  Na  Na22  1  0.86579331  0.63583473  0.58735455  1
  Na  Na23  1  0.87251437  0.64134193  0.92924697  1
  Na  Na24  1  0.99953353  0.51538177  0.38570567  1
  Na  Na25  1  0.52093315  0.49220498  0.71863057  1
  Na  Na26  1  0.98017666  0.51209405  0.75431163  1
  Na  Na27  1  1.01264235  -0.01926126  0.76917223  1
  Na  Na28  1  1.00007945  0.58245719  0.14112616  1
  Na  Na29  1  1.00412195  -0.01213566  0.07393383  1
  Na  Na30  1  0.49782041  0.51554175  0.09815104  1
  Na  Na31  1  0.96531118  0.01033866  0.40461406  1
  Na  Na32  1  0.49126699  0.00608476  0.08245482  1
  Na  Na33  1  0.01552800  0.98491627  0.58405649  1
  Na  Na34  1  0.50052563  0.93398087  0.54766797  1
  Na  Na35  1  0.51857091  0.99254654  0.89448923  1
  Na  Na36  1  0.55153554  0.49858854  0.93246816  1
  Na  Na37  1  0.51557046  0.97885840  0.27136140  1
  Na  Na38  1  -0.01615137  0.90628906  0.21342063  1
  Na  Na39  1  0.47552225  0.56539854  0.53608314  1
  Na  Na40  1  0.00237003  0.48294577  0.93567265  1
  Na  Na41  1  0.00431632  0.49405798  0.57548960  1
  Na  Na42  1  0.74701595  0.74089849  0.00522106  1
  Na  Na43  1  0.25874297  0.26421852  0.32646111  1
  Na  Na44  1  0.25905917  0.26138484  -0.00436169  1
  Na  Na45  1  0.75091591  0.24990167  -0.00062365  1
  Na  Na46  1  0.74893164  0.25198104  0.66531541  1
  Na  Na47  1  0.74722495  0.24769532  0.33460890  1
  Na  Na48  1  0.75054238  0.75036673  0.33570211  1
  Na  Na49  1  0.72219715  0.71990547  0.67045961  1
  Na  Na50  1  0.24080017  0.73797329  0.35239115  1
  Na  Na51  1  0.25163027  0.75328917  -0.00555416  1
  Na  Na52  1  0.73152962  0.73640365  0.50759557  1
  Na  Na53  1  0.73767483  0.73217735  0.83757202  1
  Na  Na54  1  0.24304118  0.24485479  0.51069783  1
  Na  Na55  1  0.74796659  0.24663453  0.83332089  1
  Na  Na56  1  0.24237638  0.73519464  0.18579314  1
  Na  Na57  1  0.75238821  0.74107061  0.16887656  1
  Na  Na58  1  0.74912658  0.24818546  0.16631395  1
  Na  Na59  1  0.26179956  0.26785365  0.16336926  1
  Na  Na60  1  0.26046129  0.25993980  0.81977798  1
  Na  Na61  1  0.74623211  0.25097116  0.49954494  1
  Fe  Fe62  1  0.96393088  0.31040727  0.12280739  1
  Fe  Fe63  1  0.96565080  0.30739277  0.78921852  1
  Fe  Fe64  1  0.46157494  0.81312326  0.11940188  1
  Fe  Fe65  1  0.46326444  0.30541321  0.78076445  1
  Fe  Fe66  1  0.96555628  0.30793631  0.45439321  1
  Fe  Fe67  1  0.96970871  0.79988529  0.45149578  1
  Fe  Fe68  1  0.46421948  0.31294855  0.12290399  1
  Fe  Fe69  1  0.45836488  0.80765372  0.77842371  1
  Fe  Fe70  1  0.46319897  0.31309578  0.45229215  1
  Fe  Fe71  1  0.96631375  0.80525009  0.78499052  1
  Fe  Fe72  1  0.20115274  0.53131742  0.37510050  1
  Fe  Fe73  1  0.69406191  0.03339354  0.70941381  1
  Fe  Fe74  1  0.19509268  0.03374503  0.71492750  1
  Fe  Fe75  1  0.19922237  0.53328009  0.05346492  1
  Fe  Fe76  1  0.19202292  0.53747935  0.71506948  1
  Fe  Fe77  1  0.18398827  0.03338314  0.37783720  1
  Fe  Fe78  1  0.19107731  0.03591910  0.04760621  1
  Fe  Fe79  1  0.68713744  0.53637639  0.37591433  1
  Fe  Fe80  1  0.70581002  0.03034857  0.37850916  1
  Fe  Fe81  1  0.69341531  0.03409842  0.04608460  1
  Fe  Fe82  1  0.03644644  0.19267347  0.55100639  1
  Fe  Fe83  1  0.03599662  0.69332599  0.88345741  1
  Fe  Fe84  1  0.03490164  0.19467672  0.88512483  1
  Fe  Fe85  1  0.53306376  0.70059183  0.21815563  1
  Fe  Fe86  1  0.53170530  0.69156263  0.87985663  1
  Fe  Fe87  1  0.53366205  0.18489472  0.53933256  1
  Fe  Fe88  1  0.53387578  0.18827730  0.87201093  1
  Fe  Fe89  1  0.53417240  0.19364491  0.21281167  1
  Fe  Fe90  1  0.04414319  0.68751345  0.54968832  1
  Fe  Fe91  1  0.03002865  0.19251238  0.21539552  1
  Fe  Fe92  1  0.30944409  0.46664599  0.95125278  1
  Fe  Fe93  1  0.79816397  0.46726975  0.62218113  1
  Fe  Fe94  1  0.30544394  0.96520390  0.94836361  1
  Fe  Fe95  1  0.81529476  0.96433595  0.62151141  1
  Fe  Fe96  1  0.80911909  0.95840495  0.94897314  1
  Fe  Fe97  1  0.80190139  0.46821920  0.28375004  1
  Fe  Fe98  1  0.79821140  0.47076908  0.95857444  1
  Fe  Fe99  1  0.31284968  0.96744307  0.29282613  1
  Fe  Fe100  1  0.31496004  0.95919948  0.62117326  1
  Fe  Fe101  1  0.30712010  0.46766026  0.62118041  1
  S  S102  1  0.35879090  0.14094446  0.08120842  1
  S  S103  1  0.35572261  0.14493676  0.41576054  1
  S  S104  1  0.35711892  0.14034466  0.74907495  1
  S  S105  1  0.36009818  0.64165249  0.08319025  1
  S  S106  1  0.35650740  0.64164129  0.42678512  1
  S  S107  1  0.35675324  0.64085007  0.75016854  1
  S  S108  1  0.86029958  0.13936181  0.08008978  1
  S  S109  1  0.86071477  0.14702423  0.42141115  1
  S  S110  1  0.86216271  0.14025540  0.75145819  1
  S  S111  1  0.84924499  0.64232372  0.07421705  1
  S  S112  1  0.86354334  0.63664450  0.42113720  1
  S  S113  1  0.86183801  0.63944594  0.74864695  1
  S  S114  1  0.13518175  0.35719866  0.25459021  1
  S  S115  1  0.13868176  0.36157026  0.58549366  1
  S  S116  1  0.14107525  0.35874784  0.91824436  1
  S  S117  1  0.14703122  0.85956912  0.24662882  1
  S  S118  1  0.14102072  0.86142159  0.58732578  1
  S  S119  1  0.13947470  0.86221522  0.91648723  1
  S  S120  1  0.64100865  0.35804308  0.24650454  1
  S  S121  1  0.63652198  0.35322699  0.58157497  1
  S  S122  1  0.63927285  0.35340265  0.91224804  1
  S  S123  1  0.64190762  0.86248052  0.24650064  1
  S  S124  1  0.65192824  0.85969058  0.58458238  1
  S  S125  1  0.63873709  0.85928039  0.91797849  1
  S  S126  1  0.06992498  0.17484761  0.04744744  1
  S  S127  1  0.06335238  0.17000045  0.37886572  1
  S  S128  1  0.06694995  0.17005634  0.71314798  1
  S  S129  1  0.07565258  0.66250778  0.04042813  1
  S  S130  1  0.06839843  0.66352001  0.37537885  1
  S  S131  1  0.06634061  0.66009127  0.70786738  1
  S  S132  1  0.56586512  0.16701296  0.03713382  1
  S  S133  1  0.56973578  0.16671462  0.37270363  1
  S  S134  1  0.56976368  0.17153464  0.70652021  1
  S  S135  1  0.55926064  0.67559664  0.04558574  1
  S  S136  1  0.57455379  0.67182500  0.37433908  1
  S  S137  1  0.55638830  0.67722996  0.71248605  1
  S  S138  1  0.33469332  0.43802914  0.12297085  1
  S  S139  1  0.32450448  0.42978853  0.45976049  1
  S  S140  1  0.33194310  0.43264779  0.79180857  1
  S  S141  1  0.32903168  0.93877520  0.12343261  1
  S  S142  1  0.31947163  0.93569370  0.45186814  1
  S  S143  1  0.32907644  0.93598947  0.79379196  1
  S  S144  1  0.82843680  0.42781339  0.12351998  1
  S  S145  1  0.82646951  0.43086231  0.45769295  1
  S  S146  1  0.83309221  0.43018392  0.79561271  1
  S  S147  1  0.83094065  0.93740286  0.11443047  1
  S  S148  1  0.83826141  0.93492094  0.46180416  1
  S  S149  1  0.83163107  0.93009297  0.78782146  1
  S  S150  1  0.43052357  0.32516336  0.28468337  1
  S  S151  1  0.43149472  0.32588504  0.62052865  1
  S  S152  1  0.43577197  0.32981836  0.95640612  1
  S  S153  1  0.43454223  0.83492177  0.29113843  1
  S  S154  1  0.44128859  0.85645121  0.63958768  1
  S  S155  1  0.43246794  0.83558205  0.96077155  1
  S  S156  1  0.92575903  0.32767159  0.29212776  1
  S  S157  1  0.93212488  0.33355975  0.62718315  1
  S  S158  1  0.92819474  0.32930549  0.95830219  1
  S  S159  1  0.92790640  0.82421680  0.29363672  1
  S  S160  1  0.93782751  0.82861664  0.62420248  1
  S  S161  1  0.93484026  0.82831494  0.95194592  1
  S  S162  1  0.16538634  0.07209072  0.20794024  1
  S  S163  1  0.16049982  0.06511590  0.53912551  1
  S  S164  1  0.17125518  0.07102617  0.87869946  1
  S  S165  1  0.18403453  0.56747490  0.22112449  1
  S  S166  1  0.16542452  0.56267366  0.53977891  1
  S  S167  1  0.16966211  0.56366852  0.87565360  1
  S  S168  1  0.66796783  0.07075904  0.20664134  1
  S  S169  1  0.67806586  0.06942440  0.54213123  1
  S  S170  1  0.67461195  0.06668331  0.87470535  1
  S  S171  1  0.67066345  0.56940419  0.20695478  1
  S  S172  1  0.67299646  0.56582214  0.54122682  1
  S  S173  1  0.66596916  0.56214462  0.87065987  1
  O  O174  1  0.36965261  0.22112858  0.07548067  1
  O  O175  1  0.36856238  0.22305476  0.40664788  1
  O  O176  1  0.36649671  0.22180745  0.74734187  1
  O  O177  1  0.36646451  0.72105070  0.07536274  1
  O  O178  1  0.36166668  0.71233078  0.40587655  1
  O  O179  1  0.36426251  0.71903815  0.74138734  1
  O  O180  1  0.87142831  0.21726338  0.07012879  1
  O  O181  1  0.86653837  0.22943421  0.41953678  1
  O  O182  1  0.87062148  0.21851196  0.74105125  1
  O  O183  1  0.87422407  0.71080043  0.05778050  1
  O  O184  1  0.87162891  0.71444623  0.41094982  1
  O  O185  1  0.87670683  0.71405822  0.73346234  1
  O  O186  1  0.27998140  0.13405806  0.08995255  1
  O  O187  1  0.27718914  0.13845054  0.42464615  1
  O  O188  1  0.28070277  0.13097420  0.76334373  1
  O  O189  1  0.28305626  0.63137062  0.09434465  1
  O  O190  1  0.26766232  0.62745910  0.42034022  1
  O  O191  1  0.27906283  0.62782621  0.75918025  1
  O  O192  1  0.77922314  0.13321078  0.08465548  1
  O  O193  1  0.78041766  0.13484470  0.42616170  1
  O  O194  1  0.78192198  0.13154256  0.75699896  1
  O  O195  1  0.76546350  0.63955952  0.06643988  1
  O  O196  1  0.78531161  0.62701555  0.42946022  1
  O  O197  1  0.78337404  0.63573782  0.75440298  1
  O  O198  1  0.11699122  0.28385212  0.27127265  1
  O  O199  1  0.12741926  0.28309897  0.59298698  1
  O  O200  1  0.13111927  0.27895109  0.92463653  1
  O  O201  1  0.15243625  0.78457453  0.26078274  1
  O  O202  1  0.13106847  0.78488904  0.59906879  1
  O  O203  1  0.12967738  0.78339052  0.92513830  1
  O  O204  1  0.63447996  0.27756110  0.25247772  1
  O  O205  1  0.62914913  0.27001895  0.58274870  1
  O  O206  1  0.63338219  0.27045014  0.91325027  1
  O  O207  1  0.63142488  0.78340015  0.25451243  1
  O  O208  1  0.64661700  0.78498761  0.59797830  1
  O  O209  1  0.63005505  0.78032119  0.92628148  1
  O  O210  1  0.21239623  0.35419092  0.24532383  1
  O  O211  1  0.21735411  0.36984934  0.57768435  1
  O  O212  1  0.22023371  0.36631529  0.91007658  1
  O  O213  1  0.22468015  0.88185021  0.23877141  1
  O  O214  1  0.21887927  0.87440754  0.58130386  1
  O  O215  1  0.21984191  0.87207068  0.91274212  1
  O  O216  1  0.71970579  0.36860563  0.23762962  1
  O  O217  1  0.71846719  0.36427084  0.57908616  1
  O  O218  1  0.71968746  0.36653632  0.90713041  1
  O  O219  1  0.71349976  0.86931639  0.22834510  1
  O  O220  1  0.73319040  0.87251661  0.57945276  1
  O  O221  1  0.71616777  0.86581928  0.90577255  1
  O  O222  1  0.41820038  0.12920828  0.14726788  1
  O  O223  1  0.41503145  0.13664536  0.48353867  1
  O  O224  1  0.41954388  0.12866506  0.81365262  1
  O  O225  1  0.42261249  0.63060876  0.14710299  1
  O  O226  1  0.39834720  0.65188824  0.50608371  1
  O  O227  1  0.41642861  0.63383373  0.81879582  1
  O  O228  1  0.91584462  0.13387599  0.15108687  1
  O  O229  1  0.91797481  0.13935151  0.49134422  1
  O  O230  1  0.91918605  0.13540041  0.82188686  1
  O  O231  1  0.89422798  0.63567081  0.14752226  1
  O  O232  1  0.92383095  0.63017483  0.48928224  1
  O  O233  1  0.92086686  0.63247454  0.81835853  1
  O  O234  1  0.36581693  0.08319344  0.01204079  1
  O  O235  1  0.36178742  0.08515562  0.34698516  1
  O  O236  1  0.35718531  0.08470289  0.67711629  1
  O  O237  1  0.36442037  0.58386081  0.01211282  1
  O  O238  1  0.37788680  0.57419921  0.37631453  1
  O  O239  1  0.36513244  0.58133220  0.68231183  1
  O  O240  1  0.87124956  0.07853540  0.01496341  1
  O  O241  1  0.87298114  0.09252557  0.35531008  1
  O  O242  1  0.87364858  0.08054926  0.68600876  1
  O  O243  1  0.86529013  0.57157811  0.01393942  1
  O  O244  1  0.87274956  0.57573671  0.35387107  1
  O  O245  1  0.87238955  0.57472160  0.68410862  1
  O  O246  1  0.07690028  0.36423792  0.18558032  1
  O  O247  1  0.07932128  0.37090822  0.51717792  1
  O  O248  1  0.08205204  0.36791334  0.85044932  1
  O  O249  1  0.08630087  0.85865089  0.17716027  1
  O  O250  1  0.08120759  0.86792868  0.51842353  1
  O  O251  1  0.08292877  0.86786288  0.84566134  1
  O  O252  1  0.58176346  0.36438777  0.17795984  1
  O  O253  1  0.58167077  0.35946440  0.51013906  1
  O  O254  1  0.58144743  0.36229427  0.84334156  1
  O  O255  1  0.57456977  0.87736471  0.18688347  1
  O  O256  1  0.59581849  0.86560233  0.51584090  1
  O  O257  1  0.57767151  0.87131133  0.85356132  1
  O  O258  1  0.13026885  0.42294944  0.32081626  1
  O  O259  1  0.12993872  0.42157245  0.65287719  1
  O  O260  1  0.13249571  0.41657731  0.98658601  1
  O  O261  1  0.13043762  0.91943950  0.31156464  1
  O  O262  1  0.12890915  0.92281242  0.65407031  1
  O  O263  1  0.12881747  0.92161989  0.98330438  1
  O  O264  1  0.63384182  0.41505859  0.31492422  1
  O  O265  1  0.62394597  0.40708422  0.64747378  1
  O  O266  1  0.62735261  0.40699681  0.97914141  1
  O  O267  1  0.64153860  0.92052207  0.31976964  1
  O  O268  1  0.64119128  0.92287885  0.65080157  1
  O  O269  1  0.63370495  0.91841790  0.98781184  1
  O  O270  1  0.03262475  0.20431001  0.10788627  1
  O  O271  1  0.02608656  0.20170400  0.43995098  1
  O  O272  1  0.03023094  0.19962128  0.77423429  1
  O  O273  1  0.04541732  0.67853006  0.10271805  1
  O  O274  1  0.03792550  0.69329672  0.44311588  1
  O  O275  1  0.03438488  0.69523796  0.77107371  1
  O  O276  1  0.52943791  0.19641667  0.09752521  1
  O  O277  1  0.53107231  0.19396578  0.43194394  1
  O  O278  1  0.52836598  0.20023273  0.76450281  1
  O  O279  1  0.52449278  0.71353072  0.10696317  1
  O  O280  1  0.54902468  0.69453324  0.43926500  1
  O  O281  1  0.52576524  0.71104059  0.77995729  1
  O  O282  1  0.29939843  0.46751069  0.05551731  1
  O  O283  1  0.28795308  0.46276538  0.39883904  1
  O  O284  1  0.30054539  0.46715536  0.72969203  1
  O  O285  1  0.29912604  0.97602415  0.06252225  1
  O  O286  1  0.28764453  0.98062514  0.39604209  1
  O  O287  1  0.29983027  0.97086819  0.73109706  1
  O  O288  1  0.79981634  0.45791399  0.05969659  1
  O  O289  1  0.79730696  0.46495913  0.39535667  1
  O  O290  1  0.81176942  0.46263291  0.73348077  1
  O  O291  1  0.79085045  0.97273745  0.05167706  1
  O  O292  1  0.81173103  0.97443157  0.40438839  1
  O  O293  1  0.80375900  0.97132684  0.73016967  1
  O  O294  1  0.47277119  0.29099997  0.22599940  1
  O  O295  1  0.46848866  0.29866412  0.55976053  1
  O  O296  1  0.47148611  0.29903562  0.89491430  1
  O  O297  1  0.46517543  0.80076195  0.22408709  1
  O  O298  1  0.47149289  0.82610067  0.57769179  1
  O  O299  1  0.46537704  0.80254529  0.89849942  1
  O  O300  1  0.95717341  0.29592891  0.22808087  1
  O  O301  1  0.97021170  0.30415601  0.56777066  1
  O  O302  1  0.96774359  0.30162431  0.89848783  1
  O  O303  1  0.95614006  0.79113134  0.23028942  1
  O  O304  1  0.97260279  0.79795590  0.56256801  1
  O  O305  1  0.96761535  0.79527974  0.88690330  1
  O  O306  1  0.19410074  0.04075646  0.27158920  1
  O  O307  1  0.19184824  0.03344205  0.60274664  1
  O  O308  1  0.20108542  0.03413557  0.93928947  1
  O  O309  1  0.20944304  0.51945456  0.27290973  1
  O  O310  1  0.19563050  0.52694372  0.60186451  1
  O  O311  1  0.20005857  0.52561585  0.93531906  1
  O  O312  1  0.69263268  0.03977631  0.26947702  1
  O  O313  1  0.71002733  0.03474375  0.60435507  1
  O  O314  1  0.70227640  0.02862602  0.93472179  1
  O  O315  1  0.70293201  0.53571952  0.27192777  1
  O  O316  1  0.70270481  0.52350268  0.59661485  1
  O  O317  1  0.69448327  0.52204505  0.92896657  1
  O  O318  1  0.08869180  0.09403987  0.04334858  1
  O  O319  1  0.07889054  0.08845486  0.37549359  1
  O  O320  1  0.08393053  0.08782353  0.70678654  1
  O  O321  1  0.09644699  0.57885286  0.02153913  1
  O  O322  1  0.10358132  0.58872640  0.38120760  1
  O  O323  1  0.07547130  0.57530771  0.70220592  1
  O  O324  1  0.58223535  0.08387815  0.03091437  1
  O  O325  1  0.59509347  0.08813291  0.36996224  1
  O  O326  1  0.59401987  0.09409174  0.70722912  1
  O  O327  1  0.56655250  0.59398441  0.04314694  1
  O  O328  1  0.59087079  0.58805613  0.35465873  1
  O  O329  1  0.57129471  0.59663368  0.70628978  1
  O  O330  1  0.41306606  0.41428591  0.11765999  1
  O  O331  1  0.40495041  0.41257907  0.45907575  1
  O  O332  1  0.41256677  0.41252240  0.79532681  1
  O  O333  1  0.41283803  0.92564849  0.13004980  1
  O  O334  1  0.39655008  0.91826241  0.44810753  1
  O  O335  1  0.41072649  0.91782187  0.80147374  1
  O  O336  1  0.91068091  0.41042987  0.13352048  1
  O  O337  1  0.90829449  0.41123188  0.46268369  1
  O  O338  1  0.91889711  0.41641435  0.81149473  1
  O  O339  1  0.90951630  0.92555338  0.10805435  1
  O  O340  1  0.91999615  0.91467628  0.46703777  1
  O  O341  1  0.91290191  0.91212638  0.79058107  1
  O  O342  1  0.40758429  0.39910754  0.27927069  1
  O  O343  1  0.40975402  0.40635771  0.62640152  1
  O  O344  1  0.41988760  0.41234329  0.96307213  1
  O  O345  1  0.41295813  0.91462164  0.28647085  1
  O  O346  1  0.42962948  0.94211147  0.64886965  1
  O  O347  1  0.41386373  0.91746079  0.96251567  1
  O  O348  1  0.90584700  0.40838946  0.29694410  1
  O  O349  1  0.91351645  0.41490060  0.63134219  1
  O  O350  1  0.90402607  0.40793145  0.95934509  1
  O  O351  1  0.91726930  0.90751551  0.30333558  1
  O  O352  1  0.92634515  0.91314983  0.63339632  1
  O  O353  1  0.91408569  0.90890397  0.95250567  1
  O  O354  1  0.08213926  0.08828843  0.19816073  1
  O  O355  1  0.07672266  0.08096662  0.53479456  1
  O  O356  1  0.08988033  0.08966835  0.87431710  1
  O  O357  1  0.11081966  0.59683161  0.22645094  1
  O  O358  1  0.07906610  0.57003253  0.52945915  1
  O  O359  1  0.08661903  0.57898627  0.86767690  1
  O  O360  1  0.58468917  0.09006153  0.19462431  1
  O  O361  1  0.59718871  0.08650488  0.53790601  1
  O  O362  1  0.59396926  0.08692817  0.87190210  1
  O  O363  1  0.59355246  0.59735761  0.20814779  1
  O  O364  1  0.59839285  0.59194546  0.54463059  1
  O  O365  1  0.58746611  0.58734062  0.87618178  1
  O  O366  1  0.13999911  0.22813915  0.06242764  1
  O  O367  1  0.13544367  0.22103381  0.39668862  1
  O  O368  1  0.13750365  0.22212007  0.72926216  1
  O  O369  1  0.14565031  0.71666120  0.05505897  1
  O  O370  1  0.12781292  0.72292584  0.38230440  1
  O  O371  1  0.13981602  0.70306449  0.71883126  1
  O  O372  1  0.63821835  0.21764542  0.05339071  1
  O  O373  1  0.63702820  0.22406315  0.38774077  1
  O  O374  1  0.63870298  0.22834346  0.72456469  1
  O  O375  1  0.63360046  0.72278278  0.06145042  1
  O  O376  1  0.64712675  0.72242598  0.38495455  1
  O  O377  1  0.63092339  0.72769638  0.73177655  1
  O  O378  1  0.28203875  0.36694060  0.10926983  1
  O  O379  1  0.27576075  0.35740100  0.44865569  1
  O  O380  1  0.27845243  0.36430917  0.77957536  1
  O  O381  1  0.28033420  0.86490141  0.10366170  1
  O  O382  1  0.26367888  0.86732016  0.43323695  1
  O  O383  1  0.27772527  0.86781228  0.78249825  1
  O  O384  1  0.77712249  0.35558031  0.10958417  1
  O  O385  1  0.77352603  0.36050778  0.44305312  1
  O  O386  1  0.78407093  0.35563382  0.77713522  1
  O  O387  1  0.78302006  0.86318743  0.09812662  1
  O  O388  1  0.78510836  0.86498395  0.44629779  1
  O  O389  1  0.77959036  0.85880749  0.76994747  1
  O  O390  1  0.36326929  0.26582588  0.26761415  1
  O  O391  1  0.36372276  0.27061235  0.60594436  1
  O  O392  1  0.36236130  0.27903145  0.93837488  1
  O  O393  1  0.36492075  0.78423371  0.27966531  1
  O  O394  1  0.36650874  0.81552152  0.63252923  1
  O  O395  1  0.36327613  0.78596735  0.95262580  1
  O  O396  1  0.85666545  0.27484274  0.28087841  1
  O  O397  1  0.86145426  0.28060384  0.61100300  1
  O  O398  1  0.85985267  0.27243002  0.94053746  1
  O  O399  1  0.85469617  0.77831362  0.28637846  1
  O  O400  1  0.86539325  0.78021544  0.60893900  1
  O  O401  1  0.86371317  0.77678457  0.93693554  1
  O  O402  1  0.21620414  0.14304618  0.22032041  1
  O  O403  1  0.20839979  0.13673254  0.55023064  1
  O  O404  1  0.22390872  0.14147119  0.89421526  1
  O  O405  1  0.24543509  0.63198746  0.23906331  1
  O  O406  1  0.20783063  0.63844831  0.55803488  1
  O  O407  1  0.21969225  0.63619385  0.89339442  1
  O  O408  1  0.72076678  0.14107028  0.22006788  1
  O  O409  1  0.72991128  0.14184925  0.55889387  1
  O  O410  1  0.72845869  0.13761354  0.89279653  1
  O  O411  1  0.72796889  0.63620174  0.22085046  1
  O  O412  1  0.73192923  0.63375016  0.55884530  1
  O  O413  1  0.72087858  0.63206847  0.88794619  1
  O  O414  1  0.49342752  0.32849073  0.02823440  1
  O  O415  1  0.48865665  0.32833731  0.35887230  1
  O  O416  1  0.49279702  0.33162642  0.69383362  1
  O  O417  1  0.49478753  0.84550229  0.03477714  1
  O  O418  1  0.49837979  0.84530866  0.35994637  1
  O  O419  1  0.50077007  0.85587190  0.71262681  1
  O  O420  1  0.98808198  0.33414160  0.03084546  1
  O  O421  1  0.98914544  0.33230792  0.36340654  1
  O  O422  1  0.99083794  0.33724698  0.70105856  1
  O  O423  1  0.99745598  0.83496994  0.02129938  1
  O  O424  1  0.99053856  0.82140842  0.36526116  1
  O  O425  1  0.99783202  0.82885636  0.69662389  1
  O  O426  1  0.16379519  0.00985738  0.13632382  1
  O  O427  1  0.15606020  0.00398921  0.46697439  1
  O  O428  1  0.16603038  0.01076957  0.80552005  1
  O  O429  1  0.17270693  0.51204523  0.14257423  1
  O  O430  1  0.16974646  0.50465666  0.46874288  1
  O  O431  1  0.16992686  0.50534174  0.80301567  1
  O  O432  1  0.66597121  0.00941627  0.13502566  1
  O  O433  1  0.67859874  0.01068263  0.47074453  1
  O  O434  1  0.67201394  0.00893938  0.80203952  1
  O  O435  1  0.65888332  0.50616483  0.13657472  1
  O  O436  1  0.66632382  0.50995801  0.46437921  1
  O  O437  1  0.65320017  0.50539154  0.79598144  1
  O  O438  1  0.00491684  0.16875917  0.30653315  1
  O  O439  1  0.00722677  0.16918940  0.64102292  1
  O  O440  1  0.01014291  0.17204867  0.97463487  1
  O  O441  1  0.00076375  0.64303357  0.30753933  1
  O  O442  1  0.00633116  0.65888185  0.63530664  1
  O  O443  1  0.01352992  0.66452939  0.96938493  1
  O  O444  1  0.50912886  0.15985028  0.29903738  1
  O  O445  1  0.51143634  0.16562769  0.63262621  1
  O  O446  1  0.50775446  0.16436725  0.96364275  1
  O  O447  1  0.51174673  0.67737555  0.30528611  1
  O  O448  1  0.49610315  0.68340787  0.64633359  1
  O  O449  1  0.50286725  0.67677686  0.97205865  1
  O  O450  1  0.34246931  0.49985431  0.19151560  1
  O  O451  1  0.33241511  0.48999878  0.53360632  1
  O  O452  1  0.33691710  0.49431690  0.86444876  1
  O  O453  1  0.32791027  0.99590294  0.19533012  1
  O  O454  1  0.32433011  0.99146984  0.52801493  1
  O  O455  1  0.33220386  1.00004756  0.86489616  1
  O  O456  1  0.82688044  0.48865984  0.19391729  1
  O  O457  1  0.83187269  0.49041398  0.53081138  1
  O  O458  1  0.82609431  0.48792268  0.86526349  1
  O  O459  1  0.83446350  0.99358063  0.18657055  1
  O  O460  1  0.84521869  0.99371266  0.53751911  1
  O  O461  1  0.83354634  0.98801594  0.86113529  1
