# generated using pymatgen
data_Na31Fe20(SO4)36
_symmetry_space_group_name_H-M   'P 1'
_cell_length_a   18.06686084
_cell_length_b   18.06269480
_cell_length_c   19.69315869
_cell_angle_alpha   107.60112798
_cell_angle_beta   107.60631734
_cell_angle_gamma   90.66064808
_symmetry_Int_Tables_number   1
_chemical_formula_structural   Na31Fe20(SO4)36
_chemical_formula_sum   'Na62 Fe40 S72 O288'
_cell_volume   5801.14266408
_cell_formula_units_Z   2
loop_
 _symmetry_equiv_pos_site_id
 _symmetry_equiv_pos_as_xyz
  1  'x, y, z'
loop_
 _atom_site_type_symbol
 _atom_site_label
 _atom_site_symmetry_multiplicity
 _atom_site_fract_x
 _atom_site_fract_y
 _atom_site_fract_z
 _atom_site_occupancy
  Na  Na0  1  0.13724835  0.36288680  0.08481643  1
  Na  Na1  1  0.13820661  0.37086790  0.42760438  1
  Na  Na2  1  0.13164964  0.36414445  0.74746502  1
  Na  Na3  1  0.14393517  0.86959920  0.08585757  1
  Na  Na4  1  0.12375357  0.86619866  0.40638444  1
  Na  Na5  1  0.13704362  0.86254489  0.74161421  1
  Na  Na6  1  0.62963206  0.34938182  0.07671479  1
  Na  Na7  1  0.64515342  0.36691083  0.43131265  1
  Na  Na8  1  0.63357991  0.36147708  0.74061640  1
  Na  Na9  1  0.63589993  0.86142586  0.08226345  1
  Na  Na10  1  0.63811150  0.87262293  0.43018505  1
  Na  Na11  1  0.62135792  0.87144972  0.74755366  1
  Na  Na12  1  0.36069370  0.12831463  0.23718714  1
  Na  Na13  1  0.37527494  0.13403423  0.58557838  1
  Na  Na14  1  0.37239182  0.13436120  0.92030952  1
  Na  Na15  1  0.36547909  0.63517037  0.25336697  1
  Na  Na16  1  0.37027997  0.63519299  0.60504412  1
  Na  Na17  1  0.36171336  0.63221599  0.91214441  1
  Na  Na18  1  0.87216349  0.13097078  0.25263645  1
  Na  Na19  1  0.86105783  0.13619106  0.58370985  1
  Na  Na20  1  0.86198518  0.13562226  0.91336606  1
  Na  Na21  1  0.86553376  0.63763609  0.24493620  1
  Na  Na22  1  0.86675092  0.64398400  0.58678030  1
  Na  Na23  1  0.86196534  0.62871016  0.90800215  1
  Na  Na24  1  0.99451304  0.53487265  0.07239008  1
  Na  Na25  1  1.00494104  -0.00974995  0.09869082  1
  Na  Na26  1  0.96018350  0.01031159  0.73738703  1
  Na  Na27  1  0.48583263  0.01838749  0.07146793  1
  Na  Na28  1  0.99252961  0.50836815  0.41315859  1
  Na  Na29  1  0.97495553  0.50401875  0.76673966  1
  Na  Na30  1  0.49504622  0.49252463  0.44993723  1
  Na  Na31  1  0.48494055  0.02809591  0.47503850  1
  Na  Na32  1  0.50485077  0.48323108  0.07959013  1
  Na  Na33  1  0.01091384  0.49131059  0.59139387  1
  Na  Na34  1  0.50267479  0.45374250  0.24607947  1
  Na  Na35  1  -0.00310800  0.51779404  0.23588115  1
  Na  Na36  1  -0.00028289  0.99371289  0.56860503  1
  Na  Na37  1  0.04735340  0.99358264  0.92922713  1
  Na  Na38  1  0.52727024  0.49137360  0.68284770  1
  Na  Na39  1  0.51284318  0.99347245  0.26058773  1
  Na  Na40  1  0.50263330  0.50583594  0.88235184  1
  Na  Na41  1  0.51600646  0.97111980  0.87762477  1
  Na  Na42  1  0.73538973  0.24485136  0.66223795  1
  Na  Na43  1  0.25880075  0.26295697  0.66000959  1
  Na  Na44  1  0.75669786  0.25859717  -0.01185730  1
  Na  Na45  1  0.73867101  0.74546200  0.67719028  1
  Na  Na46  1  0.23415081  0.73944395  0.33924520  1
  Na  Na47  1  0.26369849  0.25278891  -0.00059138  1
  Na  Na48  1  0.25128401  0.24995213  0.33225702  1
  Na  Na49  1  0.73812771  0.24126438  0.34732502  1
  Na  Na50  1  0.25781997  0.75438132  -0.00690597  1
  Na  Na51  1  0.75774708  0.76098271  0.32807833  1
  Na  Na52  1  0.26105125  0.26526879  0.49904691  1
  Na  Na53  1  0.76462601  0.75893977  0.14865466  1
  Na  Na54  1  0.25227005  0.25062282  0.83224708  1
  Na  Na55  1  0.23750741  0.74372381  0.17264960  1
  Na  Na56  1  0.24713033  0.23563353  0.16137106  1
  Na  Na57  1  0.24267401  0.74137379  0.51780910  1
  Na  Na58  1  0.75361960  0.75715924  0.49952417  1
  Na  Na59  1  0.73895698  0.73362915  0.84421451  1
  Na  Na60  1  0.27379550  0.75902611  0.80756659  1
  Na  Na61  1  0.74405187  0.24044229  0.17209359  1
  Fe  Fe62  1  0.96491540  0.80357080  0.44873176  1
  Fe  Fe63  1  0.47160496  0.30046631  0.46301714  1
  Fe  Fe64  1  0.96199199  0.31113496  0.78888166  1
  Fe  Fe65  1  0.46524792  0.80683321  0.12090060  1
  Fe  Fe66  1  0.97066699  0.81131088  0.78466967  1
  Fe  Fe67  1  0.96963214  0.80112232  0.12219544  1
  Fe  Fe68  1  0.45979096  0.81240621  0.45734031  1
  Fe  Fe69  1  0.96293302  0.31025723  0.11843305  1
  Fe  Fe70  1  0.95929232  0.30967021  0.45206886  1
  Fe  Fe71  1  0.46973412  0.29881512  0.78258813  1
  Fe  Fe72  1  0.18826282  0.03805184  0.71047841  1
  Fe  Fe73  1  0.20495863  0.52908819  0.71449552  1
  Fe  Fe74  1  0.69576725  0.03715261  0.38987799  1
  Fe  Fe75  1  0.70042939  0.03264643  0.70821613  1
  Fe  Fe76  1  0.19760156  0.53126841  0.38537798  1
  Fe  Fe77  1  0.68777917  0.53697776  0.04470669  1
  Fe  Fe78  1  0.69714203  0.02976700  0.04539036  1
  Fe  Fe79  1  0.68960670  0.53554832  0.37898863  1
  Fe  Fe80  1  0.19084374  0.53382470  0.04537650  1
  Fe  Fe81  1  0.18650855  0.03873912  0.37826025  1
  Fe  Fe82  1  0.53291042  0.70120066  0.87573486  1
  Fe  Fe83  1  0.53289156  0.69438602  0.21652994  1
  Fe  Fe84  1  0.53812545  0.18332902  0.87345820  1
  Fe  Fe85  1  0.03496795  0.19376488  0.21477344  1
  Fe  Fe86  1  0.04056693  0.69181800  0.87859107  1
  Fe  Fe87  1  0.03142012  0.19500964  0.88395953  1
  Fe  Fe88  1  0.02999746  0.19340804  0.54557689  1
  Fe  Fe89  1  0.53111316  0.69766510  0.55277462  1
  Fe  Fe90  1  0.03913643  0.69106760  0.54930419  1
  Fe  Fe91  1  0.53027519  0.19629300  0.20929976  1
  Fe  Fe92  1  0.30052468  0.96976512  0.94933787  1
  Fe  Fe93  1  0.30439161  0.96972645  0.28349814  1
  Fe  Fe94  1  0.79896676  0.47450127  0.62101993  1
  Fe  Fe95  1  0.81313613  0.96090434  0.95316100  1
  Fe  Fe96  1  0.81080210  0.96593996  0.28839174  1
  Fe  Fe97  1  0.30846586  0.46153448  0.95366169  1
  Fe  Fe98  1  0.30889783  0.96420369  0.62034101  1
  Fe  Fe99  1  0.30879285  0.46176996  0.28570125  1
  Fe  Fe100  1  0.80050831  0.46562812  0.94709673  1
  Fe  Fe101  1  0.80425137  0.46515500  0.28342932  1
  S  S102  1  0.36051816  0.13763722  0.08092989  1
  S  S103  1  0.35356231  0.14125127  0.41276640  1
  S  S104  1  0.35800728  0.13907774  0.74754098  1
  S  S105  1  0.35854196  0.64040627  0.08328009  1
  S  S106  1  0.36006013  0.63793973  0.41675888  1
  S  S107  1  0.36804049  0.63175015  0.75727183  1
  S  S108  1  0.85909143  0.14056218  0.08474418  1
  S  S109  1  0.85809438  0.14219751  0.41532818  1
  S  S110  1  0.85937906  0.14488175  0.75197434  1
  S  S111  1  0.85891737  0.63469364  0.08249759  1
  S  S112  1  0.85843154  0.63836796  0.41350217  1
  S  S113  1  0.86484074  0.64679024  0.74812314  1
  S  S114  1  0.14074410  0.35985563  0.24950953  1
  S  S115  1  0.13252512  0.36055002  0.58394451  1
  S  S116  1  0.13964425  0.35663558  0.91980835  1
  S  S117  1  0.14202739  0.86259653  0.24823580  1
  S  S118  1  0.13756626  0.86196029  0.57824444  1
  S  S119  1  0.14530021  0.85600950  0.91335986  1
  S  S120  1  0.64200672  0.35857045  0.24902126  1
  S  S121  1  0.63823768  0.36854273  0.58265662  1
  S  S122  1  0.63731776  0.36103431  0.91965570  1
  S  S123  1  0.63981435  0.86102168  0.25207779  1
  S  S124  1  0.63865344  0.86108428  0.58430224  1
  S  S125  1  0.64828760  0.85774849  0.92035685  1
  S  S126  1  0.05899178  0.16984062  0.04535923  1
  S  S127  1  0.06803387  0.17880584  0.37961083  1
  S  S128  1  0.06207445  0.17148157  0.70904508  1
  S  S129  1  0.06945204  0.67201414  0.03930495  1
  S  S130  1  0.06427345  0.66317407  0.37517130  1
  S  S131  1  0.07363490  0.66631763  0.70870197  1
  S  S132  1  0.57136648  0.15838894  0.03599762  1
  S  S133  1  0.56540897  0.17138047  0.37189086  1
  S  S134  1  0.57291708  0.16522125  0.70816320  1
  S  S135  1  0.56529642  0.67173342  0.04449401  1
  S  S136  1  0.56585345  0.67021797  0.37581263  1
  S  S137  1  0.57354170  0.67785553  0.71657308  1
  S  S138  1  0.33405612  0.43706218  0.12371411  1
  S  S139  1  0.33055003  0.43132220  0.45854673  1
  S  S140  1  0.32772590  0.42274266  0.79280994  1
  S  S141  1  0.33637121  0.92980503  0.12404764  1
  S  S142  1  0.32138382  0.93433683  0.45249103  1
  S  S143  1  0.32339344  0.93786415  0.78649291  1
  S  S144  1  0.82597363  0.43313423  0.12215591  1
  S  S145  1  0.83233385  0.43882485  0.45755824  1
  S  S146  1  0.82906013  0.43317791  0.78818464  1
  S  S147  1  0.83386174  0.93179137  0.12506761  1
  S  S148  1  0.83184311  0.93442328  0.45685855  1
  S  S149  1  0.83631939  0.93528175  0.79380073  1
  S  S150  1  0.43203003  0.32585737  0.29531746  1
  S  S151  1  0.43239252  0.32428103  0.62225051  1
  S  S152  1  0.43471455  0.32652559  0.95542446  1
  S  S153  1  0.42994493  0.83210386  0.29251815  1
  S  S154  1  0.42771186  0.82741945  0.62073282  1
  S  S155  1  0.43441259  0.83149300  0.95817982  1
  S  S156  1  0.93310035  0.33356237  0.29044494  1
  S  S157  1  0.92778494  0.33746151  0.62810200  1
  S  S158  1  0.93278911  0.33590215  0.96259092  1
  S  S159  1  0.92851599  0.82705825  0.28689444  1
  S  S160  1  0.94121904  0.83146360  0.62020336  1
  S  S161  1  0.93866179  0.82748116  0.95759195  1
  S  S162  1  0.16613072  0.06732554  0.20766941  1
  S  S163  1  0.16552089  0.07178033  0.54248807  1
  S  S164  1  0.16447851  0.06831101  0.87087797  1
  S  S165  1  0.17013630  0.56106298  0.20839709  1
  S  S166  1  0.16689102  0.56630668  0.54296010  1
  S  S167  1  0.17147884  0.56269849  0.87540160  1
  S  S168  1  0.67108320  0.06580447  0.20981970  1
  S  S169  1  0.67511719  0.06884005  0.54852867  1
  S  S170  1  0.67755542  0.06425951  0.87604717  1
  S  S171  1  0.66635741  0.56781938  0.20900865  1
  S  S172  1  0.67218511  0.57821582  0.54083896  1
  S  S173  1  0.66162468  0.56544993  0.87251690  1
  O  O174  1  0.37151876  0.21418583  0.07233233  1
  O  O175  1  0.36915919  0.22271885  0.41092144  1
  O  O176  1  0.36855341  0.21746478  0.73843700  1
  O  O177  1  0.36965026  0.71872107  0.07397545  1
  O  O178  1  0.36798277  0.71616916  0.40656855  1
  O  O179  1  0.36766744  0.70995944  0.75057421  1
  O  O180  1  0.86486134  0.22072174  0.07820896  1
  O  O181  1  0.86820586  0.22082070  0.40527175  1
  O  O182  1  0.86511189  0.22671958  0.75006472  1
  O  O183  1  0.87031057  0.71613144  0.08204539  1
  O  O184  1  0.86821537  0.71729732  0.40527242  1
  O  O185  1  0.88143207  0.72335526  0.73616845  1
  O  O186  1  0.28598084  0.12434602  0.09267995  1
  O  O187  1  0.27163431  0.13807989  0.41636040  1
  O  O188  1  0.27907722  0.13358552  0.75725110  1
  O  O189  1  0.27901137  0.63356243  0.09070187  1
  O  O190  1  0.28004104  0.62961939  0.42410142  1
  O  O191  1  0.29409223  0.61583150  0.77519541  1
  O  O192  1  0.78084206  0.12834790  0.09384499  1
  O  O193  1  0.77782364  0.13405008  0.41958486  1
  O  O194  1  0.77998545  0.12905028  0.75790728  1
  O  O195  1  0.77920175  0.62658919  0.09133533  1
  O  O196  1  0.77860901  0.63086629  0.41958496  1
  O  O197  1  0.78885793  0.64625121  0.75899583  1
  O  O198  1  0.13120530  0.27991036  0.25551193  1
  O  O199  1  0.11919698  0.28446053  0.59761209  1
  O  O200  1  0.12955101  0.27844823  0.93037864  1
  O  O201  1  0.13908547  0.78536190  0.25751269  1
  O  O202  1  0.13146109  0.78334509  0.58696800  1
  O  O203  1  0.13697215  0.77449891  0.91662030  1
  O  O204  1  0.63242697  0.27700062  0.25168830  1
  O  O205  1  0.63673812  0.28953282  0.58663132  1
  O  O206  1  0.62758839  0.28338005  0.93039724  1
  O  O207  1  0.62923778  0.78238056  0.26084364  1
  O  O208  1  0.62501624  0.78535975  0.59817751  1
  O  O209  1  0.63268734  0.77698316  0.92422411  1
  O  O210  1  0.21763296  0.36570526  0.23583020  1
  O  O211  1  0.20726874  0.36303179  0.57050386  1
  O  O212  1  0.22107839  0.36395695  0.91620793  1
  O  O213  1  0.21945935  0.87655657  0.23591579  1
  O  O214  1  0.21539877  0.87311494  0.56917226  1
  O  O215  1  0.22412523  0.86599288  0.90506423  1
  O  O216  1  0.72335654  0.36773138  0.24445872  1
  O  O217  1  0.71144754  0.38723409  0.56573934  1
  O  O218  1  0.71691356  0.36975321  0.91361674  1
  O  O219  1  0.71868538  0.86792258  0.24360733  1
  O  O220  1  0.71147906  0.86294600  0.56736975  1
  O  O221  1  0.73006359  0.86274888  0.91767937  1
  O  O222  1  0.42480396  0.12660148  0.14665798  1
  O  O223  1  0.40695650  0.12526905  0.47741535  1
  O  O224  1  0.41719085  0.13094709  0.81522091  1
  O  O225  1  0.41666063  0.63368628  0.15255152  1
  O  O226  1  0.41885658  0.62896540  0.48417670  1
  O  O227  1  0.43286046  0.62989748  0.82931328  1
  O  O228  1  0.91923345  0.13346681  0.15286056  1
  O  O229  1  0.91521656  0.13759652  0.48581002  1
  O  O230  1  0.91770126  0.13712679  0.82208414  1
  O  O231  1  0.91714570  0.61604546  0.14385059  1
  O  O232  1  0.91650901  0.62906435  0.48132491  1
  O  O233  1  0.92565734  0.63532760  0.81459598  1
  O  O234  1  0.36927809  0.07615972  0.01214755  1
  O  O235  1  0.35963143  0.08597110  0.34124416  1
  O  O236  1  0.36248574  0.07979348  0.67851906  1
  O  O237  1  0.36672513  0.58005775  0.01600956  1
  O  O238  1  0.36736697  0.57839127  0.34850204  1
  O  O239  1  0.37778452  0.57165895  0.69350993  1
  O  O240  1  0.86725034  0.08284411  0.01643771  1
  O  O241  1  0.86869621  0.08278721  0.34916938  1
  O  O242  1  0.87330270  0.09034175  0.68645307  1
  O  O243  1  0.86194657  0.58001615  0.00899221  1
  O  O244  1  0.86736685  0.57916804  0.34530491  1
  O  O245  1  0.86977300  0.58468730  0.67968349  1
  O  O246  1  0.07928377  0.37246046  0.18538381  1
  O  O247  1  0.06928927  0.37068401  0.51816571  1
  O  O248  1  0.08409570  0.36070323  0.84852236  1
  O  O249  1  0.08092093  0.86807567  0.17976047  1
  O  O250  1  0.07726348  0.86884648  0.50957494  1
  O  O251  1  0.08616136  0.86585738  0.84486402  1
  O  O252  1  0.58510951  0.37175402  0.18414748  1
  O  O253  1  0.57254692  0.37448074  0.51396046  1
  O  O254  1  0.57870751  0.36901927  0.85155196  1
  O  O255  1  0.58070875  0.86873656  0.18358980  1
  O  O256  1  0.57334905  0.87140432  0.52097502  1
  O  O257  1  0.59362242  0.87228221  0.85540349  1
  O  O258  1  0.13827391  0.41696913  0.32095696  1
  O  O259  1  0.12765228  0.42348367  0.65179466  1
  O  O260  1  0.12966102  0.41707171  0.98554447  1
  O  O261  1  0.13425395  0.92272112  0.31599445  1
  O  O262  1  0.12659219  0.92153248  0.64465949  1
  O  O263  1  0.13635916  0.91196516  0.98085876  1
  O  O264  1  0.63525601  0.41427742  0.32032729  1
  O  O265  1  0.63111872  0.42629490  0.65018104  1
  O  O266  1  0.62861521  0.42156100  0.98755916  1
  O  O267  1  0.63097424  0.92145649  0.31916389  1
  O  O268  1  0.64087933  0.92380563  0.65621819  1
  O  O269  1  0.64187238  0.91425954  0.99121870  1
  O  O270  1  0.02504838  0.20977619  0.10758420  1
  O  O271  1  0.02996310  0.20824427  0.44006048  1
  O  O272  1  0.02690593  0.20054178  0.77115746  1
  O  O273  1  0.03081082  0.69892281  0.09714902  1
  O  O274  1  0.03143845  0.69593332  0.43941629  1
  O  O275  1  0.03800179  0.69808153  0.76982723  1
  O  O276  1  0.53753119  0.18010040  0.09745504  1
  O  O277  1  0.52682291  0.19834226  0.43013069  1
  O  O278  1  0.54112309  0.19782150  0.77517763  1
  O  O279  1  0.52802366  0.69989178  0.10574293  1
  O  O280  1  0.53194895  0.69976925  0.43807239  1
  O  O281  1  0.53424647  0.70139179  0.77651557  1
  O  O282  1  0.29594204  0.47408087  0.06374474  1
  O  O283  1  0.30168709  0.46249342  0.39135307  1
  O  O284  1  0.29388316  0.45124712  0.72905890  1
  O  O285  1  0.31964364  0.95826816  0.05940232  1
  O  O286  1  0.29460075  0.97446095  0.39353305  1
  O  O287  1  0.28794074  0.97424177  0.72468635  1
  O  O288  1  0.79651867  0.46762984  0.06041123  1
  O  O289  1  0.80129266  0.47393855  0.39536148  1
  O  O290  1  0.81775681  0.47488365  0.73243458  1
  O  O291  1  0.80554933  0.97057740  0.06495026  1
  O  O292  1  0.79748808  0.96808042  0.39270775  1
  O  O293  1  0.80431264  0.97437266  0.73609917  1
  O  O294  1  0.47049067  0.30020188  0.23691618  1
  O  O295  1  0.46672610  0.29110167  0.56066246  1
  O  O296  1  0.46469855  0.29474428  0.88981088  1
  O  O297  1  0.46852237  0.80119316  0.23270094  1
  O  O298  1  0.46149564  0.79300386  0.55559209  1
  O  O299  1  0.47664985  0.79955323  0.90288957  1
  O  O300  1  0.97019424  0.30263976  0.23021872  1
  O  O301  1  0.95992494  0.30334010  0.56445967  1
  O  O302  1  0.96876148  0.30538289  0.90115860  1
  O  O303  1  0.96447983  0.80379228  0.22718814  1
  O  O304  1  0.97313522  0.78993412  0.55687895  1
  O  O305  1  0.97774384  0.80296331  0.89762278  1
  O  O306  1  0.19909242  0.03634418  0.27272155  1
  O  O307  1  0.19765102  0.03509617  0.60308357  1
  O  O308  1  0.19437020  0.03011290  0.92891945  1
  O  O309  1  0.20400143  0.52670082  0.27091179  1
  O  O310  1  0.19353763  0.53538808  0.60583401  1
  O  O311  1  0.19889167  0.52440410  0.93597530  1
  O  O312  1  0.70056538  0.02937039  0.27076674  1
  O  O313  1  0.70326565  0.02999610  0.60830050  1
  O  O314  1  0.70565496  0.02283413  0.93408429  1
  O  O315  1  0.69597068  0.52900831  0.26876735  1
  O  O316  1  0.70575007  0.54869475  0.60364089  1
  O  O317  1  0.69490533  0.53327075  0.93768916  1
  O  O318  1  0.06518840  0.08841851  0.04288957  1
  O  O319  1  0.08804411  0.09945843  0.37629015  1
  O  O320  1  0.07607668  0.08779879  0.69925712  1
  O  O321  1  0.09137417  0.59155428  0.03847597  1
  O  O322  1  0.08647379  0.58240088  0.37485530  1
  O  O323  1  0.09293040  0.58551580  0.70609301  1
  O  O324  1  0.58616507  0.07336237  0.02079761  1
  O  O325  1  0.59002079  0.09165460  0.37023648  1
  O  O326  1  0.61036904  0.09312279  0.71800462  1
  O  O327  1  0.57702017  0.58722884  0.03415300  1
  O  O328  1  0.58142726  0.58685681  0.36566016  1
  O  O329  1  0.60157774  0.60223170  0.71170517  1
  O  O330  1  0.41514109  0.42823775  0.12503247  1
  O  O331  1  0.40856269  0.40278053  0.45930158  1
  O  O332  1  0.40831693  0.40210588  0.79628070  1
  O  O333  1  0.42134170  0.91472707  0.14580140  1
  O  O334  1  0.40256059  0.91510131  0.45622347  1
  O  O335  1  0.40249024  0.92301526  0.78791716  1
  O  O336  1  0.90884989  0.41657997  0.12997145  1
  O  O337  1  0.91618974  0.42476184  0.46351961  1
  O  O338  1  0.91266874  0.41429085  0.80655008  1
  O  O339  1  0.91310780  0.90955574  0.12582605  1
  O  O340  1  0.90914147  0.90735971  0.45295385  1
  O  O341  1  0.91887186  0.91979401  0.79451296  1
  O  O342  1  0.41738577  0.41031621  0.30394866  1
  O  O343  1  0.41661916  0.40429890  0.62877167  1
  O  O344  1  0.41254273  0.40795164  0.95905577  1
  O  O345  1  0.41270611  0.91356478  0.29571833  1
  O  O346  1  0.39826373  0.90124039  0.61006458  1
  O  O347  1  0.41413646  0.91066588  0.95538938  1
  O  O348  1  0.91427946  0.41511385  0.29258606  1
  O  O349  1  0.91429688  0.42060945  0.63132363  1
  O  O350  1  0.91102329  0.41608549  0.96651377  1
  O  O351  1  0.90782793  0.90811473  0.29890984  1
  O  O352  1  0.93686306  0.91320036  0.62268546  1
  O  O353  1  0.92156185  0.91070535  0.96693755  1
  O  O354  1  0.08657027  0.09123054  0.20875835  1
  O  O355  1  0.08408047  0.08847826  0.54151854  1
  O  O356  1  0.08206605  0.08580957  0.86873034  1
  O  O357  1  0.08786565  0.57148550  0.20044073  1
  O  O358  1  0.08147892  0.58098578  0.53168529  1
  O  O359  1  0.08927975  0.58046099  0.86685692  1
  O  O360  1  0.58846294  0.08161001  0.20234321  1
  O  O361  1  0.59769214  0.09187421  0.54455182  1
  O  O362  1  0.59431151  0.07698376  0.86845721  1
  O  O363  1  0.58445290  0.58534524  0.20420245  1
  O  O364  1  0.59002176  0.59581315  0.53516808  1
  O  O365  1  0.59263062  0.60728366  0.88731503  1
  O  O366  1  0.13425605  0.21535201  0.06035389  1
  O  O367  1  0.13764594  0.23356336  0.39606889  1
  O  O368  1  0.13528805  0.22102884  0.72656511  1
  O  O369  1  0.14018501  0.72497718  0.05455331  1
  O  O370  1  0.13454771  0.71591185  0.38937656  1
  O  O371  1  0.14229447  0.71858855  0.72018484  1
  O  O372  1  0.64432080  0.20965229  0.05472730  1
  O  O373  1  0.63259782  0.22693276  0.38522765  1
  O  O374  1  0.63235560  0.22485809  0.71443656  1
  O  O375  1  0.63889257  0.72091158  0.06514658  1
  O  O376  1  0.63786004  0.72069893  0.39029343  1
  O  O377  1  0.63890782  0.73931387  0.73518539  1
  O  O378  1  0.28632461  0.36274776  0.10741195  1
  O  O379  1  0.27376302  0.36294415  0.44274246  1
  O  O380  1  0.27639241  0.35338222  0.78535086  1
  O  O381  1  0.28483484  0.85762087  0.10712096  1
  O  O382  1  0.26840640  0.86298745  0.43311189  1
  O  O383  1  0.27131840  0.86728281  0.77124624  1
  O  O384  1  0.77540698  0.36148290  0.10765256  1
  O  O385  1  0.78442221  0.36546852  0.44064048  1
  O  O386  1  0.77341238  0.36335346  0.76335181  1
  O  O387  1  0.77838280  0.86400716  0.10966744  1
  O  O388  1  0.77690350  0.86560509  0.44345383  1
  O  O389  1  0.78764881  0.86274952  0.77913085  1
  O  O390  1  0.35769821  0.27622344  0.27515941  1
  O  O391  1  0.36052581  0.27157948  0.60684843  1
  O  O392  1  0.36376221  0.27434504  0.94205015  1
  O  O393  1  0.35836286  0.77973237  0.27489391  1
  O  O394  1  0.36238289  0.77046433  0.60938705  1
  O  O395  1  0.36372097  0.77771409  0.94096467  1
  O  O396  1  0.86278384  0.28126354  0.27555755  1
  O  O397  1  0.85753030  0.28991783  0.61928605  1
  O  O398  1  0.86545262  0.28171927  0.95110918  1
  O  O399  1  0.85688637  0.77224625  0.26793496  1
  O  O400  1  0.86564093  0.78785819  0.60635401  1
  O  O401  1  0.86846141  0.77367470  0.93772110  1
  O  O402  1  0.21899606  0.13706391  0.21972863  1
  O  O403  1  0.21562319  0.14395200  0.55742267  1
  O  O404  1  0.21487700  0.14065505  0.88606562  1
  O  O405  1  0.21919476  0.63532891  0.22569669  1
  O  O406  1  0.21513180  0.63747214  0.55434212  1
  O  O407  1  0.22422944  0.63428967  0.89584002  1
  O  O408  1  0.72269662  0.13856206  0.22807695  1
  O  O409  1  0.73231333  0.13522982  0.56349579  1
  O  O410  1  0.72700815  0.13825157  0.89901163  1
  O  O411  1  0.71917018  0.63838479  0.22631432  1
  O  O412  1  0.72114853  0.64926994  0.54901177  1
  O  O413  1  0.72139925  0.62121514  0.87363696  1
  O  O414  1  0.49676830  0.33345459  0.02548337  1
  O  O415  1  0.48763318  0.32571473  0.36901746  1
  O  O416  1  0.49215506  0.32105557  0.69383840  1
  O  O417  1  0.48988704  0.84102808  0.03548072  1
  O  O418  1  0.48767725  0.83424668  0.36591471  1
  O  O419  1  0.49035904  0.84272329  0.69116530  1
  O  O420  1  0.99544156  0.34214008  0.03543882  1
  O  O421  1  0.99182644  0.34029725  0.36477998  1
  O  O422  1  0.99070494  0.34262126  0.70102066  1
  O  O423  1  0.99677399  0.82867993  0.03072442  1
  O  O424  1  0.98737147  0.82267823  0.35761392  1
  O  O425  1  0.99867352  0.82814982  0.69220400  1
  O  O426  1  0.15598106  0.00451300  0.13735828  1
  O  O427  1  0.16184845  0.01339937  0.46923272  1
  O  O428  1  0.15798552  0.01127144  0.79535276  1
  O  O429  1  0.17404180  0.50390976  0.13650790  1
  O  O430  1  0.16568007  0.50436510  0.47133449  1
  O  O431  1  0.17253137  0.50409398  0.80399308  1
  O  O432  1  0.67174694  0.00783851  0.13751207  1
  O  O433  1  0.67244979  0.00745927  0.47500972  1
  O  O434  1  0.68266300  0.00974209  0.80372914  1
  O  O435  1  0.66201321  0.50895094  0.13524643  1
  O  O436  1  0.66615519  0.51455074  0.46780923  1
  O  O437  1  0.63101347  0.49881559  0.80360041  1
  O  O438  1  0.00838806  0.17721313  0.30730191  1
  O  O439  1  0.00321013  0.17398789  0.63800328  1
  O  O440  1  0.00230066  0.17291835  0.97299419  1
  O  O441  1  0.00254510  0.65396032  0.30418351  1
  O  O442  1  0.01112245  0.65992754  0.63540744  1
  O  O443  1  0.01195273  0.66468113  0.96393193  1
  O  O444  1  0.50607575  0.16077080  0.29579756  1
  O  O445  1  0.50603546  0.14345376  0.63988837  1
  O  O446  1  0.51336950  0.16379306  0.96521328  1
  O  O447  1  0.50543513  0.67137097  0.30442228  1
  O  O448  1  0.51185971  0.67530902  0.64438169  1
  O  O449  1  0.50841867  0.67694025  0.97357179  1
  O  O450  1  0.33552299  0.49207734  0.19886083  1
  O  O451  1  0.33647691  0.49526663  0.52584179  1
  O  O452  1  0.33523594  0.48680804  0.86560204  1
  O  O453  1  0.32775449  0.99152819  0.19092426  1
  O  O454  1  0.32323037  0.99224936  0.52514843  1
  O  O455  1  0.32369225  0.99740571  0.85938908  1
  O  O456  1  0.82808622  0.49360285  0.19454420  1
  O  O457  1  0.83304201  0.49780960  0.52925904  1
  O  O458  1  0.82166469  0.49036070  0.85854786  1
  O  O459  1  0.83880199  0.99183478  0.19840674  1
  O  O460  1  0.84457546  0.99677160  0.52776005  1
  O  O461  1  0.84325485  0.99175814  0.86981402  1
