# generated using pymatgen
data_Na31Fe20(SO4)36
_symmetry_space_group_name_H-M   'P 1'
_cell_length_a   18.06733771
_cell_length_b   18.07146626
_cell_length_c   19.69408549
_cell_angle_alpha   107.54190550
_cell_angle_beta   107.57215822
_cell_angle_gamma   90.73765173
_symmetry_Int_Tables_number   1
_chemical_formula_structural   Na31Fe20(SO4)36
_chemical_formula_sum   'Na62 Fe40 S72 O288'
_cell_volume   5806.77878544
_cell_formula_units_Z   2
loop_
 _symmetry_equiv_pos_site_id
 _symmetry_equiv_pos_as_xyz
  1  'x, y, z'
loop_
 _atom_site_type_symbol
 _atom_site_label
 _atom_site_symmetry_multiplicity
 _atom_site_fract_x
 _atom_site_fract_y
 _atom_site_fract_z
 _atom_site_occupancy
  Na  Na0  1  0.13661542  0.35627481  0.08633390  1
  Na  Na1  1  0.14990804  0.36906995  0.43998844  1
  Na  Na2  1  0.14303957  0.36873612  0.75982174  1
  Na  Na3  1  0.13020485  0.86530786  0.07620587  1
  Na  Na4  1  0.13477228  0.87819460  0.41945034  1
  Na  Na5  1  0.11856171  0.89067047  0.75271851  1
  Na  Na6  1  0.63508004  0.36332528  0.08188911  1
  Na  Na7  1  0.63341069  0.36140487  0.41088466  1
  Na  Na8  1  0.62243401  0.36708138  0.73543228  1
  Na  Na9  1  0.63396436  0.86361438  0.08450158  1
  Na  Na10  1  0.63726299  0.86518658  0.41767591  1
  Na  Na11  1  0.63484078  0.86408089  0.74378307  1
  Na  Na12  1  0.36087464  0.15489803  0.25335680  1
  Na  Na13  1  0.35620413  0.14066595  0.57494470  1
  Na  Na14  1  0.35925023  0.13476118  0.90638539  1
  Na  Na15  1  0.36735287  0.63022693  0.25106004  1
  Na  Na16  1  0.37353245  0.61561719  0.58529132  1
  Na  Na17  1  0.35619899  0.62069846  0.90854767  1
  Na  Na18  1  0.86859379  0.13156329  0.25194114  1
  Na  Na19  1  0.87409716  0.13286218  0.58770193  1
  Na  Na20  1  0.87347711  0.13487551  0.92404889  1
  Na  Na21  1  0.86375412  0.63934136  0.25358616  1
  Na  Na22  1  0.86824125  0.65744310  0.60548111  1
  Na  Na23  1  0.86220545  0.63378774  0.91073143  1
  Na  Na24  1  0.99368822  0.51673888  0.74315401  1
  Na  Na25  1  0.48302234  0.04151679  0.49956653  1
  Na  Na26  1  0.48839420  0.01859801  0.72396025  1
  Na  Na27  1  0.49587693  0.49052779  0.45222135  1
  Na  Na28  1  0.49138204  0.04749163  0.09990554  1
  Na  Na29  1  0.98708141  0.51160799  0.40974174  1
  Na  Na30  1  1.00864139  0.48728953  0.08423477  1
  Na  Na31  1  0.45097177  0.50607791  0.07077350  1
  Na  Na32  1  0.99532499  0.02021983  0.06655740  1
  Na  Na33  1  0.50763515  0.99186341  0.91364206  1
  Na  Na34  1  0.04420231  0.99621998  0.60315029  1
  Na  Na35  1  0.50883362  0.47841542  0.25584915  1
  Na  Na36  1  0.01898074  0.49294658  0.57906047  1
  Na  Na37  1  0.01982593  0.49299333  0.91329728  1
  Na  Na38  1  0.05985221  0.99873531  0.27988737  1
  Na  Na39  1  0.49836455  0.48674622  0.90431672  1
  Na  Na40  1  0.00770981  0.45185514  0.24014172  1
  Na  Na41  1  0.48296705  1.01509631  0.26796740  1
  Na  Na42  1  0.73539346  0.23889077  0.33668074  1
  Na  Na43  1  0.23462385  0.23733250  0.34453937  1
  Na  Na44  1  0.73426788  0.23922018  0.66622555  1
  Na  Na45  1  0.23940474  0.24205658  0.01095384  1
  Na  Na46  1  0.25353022  0.74985574  0.33272543  1
  Na  Na47  1  0.25726990  0.75770698  -0.00398729  1
  Na  Na48  1  0.25909228  0.27027602  0.64433333  1
  Na  Na49  1  0.75593488  0.75576945  -0.00626955  1
  Na  Na50  1  0.24883757  0.74792476  0.66771134  1
  Na  Na51  1  0.76329976  0.25997396  0.00004507  1
  Na  Na52  1  0.25040556  0.75580370  0.82980420  1
  Na  Na53  1  0.25457288  0.25445469  0.83077888  1
  Na  Na54  1  0.74340972  0.74434214  0.17509461  1
  Na  Na55  1  0.25333149  0.75486143  0.16342320  1
  Na  Na56  1  0.75348183  0.75478772  0.49708374  1
  Na  Na57  1  0.77195137  0.76245785  0.80938642  1
  Na  Na58  1  0.74935861  0.25167688  0.83257635  1
  Na  Na59  1  0.74211927  0.24015707  0.17141089  1
  Na  Na60  1  0.24744565  0.74355820  0.50011080  1
  Na  Na61  1  0.73152106  0.23857518  0.50607370  1
  Fe  Fe62  1  0.96308400  0.30996819  0.78315935  1
  Fe  Fe63  1  0.46578535  0.30248447  0.77567342  1
  Fe  Fe64  1  0.96714243  0.80703709  0.12059330  1
  Fe  Fe65  1  0.46981931  0.29708527  0.12088708  1
  Fe  Fe66  1  0.95966980  0.30967382  0.45175654  1
  Fe  Fe67  1  0.46906179  0.29751722  0.45886210  1
  Fe  Fe68  1  0.46470042  0.81015062  0.45792819  1
  Fe  Fe69  1  0.46573802  0.81419326  0.12666370  1
  Fe  Fe70  1  0.46299662  0.80367562  0.78645188  1
  Fe  Fe71  1  0.96365585  0.80914461  0.44996643  1
  Fe  Fe72  1  0.20323990  0.52601710  0.71378625  1
  Fe  Fe73  1  0.68968685  0.53787724  0.71354433  1
  Fe  Fe74  1  0.69525689  0.02926040  0.05027577  1
  Fe  Fe75  1  0.19866048  0.52589506  0.38099681  1
  Fe  Fe76  1  0.68897509  0.53651864  0.04727313  1
  Fe  Fe77  1  0.18464857  0.03881061  0.03881764  1
  Fe  Fe78  1  0.69458281  0.03349198  0.71051561  1
  Fe  Fe79  1  0.69116941  0.03402826  0.38141100  1
  Fe  Fe80  1  0.20388731  0.52896283  0.04604604  1
  Fe  Fe81  1  0.69294775  0.53785591  0.38208967  1
  Fe  Fe82  1  0.53425826  0.68885789  0.87954544  1
  Fe  Fe83  1  0.03530921  0.18452599  0.54164838  1
  Fe  Fe84  1  0.03323745  0.69289602  0.54722081  1
  Fe  Fe85  1  0.53618518  0.69608739  0.55187296  1
  Fe  Fe86  1  0.03045952  0.19979789  0.21174243  1
  Fe  Fe87  1  0.03366122  0.18812233  0.87594096  1
  Fe  Fe88  1  0.03374256  0.70050547  0.87751486  1
  Fe  Fe89  1  0.53547461  0.69428925  0.21801069  1
  Fe  Fe90  1  0.53867213  0.19052652  0.87876080  1
  Fe  Fe91  1  0.03588973  0.68731035  0.21050355  1
  Fe  Fe92  1  0.81975439  0.96233921  0.62545768  1
  Fe  Fe93  1  0.31632774  0.45532715  0.28956274  1
  Fe  Fe94  1  0.80630219  0.96272481  0.94577641  1
  Fe  Fe95  1  0.29400427  0.96933841  0.62116569  1
  Fe  Fe96  1  0.29694230  0.97464760  0.29332451  1
  Fe  Fe97  1  0.80419063  0.46867167  0.28034083  1
  Fe  Fe98  1  0.80409637  0.46939150  0.61454766  1
  Fe  Fe99  1  0.80711720  0.46766733  0.95104897  1
  Fe  Fe100  1  0.81412428  0.96248549  0.29165155  1
  Fe  Fe101  1  0.30508070  0.96844298  0.95177833  1
  S  S102  1  0.35551067  0.14049208  0.08227203  1
  S  S103  1  0.35419361  0.14097911  0.40824018  1
  S  S104  1  0.36289432  0.13683859  0.74870567  1
  S  S105  1  0.36070265  0.64720052  0.08699884  1
  S  S106  1  0.36237954  0.63659397  0.41903337  1
  S  S107  1  0.35890381  0.64222946  0.75602326  1
  S  S108  1  0.85682479  0.13735879  0.08424903  1
  S  S109  1  0.85679025  0.14205371  0.41566386  1
  S  S110  1  0.85841910  0.14393929  0.74895501  1
  S  S111  1  0.85767543  0.64225221  0.08210300  1
  S  S112  1  0.86011494  0.64066526  0.41461162  1
  S  S113  1  0.86189824  0.63636122  0.75155411  1
  S  S114  1  0.14389031  0.35804369  0.24868946  1
  S  S115  1  0.13108313  0.36057317  0.58592642  1
  S  S116  1  0.13700812  0.36052006  0.91816296  1
  S  S117  1  0.14325955  0.85017755  0.24630449  1
  S  S118  1  0.14041496  0.85257387  0.57892125  1
  S  S119  1  0.14299608  0.85971573  0.91697929  1
  S  S120  1  0.64298742  0.36153032  0.24703320  1
  S  S121  1  0.64081172  0.36691793  0.57818952  1
  S  S122  1  0.64104088  0.36047230  0.91532566  1
  S  S123  1  0.64173363  0.85801001  0.25281915  1
  S  S124  1  0.64087902  0.85921000  0.58421152  1
  S  S125  1  0.63903763  0.85787468  0.91549715  1
  S  S126  1  0.06404327  0.16982806  0.04008280  1
  S  S127  1  0.06244719  0.18016469  0.37784196  1
  S  S128  1  0.06470069  0.17737481  0.71232817  1
  S  S129  1  0.06684331  0.66536968  0.04119780  1
  S  S130  1  0.06784109  0.65949403  0.36998943  1
  S  S131  1  0.07186842  0.66174675  0.70653495  1
  S  S132  1  0.56726122  0.16320560  0.03915283  1
  S  S133  1  0.56507318  0.17023693  0.37571934  1
  S  S134  1  0.56762153  0.16779284  0.70719366  1
  S  S135  1  0.56434953  0.67016527  0.04372103  1
  S  S136  1  0.56564467  0.66979290  0.37806636  1
  S  S137  1  0.56955074  0.67431854  0.71470244  1
  S  S138  1  0.33551356  0.43090521  0.12648780  1
  S  S139  1  0.33206635  0.42510615  0.45679140  1
  S  S140  1  0.33168978  0.42789865  0.79304209  1
  S  S141  1  0.32661693  0.93559499  0.12668046  1
  S  S142  1  0.32855313  0.92966471  0.46040463  1
  S  S143  1  0.33178418  0.93067300  0.79134347  1
  S  S144  1  0.83144195  0.44305298  0.12188578  1
  S  S145  1  0.82940582  0.43780510  0.45472615  1
  S  S146  1  0.82764643  0.43200464  0.78807994  1
  S  S147  1  0.83024085  0.92903178  0.12569570  1
  S  S148  1  0.83097625  0.93215505  0.45863719  1
  S  S149  1  0.83075855  0.93652963  0.78995197  1
  S  S150  1  0.43876995  0.33576269  0.29691409  1
  S  S151  1  0.43327593  0.33069114  0.61953279  1
  S  S152  1  0.44331656  0.32602924  0.95690833  1
  S  S153  1  0.43005593  0.83169920  0.29321253  1
  S  S154  1  0.42602261  0.82758387  0.62516808  1
  S  S155  1  0.43411377  0.83396984  0.96193527  1
  S  S156  1  0.93007944  0.33292216  0.29097647  1
  S  S157  1  0.92570977  0.33715616  0.62258965  1
  S  S158  1  0.93325069  0.33812046  0.95629263  1
  S  S159  1  0.93550688  0.82662752  0.28698833  1
  S  S160  1  0.93862860  0.83016039  0.61935055  1
  S  S161  1  0.93081202  0.82722350  0.95717778  1
  S  S162  1  0.16274216  0.06461357  0.20331677  1
  S  S163  1  0.16724430  0.06486376  0.54018822  1
  S  S164  1  0.17352555  0.07159470  0.87563655  1
  S  S165  1  0.17567437  0.56473660  0.20973579  1
  S  S166  1  0.16727030  0.56717488  0.54127455  1
  S  S167  1  0.16712428  0.57054362  0.87727851  1
  S  S168  1  0.66957702  0.05738149  0.21211850  1
  S  S169  1  0.68178319  0.06516969  0.54723882  1
  S  S170  1  0.67136235  0.06504494  0.87502171  1
  S  S171  1  0.66389970  0.56723867  0.20514894  1
  S  S172  1  0.67225954  0.57390216  0.54070803  1
  S  S173  1  0.66777900  0.56604799  0.87716731  1
  O  O174  1  0.36915853  0.21959092  0.07497142  1
  O  O175  1  0.37674790  0.21928310  0.39917608  1
  O  O176  1  0.37450301  0.21313194  0.73614477  1
  O  O177  1  0.36789007  0.73015773  0.08658828  1
  O  O178  1  0.36958497  0.71683331  0.41269286  1
  O  O179  1  0.36339005  0.72662036  0.75664931  1
  O  O180  1  0.86017422  0.21216344  0.07129584  1
  O  O181  1  0.86349132  0.21963808  0.40353138  1
  O  O182  1  0.86539111  0.22122838  0.73613130  1
  O  O183  1  0.86815926  0.72199498  0.07610720  1
  O  O184  1  0.87154412  0.71705537  0.40383171  1
  O  O185  1  0.86577745  0.71212878  0.74090685  1
  O  O186  1  0.27294052  0.13245169  0.08074750  1
  O  O187  1  0.27219928  0.13807376  0.40229987  1
  O  O188  1  0.29128688  0.13222482  0.76702685  1
  O  O189  1  0.28155160  0.63438290  0.09391549  1
  O  O190  1  0.28382518  0.62554462  0.42798028  1
  O  O191  1  0.28175143  0.62952144  0.76822195  1
  O  O192  1  0.77900177  0.12324857  0.09545954  1
  O  O193  1  0.77665746  0.13308988  0.42196970  1
  O  O194  1  0.77712267  0.13568298  0.75339481  1
  O  O195  1  0.77826758  0.63395678  0.08969828  1
  O  O196  1  0.78001415  0.63216657  0.41974280  1
  O  O197  1  0.78565499  0.62189599  0.76479800  1
  O  O198  1  0.13194817  0.27831903  0.25411525  1
  O  O199  1  0.11553638  0.28271031  0.59429785  1
  O  O200  1  0.12128280  0.28293323  0.92719813  1
  O  O201  1  0.13652824  0.76700966  0.24623588  1
  O  O202  1  0.13411652  0.77057611  0.58166133  1
  O  O203  1  0.13267644  0.78215478  0.93035022  1
  O  O204  1  0.64043591  0.28489979  0.25664122  1
  O  O205  1  0.64261952  0.29082865  0.58983292  1
  O  O206  1  0.63576348  0.28153047  0.92495816  1
  O  O207  1  0.63032424  0.77907012  0.25970553  1
  O  O208  1  0.62867478  0.78278353  0.59612270  1
  O  O209  1  0.62920261  0.77950573  0.92467283  1
  O  O210  1  0.22304038  0.36836341  0.24266334  1
  O  O211  1  0.20625912  0.36563409  0.57437433  1
  O  O212  1  0.21247675  0.36585683  0.90691634  1
  O  O213  1  0.22427003  0.86519782  0.24464269  1
  O  O214  1  0.22166443  0.86483994  0.57493288  1
  O  O215  1  0.22778166  0.86684355  0.91910045  1
  O  O216  1  0.71903790  0.37578048  0.23313841  1
  O  O217  1  0.71382644  0.38233186  0.55991309  1
  O  O218  1  0.72059861  0.37090431  0.90835588  1
  O  O219  1  0.72114730  0.86662681  0.24598501  1
  O  O220  1  0.72013537  0.86712467  0.57761350  1
  O  O221  1  0.71857899  0.86632930  0.90877277  1
  O  O222  1  0.40900116  0.13105835  0.15087386  1
  O  O223  1  0.40534031  0.13236917  0.47818813  1
  O  O224  1  0.42994820  0.12411453  0.81042024  1
  O  O225  1  0.41951243  0.63721352  0.15532344  1
  O  O226  1  0.42302495  0.62834805  0.48642183  1
  O  O227  1  0.42017757  0.63535105  0.82408836  1
  O  O228  1  0.91753571  0.13340843  0.15340218  1
  O  O229  1  0.91431704  0.13878871  0.48623172  1
  O  O230  1  0.91342120  0.14207703  0.82127431  1
  O  O231  1  0.91627235  0.63223432  0.14939265  1
  O  O232  1  0.91715624  0.63225861  0.48387586  1
  O  O233  1  0.92448279  0.62848910  0.81851179  1
  O  O234  1  0.36893292  0.08149329  0.01513876  1
  O  O235  1  0.36845523  0.08040372  0.34230486  1
  O  O236  1  0.36439497  0.07458109  0.67788824  1
  O  O237  1  0.37093102  0.59327430  0.01947642  1
  O  O238  1  0.36923982  0.57944277  0.34994992  1
  O  O239  1  0.36466278  0.59033938  0.68683185  1
  O  O240  1  0.86680494  0.07409093  0.01870411  1
  O  O241  1  0.86685939  0.08142458  0.34997640  1
  O  O242  1  0.87136421  0.08317679  0.68537471  1
  O  O243  1  0.86495312  0.58482301  0.01280712  1
  O  O244  1  0.87050814  0.57873077  0.34837882  1
  O  O245  1  0.87113942  0.57458848  0.68434273  1
  O  O246  1  0.08522611  0.37088121  0.18415990  1
  O  O247  1  0.06872838  0.37519265  0.52149691  1
  O  O248  1  0.07468144  0.37446079  0.85342985  1
  O  O249  1  0.08700540  0.85890076  0.17650204  1
  O  O250  1  0.08430832  0.85906349  0.50821770  1
  O  O251  1  0.09092353  0.86152056  0.84618693  1
  O  O252  1  0.58017827  0.36787325  0.17988091  1
  O  O253  1  0.57507222  0.37020144  0.51109048  1
  O  O254  1  0.58219340  0.36770728  0.84722267  1
  O  O255  1  0.58373829  0.86538978  0.18335710  1
  O  O256  1  0.58271913  0.86253403  0.51311684  1
  O  O257  1  0.58021588  0.86674144  0.84777711  1
  O  O258  1  0.13609075  0.41517370  0.31985799  1
  O  O259  1  0.12572833  0.42066635  0.65609211  1
  O  O260  1  0.13223790  0.42098264  0.98841678  1
  O  O261  1  0.12941025  0.90264678  0.31263769  1
  O  O262  1  0.12822791  0.90798993  0.64441431  1
  O  O263  1  0.13301484  0.92028140  0.98332635  1
  O  O264  1  0.63523808  0.42289574  0.31495486  1
  O  O265  1  0.63449428  0.42769682  0.64597128  1
  O  O266  1  0.63132078  0.41908182  0.98291035  1
  O  O267  1  0.63195649  0.91738293  0.31961263  1
  O  O268  1  0.62968959  0.92136229  0.64885569  1
  O  O269  1  0.63028196  0.91778220  0.98322781  1
  O  O270  1  0.02789424  0.18956615  0.10031755  1
  O  O271  1  0.02283533  0.21134876  0.43817473  1
  O  O272  1  0.02468133  0.21030815  0.77216209  1
  O  O273  1  0.02738070  0.69463942  0.10028442  1
  O  O274  1  0.03166109  0.68927013  0.43058720  1
  O  O275  1  0.03793831  0.68944866  0.76742928  1
  O  O276  1  0.53043160  0.19161879  0.09830827  1
  O  O277  1  0.53566610  0.20595430  0.44050784  1
  O  O278  1  0.53781744  0.20354014  0.77332896  1
  O  O279  1  0.52890622  0.69994076  0.10534681  1
  O  O280  1  0.52863658  0.69827528  0.43870987  1
  O  O281  1  0.52734990  0.70207408  0.77253504  1
  O  O282  1  0.31181666  0.47573642  0.07282645  1
  O  O283  1  0.30640244  0.46243299  0.39335247  1
  O  O284  1  0.29867027  0.46143459  0.73124767  1
  O  O285  1  0.30185503  0.97213897  0.06586869  1
  O  O286  1  0.30748397  0.96604946  0.40066677  1
  O  O287  1  0.30911560  0.96279484  0.72878877  1
  O  O288  1  0.79259517  0.47565353  0.05877175  1
  O  O289  1  0.79829459  0.47202015  0.39198979  1
  O  O290  1  0.79475745  0.46178713  0.72323369  1
  O  O291  1  0.79858946  0.96289205  0.06280255  1
  O  O292  1  0.79876529  0.96985110  0.39796279  1
  O  O293  1  0.79617175  0.97544015  0.72912753  1
  O  O294  1  0.47473174  0.31518277  0.23666864  1
  O  O295  1  0.46947031  0.29848276  0.55723004  1
  O  O296  1  0.47565281  0.28875742  0.89312782  1
  O  O297  1  0.47069347  0.80232841  0.23474679  1
  O  O298  1  0.46360591  0.79940030  0.56446940  1
  O  O299  1  0.47291601  0.80433210  0.90300957  1
  O  O300  1  0.96797340  0.30430231  0.23284575  1
  O  O301  1  0.95562604  0.30259225  0.55886959  1
  O  O302  1  0.95878877  0.30346790  0.88879066  1
  O  O303  1  0.97626673  0.79721937  0.22839225  1
  O  O304  1  0.97187798  0.79682940  0.55359779  1
  O  O305  1  0.96718225  0.79879042  0.89821401  1
  O  O306  1  0.18513427  0.01926682  0.25686823  1
  O  O307  1  0.19627704  0.02466852  0.59973731  1
  O  O308  1  0.20263561  0.03036024  0.93564175  1
  O  O309  1  0.20178020  0.52900878  0.27103625  1
  O  O310  1  0.18832642  0.53465679  0.60337007  1
  O  O311  1  0.18674142  0.53727209  0.93942397  1
  O  O312  1  0.70888731  0.02346048  0.27393770  1
  O  O313  1  0.71629656  0.02575123  0.60571112  1
  O  O314  1  0.70096384  0.02922391  0.93682945  1
  O  O315  1  0.69862108  0.53587904  0.26925025  1
  O  O316  1  0.70617241  0.54442061  0.60602598  1
  O  O317  1  0.70087572  0.52949811  0.93828217  1
  O  O318  1  0.07912953  0.08549678  0.02500024  1
  O  O319  1  0.08040244  0.10228086  0.37816180  1
  O  O320  1  0.07851384  0.09789551  0.70982484  1
  O  O321  1  0.08521403  0.58391307  0.03828579  1
  O  O322  1  0.08266431  0.57610832  0.36287947  1
  O  O323  1  0.08933715  0.57853653  0.69930708  1
  O  O324  1  0.58610925  0.08083796  0.03626396  1
  O  O325  1  0.59102206  0.09201337  0.38042569  1
  O  O326  1  0.59554568  0.09155295  0.71529504  1
  O  O327  1  0.58042948  0.58732158  0.03666921  1
  O  O328  1  0.58307452  0.58719001  0.37047415  1
  O  O329  1  0.59078967  0.59556856  0.71304191  1
  O  O330  1  0.41651780  0.40935822  0.12866230  1
  O  O331  1  0.41079945  0.39682907  0.45630502  1
  O  O332  1  0.41114990  0.40324850  0.79127468  1
  O  O333  1  0.41040559  0.91935827  0.13787511  1
  O  O334  1  0.41274778  0.91375279  0.47506465  1
  O  O335  1  0.41435105  0.90937898  0.80252436  1
  O  O336  1  0.91341484  0.43637456  0.12597326  1
  O  O337  1  0.91283124  0.42399104  0.46148978  1
  O  O338  1  0.91153732  0.41982415  0.79552504  1
  O  O339  1  0.91149121  0.91151091  0.12985618  1
  O  O340  1  0.91025486  0.91168876  0.45732910  1
  O  O341  1  0.90612383  0.91490519  0.78736528  1
  O  O342  1  0.43221124  0.42374688  0.31719780  1
  O  O343  1  0.41998718  0.41069800  0.62803778  1
  O  O344  1  0.44298958  0.40970508  0.96513273  1
  O  O345  1  0.40792708  0.91036934  0.29352872  1
  O  O346  1  0.40089687  0.90619218  0.62796436  1
  O  O347  1  0.41717810  0.91605906  0.96647902  1
  O  O348  1  0.91135845  0.41537985  0.29271048  1
  O  O349  1  0.91354010  0.42108162  0.62699947  1
  O  O350  1  0.91408516  0.42078752  0.95783388  1
  O  O351  1  0.91761042  0.90734829  0.29057341  1
  O  O352  1  0.92360672  0.91242371  0.62182579  1
  O  O353  1  0.91159808  0.90917081  0.96530236  1
  O  O354  1  0.08116704  0.08569746  0.19946867  1
  O  O355  1  0.08730604  0.08546406  0.54526096  1
  O  O356  1  0.09485818  0.09369780  0.87734759  1
  O  O357  1  0.09238065  0.58138063  0.19941003  1
  O  O358  1  0.08239576  0.58338606  0.52588867  1
  O  O359  1  0.08295473  0.58762042  0.86237265  1
  O  O360  1  0.58866638  0.06595823  0.21067430  1
  O  O361  1  0.60697534  0.08936526  0.55297258  1
  O  O362  1  0.58831045  0.08013683  0.86851820  1
  O  O363  1  0.58154496  0.58216082  0.20220195  1
  O  O364  1  0.59137922  0.59260652  0.53885672  1
  O  O365  1  0.58709044  0.58307878  0.87731324  1
  O  O366  1  0.13642465  0.22085172  0.05934795  1
  O  O367  1  0.13042279  0.23554350  0.39391766  1
  O  O368  1  0.13620796  0.23038493  0.73208099  1
  O  O369  1  0.13808783  0.71820535  0.05922097  1
  O  O370  1  0.14054989  0.70932242  0.38556017  1
  O  O371  1  0.14256247  0.71214794  0.71818852  1
  O  O372  1  0.63915664  0.21429569  0.05405236  1
  O  O373  1  0.63504607  0.22251717  0.38557796  1
  O  O374  1  0.63514011  0.22231848  0.71693335  1
  O  O375  1  0.63690913  0.72077773  0.06011774  1
  O  O376  1  0.63626754  0.72163400  0.39429468  1
  O  O377  1  0.63832122  0.73019299  0.73399522  1
  O  O378  1  0.27968664  0.36250211  0.10705372  1
  O  O379  1  0.27517937  0.35801300  0.43857126  1
  O  O380  1  0.27893190  0.35697237  0.77921517  1
  O  O381  1  0.27468965  0.86250468  0.10646599  1
  O  O382  1  0.27690862  0.85626063  0.43996238  1
  O  O383  1  0.27674997  0.86224563  0.77737793  1
  O  O384  1  0.78605936  0.36823305  0.10791761  1
  O  O385  1  0.78094117  0.36452136  0.43851203  1
  O  O386  1  0.78016477  0.35923013  0.77632093  1
  O  O387  1  0.77819779  0.85769630  0.11082043  1
  O  O388  1  0.77774026  0.86324450  0.44523605  1
  O  O389  1  0.77219498  0.87130779  0.77720271  1
  O  O390  1  0.36259551  0.29193563  0.27635987  1
  O  O391  1  0.36377023  0.27635881  0.60388146  1
  O  O392  1  0.36587469  0.28420510  0.93992985  1
  O  O393  1  0.36096358  0.77529275  0.27548952  1
  O  O394  1  0.35949211  0.76986268  0.61064229  1
  O  O395  1  0.36254974  0.78156079  0.94438033  1
  O  O396  1  0.85811252  0.28236971  0.27638649  1
  O  O397  1  0.85234730  0.29167313  0.61211975  1
  O  O398  1  0.86172016  0.28952866  0.94733117  1
  O  O399  1  0.86453972  0.77343589  0.26736770  1
  O  O400  1  0.86415690  0.78198560  0.60008438  1
  O  O401  1  0.85844006  0.77500673  0.94039808  1
  O  O402  1  0.21814458  0.13418613  0.22511979  1
  O  O403  1  0.21963459  0.13680991  0.56065443  1
  O  O404  1  0.22839449  0.14362358  0.89908019  1
  O  O405  1  0.22802282  0.63634845  0.22756525  1
  O  O406  1  0.21927981  0.63847615  0.55738974  1
  O  O407  1  0.21971032  0.64242765  0.89586421  1
  O  O408  1  0.71637207  0.13197173  0.22628264  1
  O  O409  1  0.73735650  0.13407183  0.56099432  1
  O  O410  1  0.72166307  0.13798570  0.89230418  1
  O  O411  1  0.71256438  0.63776412  0.21494120  1
  O  O412  1  0.72249623  0.64127064  0.54647072  1
  O  O413  1  0.71854713  0.63794946  0.89307538  1
  O  O414  1  0.49794733  0.31746989  0.02801342  1
  O  O415  1  0.49480063  0.32550537  0.36707060  1
  O  O416  1  0.49470210  0.32353384  0.68936720  1
  O  O417  1  0.49137043  0.83624515  0.03583256  1
  O  O418  1  0.48788227  0.83562944  0.36706257  1
  O  O419  1  0.48780939  0.83441214  0.69797062  1
  O  O420  1  0.99697059  0.34667982  0.02565873  1
  O  O421  1  0.98722910  0.34176058  0.36682254  1
  O  O422  1  0.98658060  0.34088360  0.69498120  1
  O  O423  1  0.98916465  0.82909218  0.03109602  1
  O  O424  1  0.99283296  0.82708782  0.35984986  1
  O  O425  1  0.99716266  0.82723378  0.68690027  1
  O  O426  1  0.15692525  0.01022167  0.12639520  1
  O  O427  1  0.15873587  0.00979718  0.46647611  1
  O  O428  1  0.17121643  0.01644780  0.80431159  1
  O  O429  1  0.17665278  0.50617356  0.13785694  1
  O  O430  1  0.17031430  0.50680789  0.47081515  1
  O  O431  1  0.17233678  0.51070317  0.80815100  1
  O  O432  1  0.66992761  0.00064340  0.13851190  1
  O  O433  1  0.67349342  0.00648512  0.47223044  1
  O  O434  1  0.67064966  0.00637127  0.80334549  1
  O  O435  1  0.66040068  0.50487163  0.13358088  1
  O  O436  1  0.66358505  0.50802383  0.46918870  1
  O  O437  1  0.66455398  0.50791216  0.80422705  1
  O  O438  1  0.00364773  0.17711965  0.30355265  1
  O  O439  1  0.00764594  0.17935126  0.63929636  1
  O  O440  1  0.00562412  0.17569810  0.96985000  1
  O  O441  1  0.00911480  0.65970694  0.29743212  1
  O  O442  1  0.01050694  0.65770812  0.63317340  1
  O  O443  1  0.00968162  0.66233711  0.96743234  1
  O  O444  1  0.50290482  0.15588587  0.30394961  1
  O  O445  1  0.50351855  0.15191005  0.63714779  1
  O  O446  1  0.50982198  0.15564016  0.96360970  1
  O  O447  1  0.50586060  0.66824446  0.30556948  1
  O  O448  1  0.51138176  0.67071045  0.64094123  1
  O  O449  1  0.50566146  0.66982641  0.97181050  1
  O  O450  1  0.34412625  0.48593695  0.20428092  1
  O  O451  1  0.33941337  0.48705387  0.52576172  1
  O  O452  1  0.34405298  0.48734865  0.86651814  1
  O  O453  1  0.32402258  0.99263082  0.19805228  1
  O  O454  1  0.32311988  0.98676269  0.53133338  1
  O  O455  1  0.33561726  0.99258280  0.86342004  1
  O  O456  1  0.82823067  0.50104241  0.19365262  1
  O  O457  1  0.82949577  0.49786848  0.52566528  1
  O  O458  1  0.82714907  0.49366647  0.85834462  1
  O  O459  1  0.83230405  0.98882306  0.19775855  1
  O  O460  1  0.83867386  0.99232504  0.53230384  1
  O  O461  1  0.83507765  0.99760689  0.86422877  1
