# generated using pymatgen
data_Na31Fe20(SO4)36
_symmetry_space_group_name_H-M   'P 1'
_cell_length_a   18.09343348
_cell_length_b   18.08896905
_cell_length_c   19.72762400
_cell_angle_alpha   107.56148010
_cell_angle_beta   107.63378892
_cell_angle_gamma   90.67368979
_symmetry_Int_Tables_number   1
_chemical_formula_structural   Na31Fe20(SO4)36
_chemical_formula_sum   'Na62 Fe40 S72 O288'
_cell_volume   5828.58130957
_cell_formula_units_Z   2
loop_
 _symmetry_equiv_pos_site_id
 _symmetry_equiv_pos_as_xyz
  1  'x, y, z'
loop_
 _atom_site_type_symbol
 _atom_site_label
 _atom_site_symmetry_multiplicity
 _atom_site_fract_x
 _atom_site_fract_y
 _atom_site_fract_z
 _atom_site_occupancy
  Na  Na0  1  0.13097302  0.36913576  0.08199038  1
  Na  Na1  1  0.13287539  0.37729921  0.41652368  1
  Na  Na2  1  0.12712353  0.37227224  0.74645927  1
  Na  Na3  1  0.13642442  0.86372429  0.08528677  1
  Na  Na4  1  0.16199774  0.86761980  0.44856750  1
  Na  Na5  1  0.13786715  0.86384877  0.74838352  1
  Na  Na6  1  0.65067151  0.36886961  0.09615443  1
  Na  Na7  1  0.61836303  0.35800399  0.40152303  1
  Na  Na8  1  0.62960023  0.37254436  0.75182258  1
  Na  Na9  1  0.63778140  0.86635906  0.08164171  1
  Na  Na10  1  0.64102904  0.85257209  0.42153350  1
  Na  Na11  1  0.62658889  0.84560729  0.72191605  1
  Na  Na12  1  0.37075243  0.13484271  0.24971982  1
  Na  Na13  1  0.36740534  0.12574647  0.58250252  1
  Na  Na14  1  0.36931605  0.12955425  0.91614959  1
  Na  Na15  1  0.38593928  0.64919531  0.27355875  1
  Na  Na16  1  0.35263183  0.65415050  0.56193169  1
  Na  Na17  1  0.36600821  0.63425056  0.91851271  1
  Na  Na18  1  0.85954144  0.13947955  0.24768052  1
  Na  Na19  1  0.86365962  0.12646718  0.57056255  1
  Na  Na20  1  0.86136060  0.14007117  0.91892967  1
  Na  Na21  1  0.87910369  0.63052477  0.27535128  1
  Na  Na22  1  0.82852148  0.65884065  0.57211554  1
  Na  Na23  1  0.86354485  0.63303481  0.91280405  1
  Na  Na24  1  0.50787516  0.47905232  0.12919264  1
  Na  Na25  1  0.98367742  0.00861903  0.08390485  1
  Na  Na26  1  0.52004424  -0.02111312  0.42347123  1
  Na  Na27  1  1.01712731  -0.03748673  0.46890769  1
  Na  Na28  1  0.49534888  0.04664186  0.08797651  1
  Na  Na29  1  0.99398105  0.51429657  0.10149745  1
  Na  Na30  1  1.00897115  0.50338951  0.36900620  1
  Na  Na31  1  1.01867856  -0.00544145  0.70893067  1
  Na  Na32  1  0.46586004  0.00401333  0.75398227  1
  Na  Na33  1  0.56728020  1.00470316  0.27590921  1
  Na  Na34  1  0.51615096  0.49809846  0.90597590  1
  Na  Na35  1  0.00720807  0.98854679  0.90448128  1
  Na  Na36  1  0.47810827  0.53290424  0.56434845  1
  Na  Na37  1  0.50705942  0.54960566  0.40824846  1
  Na  Na38  1  0.48406996  0.91502182  0.55453878  1
  Na  Na39  1  -0.02393334  0.52715120  0.57032234  1
  Na  Na40  1  -0.00519217  0.99541058  0.26987750  1
  Na  Na41  1  0.00771179  0.49466287  0.90464966  1
  Na  Na42  1  0.76550935  0.75187382  0.34968098  1
  Na  Na43  1  0.25634938  0.73485473  0.37532612  1
  Na  Na44  1  0.72051765  0.23080273  0.33037066  1
  Na  Na45  1  0.24787860  0.76326100  0.64664152  1
  Na  Na46  1  0.75621844  0.75476587  -0.00237649  1
  Na  Na47  1  0.74158379  0.24072494  0.66916051  1
  Na  Na48  1  0.24980633  0.24863088  -0.00503785  1
  Na  Na49  1  0.25001361  0.74882219  0.00191260  1
  Na  Na50  1  0.25365058  0.25411444  0.66345789  1
  Na  Na51  1  0.24861939  0.25175470  0.33098938  1
  Na  Na52  1  0.75966450  0.26421443  0.15919098  1
  Na  Na53  1  0.24428253  0.24959733  0.16438696  1
  Na  Na54  1  0.73907175  0.24222785  0.84605283  1
  Na  Na55  1  0.75448988  0.74212724  0.17715376  1
  Na  Na56  1  0.74267761  0.23901444  0.49918102  1
  Na  Na57  1  0.25086975  0.25575809  0.49784925  1
  Na  Na58  1  0.24911645  0.74389828  0.18148477  1
  Na  Na59  1  0.75302102  0.75567575  0.81311658  1
  Na  Na60  1  0.25630785  0.25819492  0.82952889  1
  Na  Na61  1  0.26054439  0.75897882  0.82805118  1
  Fe  Fe62  1  0.46918909  0.80817646  0.12070494  1
  Fe  Fe63  1  0.46315066  0.30980460  0.78776787  1
  Fe  Fe64  1  0.96641952  0.80937206  0.12204629  1
  Fe  Fe65  1  0.96390379  0.30345283  0.77963402  1
  Fe  Fe66  1  0.46384784  0.31188986  0.45719103  1
  Fe  Fe67  1  0.46435634  0.29917838  0.12685573  1
  Fe  Fe68  1  0.95280125  0.80354211  0.76941478  1
  Fe  Fe69  1  0.96720482  0.30939040  0.44699117  1
  Fe  Fe70  1  0.96125168  0.31199853  0.11818369  1
  Fe  Fe71  1  0.46492454  0.80563598  0.78490210  1
  Fe  Fe72  1  0.18505052  0.54104364  0.71290514  1
  Fe  Fe73  1  0.70146672  0.53342083  0.05023338  1
  Fe  Fe74  1  0.70230754  0.52136700  0.37227813  1
  Fe  Fe75  1  0.68925469  0.03295678  0.70948713  1
  Fe  Fe76  1  0.20217574  0.03055730  0.70882338  1
  Fe  Fe77  1  0.19505202  0.03318553  0.38125327  1
  Fe  Fe78  1  0.19088357  0.03175931  0.04588517  1
  Fe  Fe79  1  0.68760896  0.03852673  0.04111684  1
  Fe  Fe80  1  0.19285592  0.53740727  0.04935193  1
  Fe  Fe81  1  0.68354730  0.53548889  0.70536106  1
  Fe  Fe82  1  0.03391620  0.19113440  0.87676542  1
  Fe  Fe83  1  0.53235422  0.19020478  0.54560912  1
  Fe  Fe84  1  0.03407571  0.19472390  0.54364338  1
  Fe  Fe85  1  0.03739922  0.70157272  0.22922185  1
  Fe  Fe86  1  0.02906284  0.69172003  0.87526904  1
  Fe  Fe87  1  0.03598751  0.19187894  0.21135909  1
  Fe  Fe88  1  0.02741675  0.70279602  0.54425758  1
  Fe  Fe89  1  0.53633158  0.68954625  0.87863947  1
  Fe  Fe90  1  0.54168774  0.69097124  0.21522952  1
  Fe  Fe91  1  0.53836445  0.19406575  0.88193951  1
  Fe  Fe92  1  0.30723594  0.46593856  0.95713570  1
  Fe  Fe93  1  0.30725881  0.96149787  0.95461250  1
  Fe  Fe94  1  0.30260099  0.47323463  0.62024627  1
  Fe  Fe95  1  0.80601832  0.96957427  0.29304857  1
  Fe  Fe96  1  0.80294768  0.96457590  0.94697266  1
  Fe  Fe97  1  0.81109134  0.46390398  0.95072662  1
  Fe  Fe98  1  0.80734971  0.46323326  0.61729189  1
  Fe  Fe99  1  0.80362127  0.96466870  0.61155937  1
  Fe  Fe100  1  0.29664705  0.47160033  0.29350893  1
  Fe  Fe101  1  0.31774083  0.96376062  0.28800890  1
  S  S102  1  0.35384086  0.13847878  0.08140684  1
  S  S103  1  0.35628740  0.14354840  0.41725472  1
  S  S104  1  0.36050801  0.14535272  0.75419780  1
  S  S105  1  0.36160670  0.63988116  0.08512008  1
  S  S106  1  0.37010706  0.63437442  0.41660739  1
  S  S107  1  0.35727045  0.64037889  0.75482611  1
  S  S108  1  0.86028705  0.13901830  0.08088195  1
  S  S109  1  0.86376566  0.14482843  0.40952149  1
  S  S110  1  0.85959919  0.13885564  0.74868029  1
  S  S111  1  0.86659767  0.64048138  0.08368710  1
  S  S112  1  0.86734297  0.62337819  0.42232063  1
  S  S113  1  0.85612517  0.63663155  0.74906797  1
  S  S114  1  0.13604925  0.35775473  0.24390991  1
  S  S115  1  0.13834674  0.36386882  0.58416666  1
  S  S116  1  0.13803522  0.36128000  0.91571762  1
  S  S117  1  0.14141619  0.86197099  0.24898418  1
  S  S118  1  0.13219150  0.86441152  0.58742499  1
  S  S119  1  0.13684960  0.85763548  0.91560002  1
  S  S120  1  0.63327035  0.35663000  0.24531712  1
  S  S121  1  0.64125294  0.35718816  0.58526976  1
  S  S122  1  0.63918946  0.36306059  0.91563494  1
  S  S123  1  0.64610526  0.85341009  0.24557680  1
  S  S124  1  0.64147793  0.86146136  0.58208533  1
  S  S125  1  0.64238997  0.85723958  0.91676093  1
  S  S126  1  0.06404524  0.16327096  0.03638611  1
  S  S127  1  0.07179456  0.17186011  0.37285542  1
  S  S128  1  0.07280135  0.17428448  0.70934251  1
  S  S129  1  0.06710001  0.67086373  0.04093700  1
  S  S130  1  0.07337702  0.67557953  0.38425276  1
  S  S131  1  0.06591244  0.67761995  0.71238908  1
  S  S132  1  0.56627718  0.17481070  0.04235589  1
  S  S133  1  0.55677692  0.16927027  0.38111625  1
  S  S134  1  0.56725432  0.17618592  0.71278230  1
  S  S135  1  0.57208885  0.66688623  0.04219993  1
  S  S136  1  0.58841279  0.66318347  0.36994601  1
  S  S137  1  0.56034787  0.66565941  0.70996591  1
  S  S138  1  0.31993722  0.42624588  0.12351894  1
  S  S139  1  0.32213424  0.43098819  0.45667007  1
  S  S140  1  0.32597154  0.43426119  0.79265186  1
  S  S141  1  0.32971679  0.93091115  0.12279945  1
  S  S142  1  0.33436316  0.93904102  0.44868597  1
  S  S143  1  0.32915402  0.93225144  0.79458070  1
  S  S144  1  0.83833182  0.43960889  0.12254233  1
  S  S145  1  0.82625791  0.42071622  0.45543659  1
  S  S146  1  0.83089349  0.42937144  0.78848067  1
  S  S147  1  0.83422557  0.93629257  0.12401855  1
  S  S148  1  0.82792487  0.93488949  0.45392795  1
  S  S149  1  0.82825296  0.93442760  0.79136472  1
  S  S150  1  0.41608139  0.33074354  0.29203994  1
  S  S151  1  0.42665841  0.33135425  0.62450701  1
  S  S152  1  0.43207429  0.33218390  0.96146884  1
  S  S153  1  0.44244269  0.83077371  0.28680926  1
  S  S154  1  0.42916366  0.83244691  0.63339474  1
  S  S155  1  0.43372325  0.82863924  0.95898361  1
  S  S156  1  0.93610034  0.32717411  0.28182626  1
  S  S157  1  0.93102516  0.32678507  0.61974814  1
  S  S158  1  0.93539896  0.33027600  0.95278706  1
  S  S159  1  0.93638707  0.83509460  0.29297412  1
  S  S160  1  0.93457599  0.83413720  0.63162674  1
  S  S161  1  0.93250566  0.83064002  0.95651323  1
  S  S162  1  0.16761313  0.06561385  0.20621212  1
  S  S163  1  0.17020259  0.07362981  0.54215906  1
  S  S164  1  0.16704692  0.06473609  0.87336336  1
  S  S165  1  0.17310597  0.57237152  0.21096222  1
  S  S166  1  0.16070730  0.57248329  0.54553686  1
  S  S167  1  0.16861460  0.56918829  0.87795091  1
  S  S168  1  0.67149776  0.06272563  0.20361002  1
  S  S169  1  0.67029289  0.06830731  0.54332945  1
  S  S170  1  0.66910978  0.06710672  0.87228573  1
  S  S171  1  0.68190809  0.56883773  0.21163974  1
  S  S172  1  0.66435989  0.55229700  0.53524018  1
  S  S173  1  0.67558171  0.56846167  0.87760331  1
  O  O174  1  0.36251853  0.21734980  0.07261178  1
  O  O175  1  0.36393797  0.22460188  0.41352249  1
  O  O176  1  0.36553517  0.22904185  0.75410285  1
  O  O177  1  0.37142108  0.71765757  0.07483466  1
  O  O178  1  0.38907169  0.70470566  0.40015628  1
  O  O179  1  0.36455293  0.72198059  0.75327237  1
  O  O180  1  0.87219721  0.21727525  0.07360430  1
  O  O181  1  0.88066240  0.21970193  0.39547571  1
  O  O182  1  0.86822099  0.21679290  0.73767762  1
  O  O183  1  0.87367600  0.71872952  0.07289509  1
  O  O184  1  0.86650435  0.69699338  0.40636707  1
  O  O185  1  0.86224025  0.71944421  0.75091905  1
  O  O186  1  0.27204396  0.12949347  0.08456445  1
  O  O187  1  0.27686632  0.13360504  0.42461399  1
  O  O188  1  0.28263693  0.13339622  0.76433065  1
  O  O189  1  0.28155505  0.63258771  0.09207504  1
  O  O190  1  0.29321864  0.63348856  0.42723468  1
  O  O191  1  0.27958572  0.62929977  0.76620433  1
  O  O192  1  0.78193360  0.13103038  0.08962761  1
  O  O193  1  0.78497268  0.14321328  0.41475320  1
  O  O194  1  0.78090538  0.13186154  0.75794177  1
  O  O195  1  0.78721066  0.63120622  0.09018543  1
  O  O196  1  0.78940673  0.60568924  0.43245959  1
  O  O197  1  0.77821075  0.62255808  0.75801795  1
  O  O198  1  0.13549887  0.27415881  0.24372664  1
  O  O199  1  0.13045440  0.28520368  0.59363998  1
  O  O200  1  0.12858751  0.28213379  0.92345365  1
  O  O201  1  0.13477247  0.78269617  0.25641562  1
  O  O202  1  0.11534789  0.78770701  0.60247866  1
  O  O203  1  0.12786192  0.77873610  0.92363363  1
  O  O204  1  0.61811512  0.28452292  0.26025401  1
  O  O205  1  0.62854880  0.27927760  0.59480705  1
  O  O206  1  0.63043767  0.28225895  0.91796651  1
  O  O207  1  0.64065788  0.77007095  0.24408758  1
  O  O208  1  0.63322665  0.79008145  0.59893453  1
  O  O209  1  0.63300835  0.78022813  0.92951856  1
  O  O210  1  0.21625462  0.37472478  0.23813527  1
  O  O211  1  0.21854569  0.37346655  0.57865305  1
  O  O212  1  0.21833964  0.36995473  0.91036779  1
  O  O213  1  0.21886544  0.87254136  0.23843054  1
  O  O214  1  0.21141833  0.86578943  0.58379803  1
  O  O215  1  0.21636022  0.86637924  0.90836982  1
  O  O216  1  0.70556945  0.36115213  0.22741091  1
  O  O217  1  0.72146726  0.36201669  0.57954296  1
  O  O218  1  0.71486118  0.37263081  0.90176367  1
  O  O219  1  0.72517429  0.86741697  0.23880638  1
  O  O220  1  0.72205861  0.87507991  0.57760589  1
  O  O221  1  0.72339897  0.86427829  0.91113142  1
  O  O222  1  0.41052544  0.12967986  0.14794681  1
  O  O223  1  0.41479035  0.13370380  0.48437829  1
  O  O224  1  0.42134537  0.13611236  0.82136805  1
  O  O225  1  0.42012847  0.63107879  0.15239519  1
  O  O226  1  0.42924729  0.61624740  0.47782125  1
  O  O227  1  0.41797170  0.62905637  0.82038955  1
  O  O228  1  0.91991974  0.12730883  0.14750721  1
  O  O229  1  0.92108542  0.13955165  0.48044100  1
  O  O230  1  0.91861348  0.13520728  0.81883929  1
  O  O231  1  0.92614228  0.63426242  0.15190653  1
  O  O232  1  0.92526544  0.63131745  0.50015693  1
  O  O233  1  0.91704863  0.62551521  0.81519220  1
  O  O234  1  0.36241273  0.07975782  0.01276990  1
  O  O235  1  0.36304873  0.08768416  0.34737082  1
  O  O236  1  0.36901337  0.09225475  0.68609312  1
  O  O237  1  0.36678677  0.57953339  0.01625039  1
  O  O238  1  0.36841742  0.56674512  0.34329638  1
  O  O239  1  0.36088499  0.58529588  0.68344785  1
  O  O240  1  0.86753829  0.07904800  0.01246398  1
  O  O241  1  0.87337746  0.08108961  0.34470683  1
  O  O242  1  0.86973954  0.07833406  0.68324552  1
  O  O243  1  0.87626171  0.58054627  0.01650530  1
  O  O244  1  0.88671960  0.56058155  0.36626183  1
  O  O245  1  0.86348569  0.58439461  0.67798077  1
  O  O246  1  0.07918959  0.36314242  0.17318875  1
  O  O247  1  0.08105551  0.36886203  0.51421030  1
  O  O248  1  0.08058972  0.36981206  0.84702875  1
  O  O249  1  0.08086727  0.86840173  0.18004497  1
  O  O250  1  0.07467233  0.87045568  0.51998779  1
  O  O251  1  0.07758484  0.86825923  0.84956219  1
  O  O252  1  0.56844159  0.36936200  0.18122018  1
  O  O253  1  0.58398135  0.36558189  0.51689091  1
  O  O254  1  0.57592151  0.37687112  0.85205444  1
  O  O255  1  0.58721714  0.86339641  0.17707405  1
  O  O256  1  0.58441845  0.86787761  0.51308363  1
  O  O257  1  0.58540569  0.86119675  0.84723794  1
  O  O258  1  0.12334530  0.40923708  0.31037488  1
  O  O259  1  0.12858411  0.42319723  0.65082210  1
  O  O260  1  0.12801743  0.42070181  0.98245311  1
  O  O261  1  0.13077524  0.92110559  0.31520285  1
  O  O262  1  0.12573802  0.92708902  0.65594688  1
  O  O263  1  0.13036623  0.91664990  0.98493388  1
  O  O264  1  0.63279062  0.42285994  0.31440961  1
  O  O265  1  0.63447577  0.41725523  0.65341994  1
  O  O266  1  0.63523661  0.41922129  0.98675588  1
  O  O267  1  0.63411485  0.90592114  0.31280991  1
  O  O268  1  0.62938059  0.92802750  0.64709609  1
  O  O269  1  0.63605675  0.91889884  0.98359742  1
  O  O270  1  0.02953719  0.19291591  0.09763947  1
  O  O271  1  0.04078587  0.20533541  0.43656214  1
  O  O272  1  0.03337025  0.20190129  0.76912721  1
  O  O273  1  0.03395757  0.70126238  0.10315920  1
  O  O274  1  0.03762454  0.69711935  0.44704583  1
  O  O275  1  0.02496731  0.70578997  0.77067453  1
  O  O276  1  0.52460877  0.19790095  0.09829885  1
  O  O277  1  0.52316623  0.20995984  0.44473780  1
  O  O278  1  0.52788442  0.20679179  0.77219777  1
  O  O279  1  0.53223884  0.69281325  0.10022228  1
  O  O280  1  0.56061985  0.68384759  0.43365840  1
  O  O281  1  0.52878649  0.69800905  0.77593608  1
  O  O282  1  0.29402127  0.46828959  0.06563083  1
  O  O283  1  0.29347439  0.46055896  0.39212431  1
  O  O284  1  0.29794173  0.46971685  0.73155140  1
  O  O285  1  0.29751636  0.96829262  0.06193958  1
  O  O286  1  0.29377524  0.97310568  0.38475974  1
  O  O287  1  0.30378266  0.97268072  0.73793050  1
  O  O288  1  0.80035914  0.46633127  0.05338445  1
  O  O289  1  0.78947324  0.44867630  0.39124022  1
  O  O290  1  0.80365215  0.46582678  0.72836756  1
  O  O291  1  0.80581362  0.97003702  0.06117445  1
  O  O292  1  0.80354465  0.97605181  0.39662560  1
  O  O293  1  0.79963977  0.97031137  0.73089260  1
  O  O294  1  0.44757670  0.30781545  0.22959321  1
  O  O295  1  0.46569589  0.30158374  0.56563875  1
  O  O296  1  0.47102139  0.30472609  0.90240532  1
  O  O297  1  0.47512979  0.79541917  0.22201784  1
  O  O298  1  0.45439055  0.79657726  0.56869873  1
  O  O299  1  0.46946139  0.80070547  0.89784683  1
  O  O300  1  0.97571596  0.29030049  0.22248784  1
  O  O301  1  0.96917370  0.29932883  0.55974512  1
  O  O302  1  0.97076913  0.29903668  0.89093303  1
  O  O303  1  0.96795137  0.79974290  0.22690368  1
  O  O304  1  0.95765688  0.79209051  0.56562232  1
  O  O305  1  0.96888580  0.80063957  0.89629605  1
  O  O306  1  0.19774951  0.03266917  0.26833910  1
  O  O307  1  0.19604918  0.04251771  0.60503082  1
  O  O308  1  0.19391617  0.02715313  0.93373033  1
  O  O309  1  0.20099818  0.53162589  0.26747051  1
  O  O310  1  0.19471308  0.53819621  0.60960669  1
  O  O311  1  0.19834678  0.52989792  0.93717261  1
  O  O312  1  0.70449349  0.02539299  0.26232478  1
  O  O313  1  0.70758069  0.04180717  0.61082337  1
  O  O314  1  0.69892105  0.03039822  0.93409213  1
  O  O315  1  0.70873199  0.53423072  0.27267679  1
  O  O316  1  0.70321263  0.51840713  0.59860941  1
  O  O317  1  0.70724178  0.53198195  0.93875473  1
  O  O318  1  0.07940514  0.07979612  0.03000597  1
  O  O319  1  0.09153828  0.09117501  0.37004024  1
  O  O320  1  0.09789774  0.09662806  0.70954929  1
  O  O321  1  0.08148659  0.58715277  0.03235182  1
  O  O322  1  0.09263170  0.59596484  0.37001056  1
  O  O323  1  0.07806790  0.59424893  0.70253515  1
  O  O324  1  0.58619006  0.09333267  0.03718020  1
  O  O325  1  0.57257111  0.09155831  0.38796582  1
  O  O326  1  0.58834422  0.09761156  0.71253444  1
  O  O327  1  0.59236264  0.58536091  0.03453854  1
  O  O328  1  0.60916895  0.57905613  0.35687724  1
  O  O329  1  0.58101476  0.58456259  0.70709422  1
  O  O330  1  0.39991824  0.40608986  0.12767456  1
  O  O331  1  0.40484295  0.41317731  0.46826246  1
  O  O332  1  0.40781502  0.41544988  0.80119808  1
  O  O333  1  0.40975398  0.91269727  0.12495246  1
  O  O334  1  0.41230009  0.92511810  0.44196807  1
  O  O335  1  0.41034269  0.91320350  0.80224472  1
  O  O336  1  0.91665709  0.41638538  0.11574977  1
  O  O337  1  0.90918925  0.40826008  0.45898307  1
  O  O338  1  0.91227849  0.40884695  0.79504477  1
  O  O339  1  0.91852232  0.92147921  0.13221511  1
  O  O340  1  0.90493696  0.90955123  0.45928491  1
  O  O341  1  0.90933703  0.91284414  0.79574409  1
  O  O342  1  0.39205836  0.41153294  0.30263712  1
  O  O343  1  0.40191897  0.40888311  0.62421032  1
  O  O344  1  0.41234903  0.41346512  0.96579096  1
  O  O345  1  0.42233887  0.91122203  0.28557572  1
  O  O346  1  0.41549914  0.91460190  0.64010309  1
  O  O347  1  0.41488696  0.91012558  0.96826013  1
  O  O348  1  0.92057546  0.40448746  0.27836492  1
  O  O349  1  0.91073046  0.40690023  0.62473120  1
  O  O350  1  0.92373441  0.41422063  0.96054778  1
  O  O351  1  0.90586772  0.90974266  0.28360208  1
  O  O352  1  0.90859767  0.90988739  0.62471410  1
  O  O353  1  0.91563909  0.91312426  0.96141150  1
  O  O354  1  0.08477103  0.08269371  0.19945881  1
  O  O355  1  0.08715671  0.09180084  0.53025927  1
  O  O356  1  0.08384289  0.08107323  0.86559526  1
  O  O357  1  0.09433376  0.59703490  0.20958978  1
  O  O358  1  0.08541441  0.60402614  0.55429927  1
  O  O359  1  0.08801550  0.58768279  0.87607982  1
  O  O360  1  0.59018177  0.07468151  0.20085037  1
  O  O361  1  0.59228929  0.09303769  0.54768033  1
  O  O362  1  0.58780808  0.08553720  0.86674077  1
  O  O363  1  0.59943552  0.58742737  0.19945252  1
  O  O364  1  0.58071382  0.54772876  0.52596624  1
  O  O365  1  0.59439704  0.58504436  0.87535476  1
  O  O366  1  0.13595240  0.21305730  0.05055741  1
  O  O367  1  0.14082869  0.22364528  0.38266800  1
  O  O368  1  0.14053454  0.23147154  0.72654081  1
  O  O369  1  0.14057766  0.71957438  0.05618618  1
  O  O370  1  0.14021162  0.73336500  0.40202347  1
  O  O371  1  0.14013789  0.72711188  0.73564276  1
  O  O372  1  0.63646209  0.22831267  0.06041035  1
  O  O373  1  0.63003196  0.21906335  0.39619259  1
  O  O374  1  0.63755144  0.23113650  0.73109182  1
  O  O375  1  0.64246940  0.72101922  0.06047081  1
  O  O376  1  0.65496236  0.71456230  0.37541448  1
  O  O377  1  0.63115589  0.71669066  0.72457605  1
  O  O378  1  0.26483228  0.35491159  0.10031989  1
  O  O379  1  0.27027108  0.36028852  0.44345221  1
  O  O380  1  0.27273886  0.36306640  0.77537836  1
  O  O381  1  0.27696891  0.86004736  0.10647654  1
  O  O382  1  0.28572632  0.86648894  0.43394698  1
  O  O383  1  0.27504727  0.86084103  0.77505326  1
  O  O384  1  0.78902754  0.37091884  0.11536430  1
  O  O385  1  0.78056028  0.34892933  0.44843752  1
  O  O386  1  0.77735485  0.36009650  0.77421655  1
  O  O387  1  0.78562281  0.86260544  0.10710959  1
  O  O388  1  0.76968678  0.86850572  0.43655559  1
  O  O389  1  0.77533600  0.86703589  0.78086229  1
  O  O390  1  0.34771902  0.27457793  0.27749018  1
  O  O391  1  0.35867029  0.27442659  0.60938901  1
  O  O392  1  0.36050601  0.27843478  0.94203976  1
  O  O393  1  0.37120061  0.78020744  0.27260558  1
  O  O394  1  0.36103918  0.78524072  0.63259056  1
  O  O395  1  0.36225335  0.77562082  0.94212997  1
  O  O396  1  0.86562093  0.27425485  0.26520896  1
  O  O397  1  0.86224443  0.27161440  0.60385165  1
  O  O398  1  0.86170432  0.28265756  0.93561673  1
  O  O399  1  0.87171038  0.77923435  0.28492189  1
  O  O400  1  0.87536044  0.78605615  0.64285700  1
  O  O401  1  0.86058368  0.77948833  0.94016388  1
  O  O402  1  0.21800555  0.13643522  0.21849877  1
  O  O403  1  0.22181554  0.14426775  0.55503168  1
  O  O404  1  0.21814908  0.13722779  0.89204255  1
  O  O405  1  0.22965126  0.63970541  0.22630525  1
  O  O406  1  0.21661013  0.63687204  0.55491689  1
  O  O407  1  0.22151658  0.64021861  0.89599159  1
  O  O408  1  0.71980867  0.13665559  0.21945369  1
  O  O409  1  0.72240673  0.13700325  0.55145398  1
  O  O410  1  0.72186628  0.13764034  0.88947011  1
  O  O411  1  0.73549573  0.63877006  0.22727142  1
  O  O412  1  0.70253111  0.62998653  0.55386650  1
  O  O413  1  0.72618856  0.64088854  0.89454086  1
  O  O414  1  0.48846710  0.33588132  0.03547064  1
  O  O415  1  0.47854456  0.33276774  0.36287613  1
  O  O416  1  0.48576387  0.33799090  0.69874984  1
  O  O417  1  0.49348702  0.82690711  0.02996463  1
  O  O418  1  0.50432142  0.83731193  0.35626250  1
  O  O419  1  0.49498333  0.83580689  0.70583950  1
  O  O420  1  0.99336938  0.32695919  0.02369142  1
  O  O421  1  0.99423618  0.33110639  0.35635758  1
  O  O422  1  0.99082250  0.32924265  0.69264895  1
  O  O423  1  0.99075155  0.83412010  0.03024008  1
  O  O424  1  1.00209998  0.85297108  0.36210389  1
  O  O425  1  1.00385733  0.85406343  0.70304810  1
  O  O426  1  0.16401398  0.00471209  0.13370278  1
  O  O427  1  0.16927742  0.01076007  0.47154695  1
  O  O428  1  0.16678272  0.00758757  0.80101123  1
  O  O429  1  0.16156678  0.51359473  0.13411971  1
  O  O430  1  0.14171928  0.50845919  0.47493520  1
  O  O431  1  0.16513265  0.51255029  0.80397100  1
  O  O432  1  0.67055775  0.00702342  0.12860856  1
  O  O433  1  0.65862283  0.00304056  0.47492446  1
  O  O434  1  0.66806974  0.00689119  0.80138255  1
  O  O435  1  0.68039082  0.50793721  0.13936496  1
  O  O436  1  0.67399010  0.49850385  0.46336643  1
  O  O437  1  0.67430830  0.51082489  0.80527495  1
  O  O438  1  0.00907243  0.16434126  0.30056502  1
  O  O439  1  0.01332109  0.16831627  0.63626289  1
  O  O440  1  0.00490825  0.16110481  0.96372232  1
  O  O441  1  0.00977163  0.68176193  0.31567694  1
  O  O442  1  0.01008269  0.68379714  0.64176897  1
  O  O443  1  0.00749387  0.67101159  0.96906095  1
  O  O444  1  0.49989766  0.16405347  0.30913462  1
  O  O445  1  0.50893815  0.17333340  0.63992333  1
  O  O446  1  0.50938642  0.17114727  0.96732775  1
  O  O447  1  0.52149565  0.65950123  0.29926859  1
  O  O448  1  0.49725636  0.66080022  0.64159563  1
  O  O449  1  0.51316088  0.66422254  0.96854649  1
  O  O450  1  0.31876059  0.48132263  0.19617356  1
  O  O451  1  0.32172908  0.49405139  0.52624095  1
  O  O452  1  0.32667818  0.49280670  0.86504422  1
  O  O453  1  0.33087194  0.99027699  0.19465499  1
  O  O454  1  0.33895519  0.99713556  0.51992267  1
  O  O455  1  0.32914217  0.98849343  0.86867191  1
  O  O456  1  0.84964286  0.50583357  0.18925557  1
  O  O457  1  0.83363511  0.48446764  0.52800480  1
  O  O458  1  0.83634446  0.48972926  0.86237889  1
  O  O459  1  0.83412111  0.99490587  0.19521763  1
  O  O460  1  0.83023146  0.99498536  0.52771175  1
  O  O461  1  0.83719008  0.99642703  0.86538527  1
