# generated using pymatgen
data_Na31Fe20(SO4)36
_symmetry_space_group_name_H-M   'P 1'
_cell_length_a   18.06425367
_cell_length_b   18.06641436
_cell_length_c   19.69283188
_cell_angle_alpha   107.58436192
_cell_angle_beta   107.57092800
_cell_angle_gamma   90.71603252
_symmetry_Int_Tables_number   1
_chemical_formula_structural   Na31Fe20(SO4)36
_chemical_formula_sum   'Na62 Fe40 S72 O288'
_cell_volume   5802.58177411
_cell_formula_units_Z   2
loop_
 _symmetry_equiv_pos_site_id
 _symmetry_equiv_pos_as_xyz
  1  'x, y, z'
loop_
 _atom_site_type_symbol
 _atom_site_label
 _atom_site_symmetry_multiplicity
 _atom_site_fract_x
 _atom_site_fract_y
 _atom_site_fract_z
 _atom_site_occupancy
  Na  Na0  1  0.13902229  0.36212209  0.08580748  1
  Na  Na1  1  0.13843820  0.36262551  0.41324935  1
  Na  Na2  1  0.13264676  0.35933878  0.74991681  1
  Na  Na3  1  0.13626902  0.86255033  0.08250750  1
  Na  Na4  1  0.11740272  0.85696906  0.40132988  1
  Na  Na5  1  0.13935251  0.86574736  0.75556566  1
  Na  Na6  1  0.63277725  0.37048416  0.09177752  1
  Na  Na7  1  0.63864436  0.36551563  0.41977198  1
  Na  Na8  1  0.63503760  0.36152259  0.74489839  1
  Na  Na9  1  0.63286810  0.87670563  0.09068112  1
  Na  Na10  1  0.62386083  0.85375119  0.39787079  1
  Na  Na11  1  0.65227364  0.87121319  0.76336916  1
  Na  Na12  1  0.35827412  0.12678176  0.23667910  1
  Na  Na13  1  0.36760062  0.12699210  0.58011385  1
  Na  Na14  1  0.38055775  0.13853257  0.93362265  1
  Na  Na15  1  0.36922129  0.63618896  0.24829192  1
  Na  Na16  1  0.37312472  0.63317073  0.58774645  1
  Na  Na17  1  0.36039833  0.63304543  0.90904582  1
  Na  Na18  1  0.85914650  0.13426607  0.24487503  1
  Na  Na19  1  0.87087562  0.14780250  0.60054336  1
  Na  Na20  1  0.85935709  0.12821694  0.90180793  1
  Na  Na21  1  0.85821991  0.63313956  0.24778809  1
  Na  Na22  1  0.86444032  0.63808555  0.58595281  1
  Na  Na23  1  0.85928320  0.63685162  0.91165996  1
  Na  Na24  1  0.95551736  0.51114881  0.40350385  1
  Na  Na25  1  0.99011231  0.50024234  0.75038658  1
  Na  Na26  1  0.98896912  0.53945303  0.09103573  1
  Na  Na27  1  0.99329693  0.02571665  0.73339815  1
  Na  Na28  1  0.50925643  -0.00342109  0.76295443  1
  Na  Na29  1  0.48687693  0.53245602  0.08883033  1
  Na  Na30  1  0.49282695  0.50312287  0.42283426  1
  Na  Na31  1  0.49973076  0.01688998  0.40439934  1
  Na  Na32  1  1.00711773  -0.00622672  0.09194539  1
  Na  Na33  1  0.01079079  0.48953397  0.58251948  1
  Na  Na34  1  0.00649056  0.45197090  0.90503806  1
  Na  Na35  1  -0.04347511  1.01196799  0.30738244  1
  Na  Na36  1  0.51740649  0.47648836  0.23916397  1
  Na  Na37  1  0.51288963  0.49457002  0.90507054  1
  Na  Na38  1  -0.01047961  0.51018384  0.24760855  1
  Na  Na39  1  0.52401666  0.99574915  0.21938212  1
  Na  Na40  1  0.55810069  0.99737174  0.59874443  1
  Na  Na41  1  0.04250218  0.99599220  0.92343501  1
  Na  Na42  1  0.25328250  0.24381973  0.01210733  1
  Na  Na43  1  0.75587394  0.75977866  -0.00954108  1
  Na  Na44  1  0.75463497  0.26235540  0.33260865  1
  Na  Na45  1  0.74447173  0.74327214  0.67986589  1
  Na  Na46  1  0.24897906  0.24614097  0.66327446  1
  Na  Na47  1  0.24227727  0.74357322  0.33263439  1
  Na  Na48  1  0.75241476  0.25380633  -0.00588593  1
  Na  Na49  1  0.25910338  0.75876239  -0.01496023  1
  Na  Na50  1  0.24330240  0.74193271  0.67953829  1
  Na  Na51  1  0.74717205  0.75615241  0.32352501  1
  Na  Na52  1  0.24519977  0.75229826  0.16408810  1
  Na  Na53  1  0.24394873  0.74517780  0.50158662  1
  Na  Na54  1  0.74901390  0.75578379  0.49648081  1
  Na  Na55  1  0.76027875  0.26398839  0.16540345  1
  Na  Na56  1  0.76477114  0.25369286  0.80864687  1
  Na  Na57  1  0.75269725  0.76553107  0.16251682  1
  Na  Na58  1  0.25181229  0.24259418  0.84156167  1
  Na  Na59  1  0.26066091  0.25668572  0.48538704  1
  Na  Na60  1  0.24104516  0.23284585  0.17795780  1
  Na  Na61  1  0.74785385  0.24240669  0.51310054  1
  Fe  Fe62  1  0.46384976  0.30807802  0.45086289  1
  Fe  Fe63  1  0.96157016  0.81541367  0.45738210  1
  Fe  Fe64  1  0.46296860  0.30810931  0.78417129  1
  Fe  Fe65  1  0.96606691  0.80651228  0.78873665  1
  Fe  Fe66  1  0.96633612  0.80155344  0.12749528  1
  Fe  Fe67  1  0.46507633  0.79758826  0.12106124  1
  Fe  Fe68  1  0.96530879  0.31086384  0.12100293  1
  Fe  Fe69  1  0.96530576  0.30955043  0.45080424  1
  Fe  Fe70  1  0.46801292  0.80264546  0.45385922  1
  Fe  Fe71  1  0.46406290  0.81143672  0.79193097  1
  Fe  Fe72  1  0.19128705  0.03246126  0.70886373  1
  Fe  Fe73  1  0.18932767  0.03611770  0.38029215  1
  Fe  Fe74  1  0.19518691  0.53543765  0.71684004  1
  Fe  Fe75  1  0.68955461  0.53556716  0.71363979  1
  Fe  Fe76  1  0.18923790  0.53493051  0.04869815  1
  Fe  Fe77  1  0.69747120  0.53262234  0.37666868  1
  Fe  Fe78  1  0.69930994  0.03356905  0.37581432  1
  Fe  Fe79  1  0.69303581  0.03555905  0.04541121  1
  Fe  Fe80  1  0.69215245  0.53445506  0.05101421  1
  Fe  Fe81  1  0.19107564  0.53328692  0.37938589  1
  Fe  Fe82  1  0.03344902  0.69293381  0.54854877  1
  Fe  Fe83  1  0.03281004  0.20065994  0.87958880  1
  Fe  Fe84  1  0.53736089  0.68962493  0.54934357  1
  Fe  Fe85  1  0.03885106  0.19143184  0.21405084  1
  Fe  Fe86  1  0.53536394  0.19575260  0.88245880  1
  Fe  Fe87  1  0.03474464  0.69093271  0.88269646  1
  Fe  Fe88  1  0.53590122  0.69221124  0.87881635  1
  Fe  Fe89  1  0.52951812  0.20227027  0.20347484  1
  Fe  Fe90  1  0.53670720  0.19423235  0.55043484  1
  Fe  Fe91  1  0.03342714  0.19285029  0.54613719  1
  Fe  Fe92  1  0.80613002  0.46718329  0.95004114  1
  Fe  Fe93  1  0.80012860  0.97053780  0.62619687  1
  Fe  Fe94  1  0.30835791  0.96339566  0.62044097  1
  Fe  Fe95  1  0.80860298  0.96531182  0.95272310  1
  Fe  Fe96  1  0.30326248  0.96593465  0.28619531  1
  Fe  Fe97  1  0.30857829  0.46311848  0.95270679  1
  Fe  Fe98  1  0.30854097  0.46279134  0.28164939  1
  Fe  Fe99  1  0.30400814  0.96455930  0.95662007  1
  Fe  Fe100  1  0.80778636  0.46209408  0.61821575  1
  Fe  Fe101  1  0.31036925  0.46589285  0.61771427  1
  S  S102  1  0.36270943  0.13917484  0.08178057  1
  S  S103  1  0.36290700  0.13832488  0.41746376  1
  S  S104  1  0.35968638  0.13920910  0.75122661  1
  S  S105  1  0.35138499  0.63936446  0.07746753  1
  S  S106  1  0.36028301  0.63755100  0.41852220  1
  S  S107  1  0.36052709  0.63929133  0.74896173  1
  S  S108  1  0.86131337  0.14195742  0.08392412  1
  S  S109  1  0.85997401  0.14736180  0.41852355  1
  S  S110  1  0.86536288  0.13925199  0.75172320  1
  S  S111  1  0.85342540  0.64074136  0.08289330  1
  S  S112  1  0.85784569  0.64630890  0.42019989  1
  S  S113  1  0.86166807  0.63790033  0.74841324  1
  S  S114  1  0.14310179  0.35866566  0.24813363  1
  S  S115  1  0.14251628  0.36047988  0.58147834  1
  S  S116  1  0.14500555  0.35796308  0.91991026  1
  S  S117  1  0.13838795  0.86066709  0.25122804  1
  S  S118  1  0.14170132  0.85639040  0.58303964  1
  S  S119  1  0.13890783  0.85625248  0.91764496  1
  S  S120  1  0.64271124  0.35898360  0.25591949  1
  S  S121  1  0.63877736  0.35961313  0.58174790  1
  S  S122  1  0.64110786  0.36151372  0.91285836  1
  S  S123  1  0.63413526  0.86384344  0.24816014  1
  S  S124  1  0.64180282  0.85455651  0.58551615  1
  S  S125  1  0.63970553  0.86140079  0.91738786  1
  S  S126  1  0.06214691  0.17023817  0.04366340  1
  S  S127  1  0.06609446  0.17219833  0.37743319  1
  S  S128  1  0.07489879  0.17072640  0.70889771  1
  S  S129  1  0.06096057  0.66521987  0.03965747  1
  S  S130  1  0.06187503  0.66237666  0.37688090  1
  S  S131  1  0.06741869  0.66635666  0.70840010  1
  S  S132  1  0.57782600  0.17787617  0.04547557  1
  S  S133  1  0.56837323  0.17380907  0.37169119  1
  S  S134  1  0.56091306  0.16852257  0.71232309  1
  S  S135  1  0.56411112  0.66775849  0.03845609  1
  S  S136  1  0.56228959  0.66147501  0.37592938  1
  S  S137  1  0.57159159  0.67607058  0.71254633  1
  S  S138  1  0.33389837  0.44114091  0.12276671  1
  S  S139  1  0.33068907  0.43331274  0.45567708  1
  S  S140  1  0.32713937  0.43170863  0.78758927  1
  S  S141  1  0.32983876  0.92443795  0.12492726  1
  S  S142  1  0.32919845  0.92711444  0.45788903  1
  S  S143  1  0.32901166  0.93383331  0.79025242  1
  S  S144  1  0.83238432  0.43722994  0.12366050  1
  S  S145  1  0.83381294  0.43902556  0.46056825  1
  S  S146  1  0.82935948  0.43815104  0.78872235  1
  S  S147  1  0.83447330  0.93557107  0.12369063  1
  S  S148  1  0.81961984  0.93072986  0.46010660  1
  S  S149  1  0.84139654  0.93040015  0.79592434  1
  S  S150  1  0.43311247  0.32999864  0.29035876  1
  S  S151  1  0.42938292  0.32587664  0.62034244  1
  S  S152  1  0.43914910  0.33820668  0.95729383  1
  S  S153  1  0.42359480  0.82861445  0.29236287  1
  S  S154  1  0.43364561  0.82866840  0.62555004  1
  S  S155  1  0.42745708  0.82361673  0.95456012  1
  S  S156  1  0.94154310  0.33271307  0.29018238  1
  S  S157  1  0.94039046  0.33756566  0.62447127  1
  S  S158  1  0.93425286  0.33433796  0.96042150  1
  S  S159  1  0.92233025  0.82430193  0.29021196  1
  S  S160  1  0.93332860  0.83057014  0.62592857  1
  S  S161  1  0.93273155  0.82760883  0.96047697  1
  S  S162  1  0.16745121  0.06284067  0.20966246  1
  S  S163  1  0.17217900  0.06811571  0.54234243  1
  S  S164  1  0.17131419  0.06805474  0.87425202  1
  S  S165  1  0.16662905  0.56096719  0.21004240  1
  S  S166  1  0.16832656  0.56509737  0.54254911  1
  S  S167  1  0.16533645  0.56171828  0.87353707  1
  S  S168  1  0.66968029  0.08177765  0.20873315  1
  S  S169  1  0.66820706  0.06691120  0.53682652  1
  S  S170  1  0.67060645  0.06779936  0.87785198  1
  S  S171  1  0.66468734  0.56386987  0.21020444  1
  S  S172  1  0.67428887  0.56686107  0.54416259  1
  S  S173  1  0.66860733  0.56617239  0.87575003  1
  O  O174  1  0.37483100  0.21068205  0.06418281  1
  O  O175  1  0.37012894  0.21883048  0.41366028  1
  O  O176  1  0.36601837  0.21796763  0.74160585  1
  O  O177  1  0.36347112  0.71800068  0.06940879  1
  O  O178  1  0.36903399  0.71725603  0.41207018  1
  O  O179  1  0.37026108  0.71814703  0.74068859  1
  O  O180  1  0.86802025  0.22307027  0.07892472  1
  O  O181  1  0.86683643  0.22901455  0.41329967  1
  O  O182  1  0.87508972  0.21506415  0.74180929  1
  O  O183  1  0.86373854  0.72143818  0.07805832  1
  O  O184  1  0.86473598  0.72891069  0.42024658  1
  O  O185  1  0.87407935  0.71481771  0.73689470  1
  O  O186  1  0.29023823  0.13449932  0.09996229  1
  O  O187  1  0.28607206  0.12657776  0.42894848  1
  O  O188  1  0.28024004  0.12867198  0.75771980  1
  O  O189  1  0.26992463  0.63364588  0.08209029  1
  O  O190  1  0.28076531  0.62882692  0.42623558  1
  O  O191  1  0.28176071  0.63018432  0.75764015  1
  O  O192  1  0.78449295  0.13253588  0.09621385  1
  O  O193  1  0.77967297  0.13556160  0.42347031  1
  O  O194  1  0.79256806  0.12620966  0.76694031  1
  O  O195  1  0.77231662  0.63285424  0.08755858  1
  O  O196  1  0.77927153  0.63362971  0.42861377  1
  O  O197  1  0.78202328  0.63168962  0.75382644  1
  O  O198  1  0.13539316  0.27878298  0.25343203  1
  O  O199  1  0.13280345  0.28113394  0.58802711  1
  O  O200  1  0.13594767  0.27931112  0.92971184  1
  O  O201  1  0.13402290  0.78627834  0.26550253  1
  O  O202  1  0.13384344  0.77697581  0.59179968  1
  O  O203  1  0.12936557  0.77497977  0.92238174  1
  O  O204  1  0.62148515  0.28073982  0.26556061  1
  O  O205  1  0.63001566  0.27983844  0.58809795  1
  O  O206  1  0.63189061  0.28164982  0.91821999  1
  O  O207  1  0.62413031  0.79224177  0.26630758  1
  O  O208  1  0.63508734  0.77251181  0.58782575  1
  O  O209  1  0.63021895  0.78105989  0.92298856  1
  O  O210  1  0.22021021  0.36811735  0.23575390  1
  O  O211  1  0.22150535  0.36926149  0.57314895  1
  O  O212  1  0.22664942  0.36602023  0.91617456  1
  O  O213  1  0.21636342  0.87340903  0.24032508  1
  O  O214  1  0.22202681  0.86630548  0.57752630  1
  O  O215  1  0.21881356  0.86629027  0.91286769  1
  O  O216  1  0.72266359  0.35676388  0.25333740  1
  O  O217  1  0.71733071  0.36868981  0.57181665  1
  O  O218  1  0.71925223  0.36989027  0.90261101  1
  O  O219  1  0.70847197  0.87291166  0.23449260  1
  O  O220  1  0.72159735  0.86762580  0.58074020  1
  O  O221  1  0.71776563  0.87098467  0.90786540  1
  O  O222  1  0.42894242  0.13533494  0.15094255  1
  O  O223  1  0.42525623  0.12678923  0.48258869  1
  O  O224  1  0.41842206  0.13349402  0.82051155  1
  O  O225  1  0.40764844  0.62820433  0.14322964  1
  O  O226  1  0.41898967  0.62827361  0.48635502  1
  O  O227  1  0.42037484  0.62993423  0.81527998  1
  O  O228  1  0.92293341  0.13179042  0.14944344  1
  O  O229  1  0.91633385  0.14268883  0.48986350  1
  O  O230  1  0.93151556  0.12772563  0.81637720  1
  O  O231  1  0.91008025  0.62720831  0.14742486  1
  O  O232  1  0.91721826  0.63517951  0.48823885  1
  O  O233  1  0.91962048  0.63153142  0.81802379  1
  O  O234  1  0.36709675  0.07167432  0.01730474  1
  O  O235  1  0.36953971  0.08101670  0.34746855  1
  O  O236  1  0.36953883  0.07988912  0.68403145  1
  O  O237  1  0.35821236  0.58075985  0.00733179  1
  O  O238  1  0.36901096  0.57913272  0.35068162  1
  O  O239  1  0.36536500  0.58062556  0.67907463  1
  O  O240  1  0.86648685  0.08559774  0.01342416  1
  O  O241  1  0.87137510  0.09214931  0.35217373  1
  O  O242  1  0.87185993  0.07663763  0.68255547  1
  O  O243  1  0.86075567  0.58468290  0.01177462  1
  O  O244  1  0.86827747  0.59240493  0.35262442  1
  O  O245  1  0.87293490  0.57587745  0.68327177  1
  O  O246  1  0.08187461  0.37093856  0.18352984  1
  O  O247  1  0.08344440  0.37123563  0.51458900  1
  O  O248  1  0.08912162  0.36584636  0.85211111  1
  O  O249  1  0.07856686  0.86260026  0.18065737  1
  O  O250  1  0.08443678  0.86139924  0.51319568  1
  O  O251  1  0.08201929  0.86245406  0.84638125  1
  O  O252  1  0.58735168  0.37190144  0.19040116  1
  O  O253  1  0.57915150  0.36782164  0.51398522  1
  O  O254  1  0.58062921  0.37340331  0.84707554  1
  O  O255  1  0.57000097  0.86765277  0.17871310  1
  O  O256  1  0.58370340  0.86287963  0.51572341  1
  O  O257  1  0.57935828  0.87093432  0.85065864  1
  O  O258  1  0.13854361  0.41580754  0.31890874  1
  O  O259  1  0.13494635  0.41934078  0.65020994  1
  O  O260  1  0.13448195  0.41685184  0.98766378  1
  O  O261  1  0.12918442  0.92443676  0.31635233  1
  O  O262  1  0.13268617  0.91488360  0.65056247  1
  O  O263  1  0.12483779  0.91299679  0.98203798  1
  O  O264  1  0.63655782  0.41903106  0.32574851  1
  O  O265  1  0.63238198  0.41759750  0.65056305  1
  O  O266  1  0.63501248  0.41882740  0.98276255  1
  O  O267  1  0.62356821  0.93147611  0.31116595  1
  O  O268  1  0.62969763  0.90932885  0.65215600  1
  O  O269  1  0.63413231  0.91813033  0.98765763  1
  O  O270  1  0.02788816  0.20917387  0.10567142  1
  O  O271  1  0.02907977  0.20362783  0.43827523  1
  O  O272  1  0.04538707  0.19479513  0.77304541  1
  O  O273  1  0.02416602  0.69294834  0.09875184  1
  O  O274  1  0.03116030  0.69583923  0.44223515  1
  O  O275  1  0.03236976  0.69564361  0.76998462  1
  O  O276  1  0.54555254  0.20629289  0.10889080  1
  O  O277  1  0.52784985  0.19996777  0.43021276  1
  O  O278  1  0.52417405  0.20678286  0.77267833  1
  O  O279  1  0.52605644  0.69460461  0.09674108  1
  O  O280  1  0.53044863  0.69482352  0.44217094  1
  O  O281  1  0.53180550  0.70509827  0.77122009  1
  O  O282  1  0.29414352  0.47682275  0.06184025  1
  O  O283  1  0.29873639  0.46819757  0.39350660  1
  O  O284  1  0.29825154  0.46784708  0.72609054  1
  O  O285  1  0.30531526  0.95681997  0.06298548  1
  O  O286  1  0.30025862  0.96461778  0.39773336  1
  O  O287  1  0.29821580  0.97058721  0.72853180  1
  O  O288  1  0.79923796  0.46838046  0.05809454  1
  O  O289  1  0.80625527  0.47559192  0.40152125  1
  O  O290  1  0.79176640  0.47290456  0.72663714  1
  O  O291  1  0.80315201  0.97001981  0.05980052  1
  O  O292  1  0.79415559  0.96942057  0.40205620  1
  O  O293  1  0.81834346  0.96275826  0.73372302  1
  O  O294  1  0.46763685  0.29911107  0.22923858  1
  O  O295  1  0.46883484  0.29629668  0.56119662  1
  O  O296  1  0.46960307  0.30289789  0.89085185  1
  O  O297  1  0.45242945  0.80153749  0.22843457  1
  O  O298  1  0.47164850  0.79860766  0.56557891  1
  O  O299  1  0.46848693  0.79510871  0.89528238  1
  O  O300  1  0.97693541  0.29408306  0.22933211  1
  O  O301  1  0.97423471  0.30572487  0.56061967  1
  O  O302  1  0.97064855  0.30606852  0.90066419  1
  O  O303  1  0.96135289  0.80145935  0.23173111  1
  O  O304  1  0.97331961  0.80238102  0.56674968  1
  O  O305  1  0.96755436  0.79666867  0.89758641  1
  O  O306  1  0.20318758  0.03688221  0.27843025  1
  O  O307  1  0.20138396  0.02842679  0.60162138  1
  O  O308  1  0.19787361  0.02730655  0.93042060  1
  O  O309  1  0.20684221  0.52851573  0.27311657  1
  O  O310  1  0.20024277  0.53089159  0.60510847  1
  O  O311  1  0.19299138  0.52313608  0.93284696  1
  O  O312  1  0.68879573  0.04801576  0.27004960  1
  O  O313  1  0.69224366  0.02828605  0.59538626  1
  O  O314  1  0.70311313  0.03428260  0.94216672  1
  O  O315  1  0.69985782  0.53069060  0.27157770  1
  O  O316  1  0.70296958  0.52950258  0.60484355  1
  O  O317  1  0.69779972  0.52935070  0.93692527  1
  O  O318  1  0.06798239  0.08838580  0.04087303  1
  O  O319  1  0.08296198  0.09085036  0.37439366  1
  O  O320  1  0.08840771  0.08622499  0.69356539  1
  O  O321  1  0.07893927  0.58201246  0.03430799  1
  O  O322  1  0.08442550  0.58155373  0.37735839  1
  O  O323  1  0.08417103  0.58334595  0.70268253  1
  O  O324  1  0.59654536  0.09714673  0.03663525  1
  O  O325  1  0.58155252  0.09006279  0.36162634  1
  O  O326  1  0.56831270  0.08733658  0.71114116  1
  O  O327  1  0.58244841  0.58487085  0.03304767  1
  O  O328  1  0.58400386  0.58097764  0.37606302  1
  O  O329  1  0.59501121  0.59797884  0.71254189  1
  O  O330  1  0.41523951  0.43584057  0.12445889  1
  O  O331  1  0.41185337  0.41573673  0.45795589  1
  O  O332  1  0.40919851  0.41481755  0.79447961  1
  O  O333  1  0.41235990  0.90541920  0.13823408  1
  O  O334  1  0.41079993  0.90871433  0.46461931  1
  O  O335  1  0.41030972  0.91647855  0.79205700  1
  O  O336  1  0.91360398  0.41669568  0.12452999  1
  O  O337  1  0.91674148  0.42052608  0.46438129  1
  O  O338  1  0.91085608  0.42988717  0.79099356  1
  O  O339  1  0.91217515  0.90870441  0.12152129  1
  O  O340  1  0.90005101  0.90965189  0.46676235  1
  O  O341  1  0.92674459  0.91725166  0.81282749  1
  O  O342  1  0.41672981  0.41292123  0.29382393  1
  O  O343  1  0.40674641  0.40396151  0.62035959  1
  O  O344  1  0.41728815  0.41868735  0.95468315  1
  O  O345  1  0.40863290  0.91302603  0.30703768  1
  O  O346  1  0.41603540  0.91051019  0.63059050  1
  O  O347  1  0.40390314  0.90115413  0.95425498  1
  O  O348  1  0.93185283  0.41332887  0.29047127  1
  O  O349  1  0.91896375  0.41884719  0.62380775  1
  O  O350  1  0.91746701  0.41775509  0.96594404  1
  O  O351  1  0.89860219  0.90240603  0.30050639  1
  O  O352  1  0.91493010  0.91143034  0.63273391  1
  O  O353  1  0.91798930  0.91073846  0.96735568  1
  O  O354  1  0.08920352  0.08972692  0.21241339  1
  O  O355  1  0.09483812  0.09315840  0.54191732  1
  O  O356  1  0.09012161  0.08905233  0.87092474  1
  O  O357  1  0.08537683  0.56856102  0.20829434  1
  O  O358  1  0.08523112  0.57910782  0.53676974  1
  O  O359  1  0.08281605  0.57921661  0.86726201  1
  O  O360  1  0.58684225  0.10297024  0.19607230  1
  O  O361  1  0.58527954  0.08722757  0.53264558  1
  O  O362  1  0.59108410  0.09195677  0.87733973  1
  O  O363  1  0.58125823  0.57006444  0.20158739  1
  O  O364  1  0.59165833  0.58257972  0.53669427  1
  O  O365  1  0.58717807  0.58417349  0.87182508  1
  O  O366  1  0.13863365  0.21568414  0.06119019  1
  O  O367  1  0.13746407  0.22323733  0.39337086  1
  O  O368  1  0.14837200  0.22041274  0.72424978  1
  O  O369  1  0.13264316  0.71593621  0.05423667  1
  O  O370  1  0.13270241  0.71395673  0.38917075  1
  O  O371  1  0.13761731  0.71699352  0.72151014  1
  O  O372  1  0.64763624  0.23165980  0.05919451  1
  O  O373  1  0.64235285  0.22462404  0.39531469  1
  O  O374  1  0.63471361  0.21570430  0.72798189  1
  O  O375  1  0.63494451  0.71985205  0.05331489  1
  O  O376  1  0.63262916  0.71395731  0.38994551  1
  O  O377  1  0.63845159  0.73190184  0.72612660  1
  O  O378  1  0.28830148  0.36608318  0.10737257  1
  O  O379  1  0.27996134  0.36290282  0.44292873  1
  O  O380  1  0.27561784  0.35983614  0.77067221  1
  O  O381  1  0.27635846  0.85338633  0.10923424  1
  O  O382  1  0.27573025  0.85654885  0.44168611  1
  O  O383  1  0.27748858  0.86191450  0.77228219  1
  O  O384  1  0.78106830  0.36605087  0.11002227  1
  O  O385  1  0.78350802  0.36740429  0.44695076  1
  O  O386  1  0.78231036  0.36516375  0.77489098  1
  O  O387  1  0.77757274  0.86781798  0.10878738  1
  O  O388  1  0.76443289  0.85925410  0.44039960  1
  O  O389  1  0.79216401  0.85738091  0.77921802  1
  O  O390  1  0.36236818  0.28034849  0.27848247  1
  O  O391  1  0.36020348  0.27006372  0.60361582  1
  O  O392  1  0.36862661  0.28693369  0.94500168  1
  O  O393  1  0.35125774  0.77869197  0.27977048  1
  O  O394  1  0.36211012  0.77596122  0.60761574  1
  O  O395  1  0.35989951  0.76614828  0.93611914  1
  O  O396  1  0.86802570  0.28481531  0.27573173  1
  O  O397  1  0.86981733  0.28653818  0.61038522  1
  O  O398  1  0.86120677  0.28446098  0.94412403  1
  O  O399  1  0.85343030  0.76582734  0.27053227  1
  O  O400  1  0.86241435  0.77643061  0.60642155  1
  O  O401  1  0.86079199  0.77767206  0.94449784  1
  O  O402  1  0.22076505  0.12745738  0.21481456  1
  O  O403  1  0.22958509  0.13569259  0.55850655  1
  O  O404  1  0.22544431  0.13878527  0.89177496  1
  O  O405  1  0.21240712  0.63535191  0.22287657  1
  O  O406  1  0.21756515  0.63849891  0.55882230  1
  O  O407  1  0.21728179  0.63214224  0.88975502  1
  O  O408  1  0.72426837  0.15158259  0.22552312  1
  O  O409  1  0.72118337  0.13675952  0.55318190  1
  O  O410  1  0.72464745  0.13689036  0.89189464  1
  O  O411  1  0.70994450  0.63886262  0.22360802  1
  O  O412  1  0.72561047  0.63975209  0.56400455  1
  O  O413  1  0.72038115  0.63706026  0.89178038  1
  O  O414  1  0.50153657  0.34730707  0.02662548  1
  O  O415  1  0.49319439  0.33710428  0.36493879  1
  O  O416  1  0.48797976  0.33148495  0.69430366  1
  O  O417  1  0.48625710  0.82830857  0.02813745  1
  O  O418  1  0.48578713  0.82567845  0.36234752  1
  O  O419  1  0.49146634  0.83213883  0.69921883  1
  O  O420  1  0.99287194  0.33692305  0.03369340  1
  O  O421  1  0.99814674  0.33402140  0.36447521  1
  O  O422  1  1.00136397  0.34775934  0.69583702  1
  O  O423  1  0.99305107  0.82767811  0.03172943  1
  O  O424  1  0.98190121  0.82104646  0.36233081  1
  O  O425  1  0.99177336  0.82944004  0.69816408  1
  O  O426  1  0.15210384  -0.00474823  0.14185639  1
  O  O427  1  0.16648369  0.00835300  0.46890184  1
  O  O428  1  0.16413970  0.01140667  0.79771935  1
  O  O429  1  0.16743180  0.50307183  0.13731211  1
  O  O430  1  0.16994454  0.50598223  0.47168810  1
  O  O431  1  0.16211903  0.50280698  0.79967401  1
  O  O432  1  0.67147542  0.01987003  0.13907133  1
  O  O433  1  0.65911861  0.00930717  0.46092041  1
  O  O434  1  0.66161731  0.00507138  0.80760291  1
  O  O435  1  0.66960919  0.50652827  0.13737823  1
  O  O436  1  0.67597929  0.50937522  0.47256389  1
  O  O437  1  0.66623728  0.50664916  0.80335246  1
  O  O438  1  0.00651958  0.16903345  0.30481043  1
  O  O439  1  0.01424749  0.17791880  0.64074393  1
  O  O440  1  0.00731196  0.17385265  0.97095159  1
  O  O441  1  -0.00028637  0.65225175  0.30639527  1
  O  O442  1  0.00652587  0.66199735  0.63538206  1
  O  O443  1  0.00299903  0.66055781  0.96502937  1
  O  O444  1  0.51355933  0.17754881  0.29868461  1
  O  O445  1  0.50506072  0.16841979  0.63792968  1
  O  O446  1  0.51545743  0.17931363  0.97566138  1
  O  O447  1  0.49995501  0.65551512  0.30708339  1
  O  O448  1  0.51120997  0.66746122  0.63779027  1
  O  O449  1  0.50597348  0.66181457  0.96314753  1
  O  O450  1  0.33213636  0.49711633  0.19640780  1
  O  O451  1  0.33406832  0.49423508  0.52796425  1
  O  O452  1  0.32633817  0.49099909  0.85880785  1
  O  O453  1  0.32792311  0.98586122  0.19575077  1
  O  O454  1  0.33055203  0.98689880  0.53042693  1
  O  O455  1  0.33023690  0.99149660  0.86241581  1
  O  O456  1  0.84039063  0.49890212  0.19394376  1
  O  O457  1  0.83926494  0.49709875  0.53527923  1
  O  O458  1  0.82969348  0.49667871  0.86205457  1
  O  O459  1  0.84472879  0.99753988  0.19486382  1
  O  O460  1  0.82128082  0.98736945  0.53403721  1
  O  O461  1  0.83451808  0.98987387  0.86539734  1
