# generated using pymatgen
data_Na31Fe20(SO4)36
_symmetry_space_group_name_H-M   'P 1'
_cell_length_a   18.07975846
_cell_length_b   18.08995943
_cell_length_c   19.72280061
_cell_angle_alpha   107.60283730
_cell_angle_beta   107.55698350
_cell_angle_gamma   90.71960341
_symmetry_Int_Tables_number   1
_chemical_formula_structural   Na31Fe20(SO4)36
_chemical_formula_sum   'Na62 Fe40 S72 O288'
_cell_volume   5823.76870107
_cell_formula_units_Z   2
loop_
 _symmetry_equiv_pos_site_id
 _symmetry_equiv_pos_as_xyz
  1  'x, y, z'
loop_
 _atom_site_type_symbol
 _atom_site_label
 _atom_site_symmetry_multiplicity
 _atom_site_fract_x
 _atom_site_fract_y
 _atom_site_fract_z
 _atom_site_occupancy
  Na  Na0  1  0.13727729  0.36519782  0.08242738  1
  Na  Na1  1  0.13231386  0.37699460  0.42249659  1
  Na  Na2  1  0.15265790  0.36931373  0.75704966  1
  Na  Na3  1  0.12465327  0.87501863  0.08080693  1
  Na  Na4  1  0.13425499  0.86743072  0.41825613  1
  Na  Na5  1  0.12557496  0.87124834  0.75776724  1
  Na  Na6  1  0.65221719  0.36992037  0.10510074  1
  Na  Na7  1  0.63562516  0.35409676  0.40557821  1
  Na  Na8  1  0.62712148  0.37451076  0.75420086  1
  Na  Na9  1  0.62630145  0.85795043  0.07261998  1
  Na  Na10  1  0.62990187  0.86072637  0.40844782  1
  Na  Na11  1  0.63814722  0.86404268  0.75418730  1
  Na  Na12  1  0.36088310  0.12838889  0.23875685  1
  Na  Na13  1  0.36990974  0.16351432  0.61322442  1
  Na  Na14  1  0.36536359  0.13596338  0.91682936  1
  Na  Na15  1  0.37094145  0.63495871  0.24485351  1
  Na  Na16  1  0.37076432  0.64007403  0.58870149  1
  Na  Na17  1  0.37020700  0.63299542  0.91152475  1
  Na  Na18  1  0.83544841  0.14151147  0.23908346  1
  Na  Na19  1  0.86709484  0.13385684  0.58395872  1
  Na  Na20  1  0.87668929  0.12504461  0.91912478  1
  Na  Na21  1  0.84920688  0.63074737  0.24090605  1
  Na  Na22  1  0.87284927  0.63229668  0.59333570  1
  Na  Na23  1  0.86625945  0.62539770  0.90846558  1
  Na  Na24  1  0.98694140  0.50491180  0.08842707  1
  Na  Na25  1  0.47607861  0.53140710  0.05547992  1
  Na  Na26  1  0.49695678  0.54287599  0.79234773  1
  Na  Na27  1  0.99927772  0.51808456  0.72044931  1
  Na  Na28  1  0.48492149  0.01984612  0.42030162  1
  Na  Na29  1  0.47536350  0.00510396  0.08766983  1
  Na  Na30  1  0.50005416  0.50164122  0.40990922  1
  Na  Na31  1  0.49091950  0.01591019  0.75718841  1
  Na  Na32  1  0.99014479  0.01157045  0.41741358  1
  Na  Na33  1  0.51207888  0.98555814  0.58365044  1
  Na  Na34  1  0.51816132  0.50102714  0.23449203  1
  Na  Na35  1  0.50125047  0.97520832  0.92296342  1
  Na  Na36  1  0.02701438  0.49264637  0.90705979  1
  Na  Na37  1  -0.04094983  0.51744728  0.31210039  1
  Na  Na38  1  0.00626995  0.98498929  0.60628799  1
  Na  Na39  1  -0.01200015  1.01988907  0.21768349  1
  Na  Na40  1  0.53606998  0.48732273  0.60334621  1
  Na  Na41  1  0.51002079  0.97761724  0.25252146  1
  Na  Na42  1  0.75151094  0.74223375  0.67768041  1
  Na  Na43  1  0.73361651  0.73894552  0.33879010  1
  Na  Na44  1  0.24588799  0.24717883  0.33979792  1
  Na  Na45  1  0.73222680  0.73435413  -0.00015491  1
  Na  Na46  1  0.25810514  0.75897909  -0.01935166  1
  Na  Na47  1  0.74851019  0.24849826  0.01576654  1
  Na  Na48  1  0.25929512  0.25687253  -0.00760017  1
  Na  Na49  1  0.75228440  0.25281113  0.66557464  1
  Na  Na50  1  0.23776563  0.74162900  0.68329057  1
  Na  Na51  1  0.25284324  0.75353522  0.32887663  1
  Na  Na52  1  0.23760069  0.23359936  0.16573509  1
  Na  Na53  1  0.25813503  0.75792546  0.15536458  1
  Na  Na54  1  0.24437747  0.74519580  0.50653594  1
  Na  Na55  1  0.24033167  0.24544493  0.51683663  1
  Na  Na56  1  0.74573950  0.74041818  0.50717750  1
  Na  Na57  1  0.74992246  0.24745264  0.83813761  1
  Na  Na58  1  0.73529855  0.72404103  0.83671595  1
  Na  Na59  1  0.29315655  0.28231101  0.82609950  1
  Na  Na60  1  0.72993636  0.74022348  0.17142105  1
  Na  Na61  1  0.76093567  0.26018717  0.48616030  1
  Fe  Fe62  1  0.46482064  0.30819154  0.45208339  1
  Fe  Fe63  1  0.96468512  0.30840136  0.12339789  1
  Fe  Fe64  1  0.46830061  0.79690268  0.11835847  1
  Fe  Fe65  1  0.96048420  0.80835825  0.45058222  1
  Fe  Fe66  1  0.96959528  0.30156178  0.78662926  1
  Fe  Fe67  1  0.96145098  0.80568673  0.11585002  1
  Fe  Fe68  1  0.46731967  0.80337743  0.45113445  1
  Fe  Fe69  1  0.46473509  0.30559897  0.11706146  1
  Fe  Fe70  1  0.96097128  0.31388531  0.45030507  1
  Fe  Fe71  1  0.46649503  0.80406618  0.78779551  1
  Fe  Fe72  1  0.19664480  0.03690117  0.71849977  1
  Fe  Fe73  1  0.69451612  0.03450981  0.71705752  1
  Fe  Fe74  1  0.19385723  0.53738647  0.71184928  1
  Fe  Fe75  1  0.69987918  0.52864590  0.37500632  1
  Fe  Fe76  1  0.19016142  0.03551607  0.38275184  1
  Fe  Fe77  1  0.69070849  0.03596941  0.04984395  1
  Fe  Fe78  1  0.20058675  0.52966049  0.03990180  1
  Fe  Fe79  1  0.69256213  0.03867660  0.38333550  1
  Fe  Fe80  1  0.19043007  0.53671028  0.37575653  1
  Fe  Fe81  1  0.68618469  0.53180344  0.04263675  1
  Fe  Fe82  1  0.53762200  0.68846380  0.54663920  1
  Fe  Fe83  1  0.03633429  0.19035394  0.21022758  1
  Fe  Fe84  1  0.03381054  0.69441773  0.21009603  1
  Fe  Fe85  1  0.03767287  0.19765615  0.55064117  1
  Fe  Fe86  1  0.03017154  0.70236673  0.87207188  1
  Fe  Fe87  1  0.53269033  0.19573374  0.55223607  1
  Fe  Fe88  1  0.03921389  0.18625141  0.88324890  1
  Fe  Fe89  1  0.03029898  0.69421986  0.54660265  1
  Fe  Fe90  1  0.53863402  0.18950950  0.21436382  1
  Fe  Fe91  1  0.53344688  0.20139269  0.88393518  1
  Fe  Fe92  1  0.30748203  0.96575746  0.62015776  1
  Fe  Fe93  1  0.80935360  0.46185431  0.95319783  1
  Fe  Fe94  1  0.31342630  0.46571911  0.61909200  1
  Fe  Fe95  1  0.80351551  0.96849958  0.28359976  1
  Fe  Fe96  1  0.30366368  0.96740164  0.28584301  1
  Fe  Fe97  1  0.81153108  0.96261934  0.94966101  1
  Fe  Fe98  1  0.81164628  0.96187571  0.62383949  1
  Fe  Fe99  1  0.30582891  0.46549938  0.28351259  1
  Fe  Fe100  1  0.29527251  0.96350503  0.95445574  1
  Fe  Fe101  1  0.80153628  0.46461210  0.62401442  1
  S  S102  1  0.36284181  0.13833662  0.08282165  1
  S  S103  1  0.35843563  0.14172155  0.42137091  1
  S  S104  1  0.36414475  0.13693176  0.75293328  1
  S  S105  1  0.35404734  0.64226494  0.07897266  1
  S  S106  1  0.35914354  0.64112244  0.41473830  1
  S  S107  1  0.35730334  0.64422575  0.74415292  1
  S  S108  1  0.86028147  0.13420512  0.08618499  1
  S  S109  1  0.86193802  0.13987168  0.41833638  1
  S  S110  1  0.86205434  0.13884747  0.74930933  1
  S  S111  1  0.85934282  0.64027163  0.08420196  1
  S  S112  1  0.85700346  0.64396242  0.41518100  1
  S  S113  1  0.86171757  0.63527350  0.74910493  1
  S  S114  1  0.14305254  0.36007758  0.25034951  1
  S  S115  1  0.13863814  0.36244220  0.58045294  1
  S  S116  1  0.14303630  0.35524347  0.91422942  1
  S  S117  1  0.13749593  0.86093946  0.24942798  1
  S  S118  1  0.13790987  0.86263798  0.58071035  1
  S  S119  1  0.13952175  0.85747756  0.91978156  1
  S  S120  1  0.63431815  0.36030423  0.25228316  1
  S  S121  1  0.64137380  0.35214868  0.57885530  1
  S  S122  1  0.64899703  0.35525967  0.92309083  1
  S  S123  1  0.63981008  0.86383788  0.25203055  1
  S  S124  1  0.64038774  0.85840578  0.58235285  1
  S  S125  1  0.64106028  0.86407154  0.91456372  1
  S  S126  1  0.06948601  0.17388025  0.04876356  1
  S  S127  1  0.06531903  0.16685209  0.37635714  1
  S  S128  1  0.07153324  0.17159259  0.70946249  1
  S  S129  1  0.06752407  0.67155399  0.04048199  1
  S  S130  1  0.06709176  0.67540988  0.37453239  1
  S  S131  1  0.06889518  0.67330143  0.70750978  1
  S  S132  1  0.56875187  0.16527891  0.04224024  1
  S  S133  1  0.56163752  0.16396188  0.37558145  1
  S  S134  1  0.57064255  0.16475540  0.70917202  1
  S  S135  1  0.56466401  0.67112291  0.03871036  1
  S  S136  1  0.56593734  0.66524448  0.37541988  1
  S  S137  1  0.56585839  0.67104583  0.70871963  1
  S  S138  1  0.33179081  0.43353145  0.12561559  1
  S  S139  1  0.33307511  0.43663220  0.45553328  1
  S  S140  1  0.33263375  0.44599014  0.78319148  1
  S  S141  1  0.33578494  0.93100700  0.12828772  1
  S  S142  1  0.33184142  0.93348636  0.45857915  1
  S  S143  1  0.33146991  0.93168933  0.79100695  1
  S  S144  1  0.84136126  0.43775909  0.12724480  1
  S  S145  1  0.82541337  0.43291833  0.46061192  1
  S  S146  1  0.83629374  0.42310742  0.79425119  1
  S  S147  1  0.82385497  0.92856287  0.12130207  1
  S  S148  1  0.82863660  0.93504554  0.45754387  1
  S  S149  1  0.82711553  0.93153720  0.78491176  1
  S  S150  1  0.42598073  0.32644603  0.28968590  1
  S  S151  1  0.43791441  0.33553370  0.62073814  1
  S  S152  1  0.43998151  0.33195637  0.96325287  1
  S  S153  1  0.43109982  0.83491468  0.29363608  1
  S  S154  1  0.43566704  0.83505098  0.62365940  1
  S  S155  1  0.43001958  0.83480530  0.95868952  1
  S  S156  1  0.93688448  0.32149671  0.29011779  1
  S  S157  1  0.93194744  0.32672617  0.62397314  1
  S  S158  1  0.93671046  0.32623336  0.95928121  1
  S  S159  1  0.92865469  0.83214712  0.28888924  1
  S  S160  1  0.93378905  0.82807041  0.62052110  1
  S  S161  1  0.92705485  0.82263694  0.95460871  1
  S  S162  1  0.17348873  0.06672117  0.21433742  1
  S  S163  1  0.17118778  0.06896564  0.54400414  1
  S  S164  1  0.17341335  0.06698772  0.87650822  1
  S  S165  1  0.17149571  0.56947988  0.20568176  1
  S  S166  1  0.17319851  0.57524722  0.54093011  1
  S  S167  1  0.15918540  0.56993418  0.86959667  1
  S  S168  1  0.65983271  0.06261542  0.20640133  1
  S  S169  1  0.66826668  0.06433881  0.54311067  1
  S  S170  1  0.66903889  0.07137984  0.87751146  1
  S  S171  1  0.66359335  0.56603000  0.20536777  1
  S  S172  1  0.67052261  0.56351463  0.53914134  1
  S  S173  1  0.67705076  0.56253119  0.88225892  1
  O  O174  1  0.37502104  0.21528180  0.07071285  1
  O  O175  1  0.36703650  0.22012933  0.41283218  1
  O  O176  1  0.37278845  0.21269572  0.74337878  1
  O  O177  1  0.36170166  0.72659208  0.08002371  1
  O  O178  1  0.36952373  0.71968101  0.40564813  1
  O  O179  1  0.36918368  0.72142553  0.73163782  1
  O  O180  1  0.86800499  0.21413977  0.08097361  1
  O  O181  1  0.87018471  0.22001731  0.41563258  1
  O  O182  1  0.87229204  0.21628839  0.73777323  1
  O  O183  1  0.86533468  0.71978482  0.07690578  1
  O  O184  1  0.86260471  0.72593054  0.41113768  1
  O  O185  1  0.86972366  0.70589114  0.72942641  1
  O  O186  1  0.29059350  0.13442832  0.10014320  1
  O  O187  1  0.27965016  0.13220342  0.42915872  1
  O  O188  1  0.28705821  0.12616755  0.76458016  1
  O  O189  1  0.27197828  0.63175097  0.08325275  1
  O  O190  1  0.27836657  0.63364614  0.41917487  1
  O  O191  1  0.27489615  0.63823454  0.74436221  1
  O  O192  1  0.78369464  0.12282870  0.09869007  1
  O  O193  1  0.78445190  0.12893706  0.42989948  1
  O  O194  1  0.78232263  0.13287603  0.75669176  1
  O  O195  1  0.78169229  0.62927338  0.09394793  1
  O  O196  1  0.77545802  0.63170059  0.41908928  1
  O  O197  1  0.78758375  0.62407970  0.76199301  1
  O  O198  1  0.13620661  0.28040194  0.25760309  1
  O  O199  1  0.13287318  0.28118934  0.58477308  1
  O  O200  1  0.12958830  0.27832648  0.92540090  1
  O  O201  1  0.12864656  0.78068206  0.25573932  1
  O  O202  1  0.13146017  0.78287697  0.58664726  1
  O  O203  1  0.12648119  0.77310570  0.92437254  1
  O  O204  1  0.61727260  0.28560351  0.26636966  1
  O  O205  1  0.63242399  0.27003608  0.58137157  1
  O  O206  1  0.63796355  0.27495147  0.92978472  1
  O  O207  1  0.63377691  0.78973235  0.26591931  1
  O  O208  1  0.63249043  0.77887419  0.58918737  1
  O  O209  1  0.63685763  0.78717539  0.92333272  1
  O  O210  1  0.22129293  0.36929431  0.24000945  1
  O  O211  1  0.21537319  0.37444486  0.56836462  1
  O  O212  1  0.21818777  0.36112778  0.90228174  1
  O  O213  1  0.21653522  0.86969611  0.24130570  1
  O  O214  1  0.21602187  0.87373113  0.57031671  1
  O  O215  1  0.22345647  0.86080188  0.91929741  1
  O  O216  1  0.70726943  0.36433000  0.23775314  1
  O  O217  1  0.72218716  0.36196271  0.57480187  1
  O  O218  1  0.73229712  0.36151872  0.92190507  1
  O  O219  1  0.71845747  0.87548734  0.24284026  1
  O  O220  1  0.71913124  0.86867604  0.57473422  1
  O  O221  1  0.71691462  0.87791034  0.90151869  1
  O  O222  1  0.42896278  0.12863567  0.14730615  1
  O  O223  1  0.41773593  0.13279031  0.48926677  1
  O  O224  1  0.42555598  0.12565255  0.81897892  1
  O  O225  1  0.41017728  0.63095565  0.14515420  1
  O  O226  1  0.41558580  0.63525414  0.48473721  1
  O  O227  1  0.41244378  0.63975914  0.81345086  1
  O  O228  1  0.92222876  0.12242057  0.15059391  1
  O  O229  1  0.92356789  0.12620107  0.48250666  1
  O  O230  1  0.91980713  0.13342760  0.81833447  1
  O  O231  1  0.92040265  0.63392343  0.15278682  1
  O  O232  1  0.91323927  0.63751710  0.48494605  1
  O  O233  1  0.92671047  0.63450956  0.81953331  1
  O  O234  1  0.36574031  0.07661168  0.01376805  1
  O  O235  1  0.36799764  0.08220555  0.35392039  1
  O  O236  1  0.37121793  0.07435123  0.68454253  1
  O  O237  1  0.36140354  0.59022494  0.00916181  1
  O  O238  1  0.36981403  0.58103842  0.34883911  1
  O  O239  1  0.36862027  0.58317393  0.67787652  1
  O  O240  1  0.86311340  0.07777413  0.01449363  1
  O  O241  1  0.86612227  0.08271130  0.34706038  1
  O  O242  1  0.86881249  0.07841871  0.68146290  1
  O  O243  1  0.87120471  0.58237460  0.01767493  1
  O  O244  1  0.86732309  0.58993634  0.34787948  1
  O  O245  1  0.87410099  0.56746780  0.68733962  1
  O  O246  1  0.08308532  0.37001383  0.18481108  1
  O  O247  1  0.07690667  0.36972858  0.51387366  1
  O  O248  1  0.07984078  0.36565712  0.84880399  1
  O  O249  1  0.07750318  0.87012087  0.18314640  1
  O  O250  1  0.07728921  0.87171807  0.51371679  1
  O  O251  1  0.08638905  0.86239270  0.85047603  1
  O  O252  1  0.56914205  0.37140817  0.18838481  1
  O  O253  1  0.58548659  0.36041452  0.50842788  1
  O  O254  1  0.59556058  0.36369718  0.85545377  1
  O  O255  1  0.57998947  0.86931104  0.18303180  1
  O  O256  1  0.58152611  0.86657633  0.51354444  1
  O  O257  1  0.57823707  0.87357677  0.84875207  1
  O  O258  1  0.13928496  0.41810505  0.32087041  1
  O  O259  1  0.13147118  0.41832280  0.64994760  1
  O  O260  1  0.13719749  0.41645052  0.98352563  1
  O  O261  1  0.13170869  0.91773884  0.31959860  1
  O  O262  1  0.13030942  0.92136471  0.64904037  1
  O  O263  1  0.13272612  0.91234384  0.98773670  1
  O  O264  1  0.62954082  0.42375577  0.32141457  1
  O  O265  1  0.62969497  0.40760996  0.64475941  1
  O  O266  1  0.64250770  0.41205093  0.99337728  1
  O  O267  1  0.62973879  0.92797873  0.31749766  1
  O  O268  1  0.62866142  0.91655907  0.64891689  1
  O  O269  1  0.63242453  0.92446309  0.98304136  1
  O  O270  1  0.02753930  0.21066818  0.10654412  1
  O  O271  1  0.02901664  0.19940425  0.43652866  1
  O  O272  1  0.03328546  0.19699963  0.76963975  1
  O  O273  1  0.02550696  0.69983496  0.09837211  1
  O  O274  1  0.02872825  0.70315111  0.43409571  1
  O  O275  1  0.03220473  0.69312747  0.76776672  1
  O  O276  1  0.53855353  0.20068657  0.10683449  1
  O  O277  1  0.52334584  0.19354413  0.43486447  1
  O  O278  1  0.54045437  0.18889205  0.77228190  1
  O  O279  1  0.53178859  0.70228815  0.10204794  1
  O  O280  1  0.53192631  0.69515469  0.43998306  1
  O  O281  1  0.53080702  0.71041337  0.76687525  1
  O  O282  1  0.30355956  0.47022920  0.06679330  1
  O  O283  1  0.30236169  0.47317510  0.39453668  1
  O  O284  1  0.28933122  0.47596813  0.71579071  1
  O  O285  1  0.31481312  0.96974990  0.07098717  1
  O  O286  1  0.30038033  0.96880530  0.39723063  1
  O  O287  1  0.29959815  0.96605218  0.72808176  1
  O  O288  1  0.81130298  0.47207992  0.06448464  1
  O  O289  1  0.79775649  0.47300006  0.40297085  1
  O  O290  1  0.80774386  0.45051146  0.72939697  1
  O  O291  1  0.79535921  0.96220509  0.05881235  1
  O  O292  1  0.79898249  0.97111906  0.39628933  1
  O  O293  1  0.78979692  0.97215988  0.72532837  1
  O  O294  1  0.45601116  0.29377222  0.22572975  1
  O  O295  1  0.47186507  0.30018654  0.55601237  1
  O  O296  1  0.47218237  0.29591799  0.90098889  1
  O  O297  1  0.46539851  0.81400642  0.23314646  1
  O  O298  1  0.47111383  0.80446836  0.56183723  1
  O  O299  1  0.46738005  0.82025931  0.89955331  1
  O  O300  1  0.97520356  0.28811618  0.22882046  1
  O  O301  1  0.96894797  0.29835475  0.56289227  1
  O  O302  1  0.97084260  0.29514500  0.89681823  1
  O  O303  1  0.96642246  0.80310847  0.22907193  1
  O  O304  1  0.96851246  0.79773889  0.55581821  1
  O  O305  1  0.96655752  0.79230602  0.89707675  1
  O  O306  1  0.20321422  0.03487027  0.28093127  1
  O  O307  1  0.20093548  0.03398402  0.60584870  1
  O  O308  1  0.20048071  0.02734007  0.93334301  1
  O  O309  1  0.19872677  0.53237719  0.26693244  1
  O  O310  1  0.19879495  0.53471975  0.59799939  1
  O  O311  1  0.16945668  0.53061488  0.92707291  1
  O  O312  1  0.69966056  0.03518214  0.27238971  1
  O  O313  1  0.69799323  0.02776470  0.60342807  1
  O  O314  1  0.69797060  0.03752845  0.93975948  1
  O  O315  1  0.68739441  0.53523367  0.27012708  1
  O  O316  1  0.69771275  0.52555903  0.59716581  1
  O  O317  1  0.71125118  0.52493942  0.94485595  1
  O  O318  1  0.09293642  0.10118338  0.05838640  1
  O  O319  1  0.08101253  0.08441181  0.37440431  1
  O  O320  1  0.09088701  0.08993799  0.70164931  1
  O  O321  1  0.08288908  0.58934639  0.03568178  1
  O  O322  1  0.08577835  0.59399015  0.36811410  1
  O  O323  1  0.09296212  0.59268660  0.69838739  1
  O  O324  1  0.57881517  0.08068679  0.03718885  1
  O  O325  1  0.57637277  0.08049182  0.37079967  1
  O  O326  1  0.58639491  0.07968943  0.69617159  1
  O  O327  1  0.58850825  0.59186900  0.04127354  1
  O  O328  1  0.58956451  0.58512570  0.37346955  1
  O  O329  1  0.57546835  0.59075732  0.70853440  1
  O  O330  1  0.41366623  0.41456434  0.13307607  1
  O  O331  1  0.41560696  0.42064771  0.46030476  1
  O  O332  1  0.41205722  0.43852029  0.78018265  1
  O  O333  1  0.41760384  0.90865653  0.13709199  1
  O  O334  1  0.41472740  0.91781745  0.46375867  1
  O  O335  1  0.41433019  0.91666251  0.79403944  1
  O  O336  1  0.92092924  0.41293368  0.12454454  1
  O  O337  1  0.90459087  0.41126609  0.46180462  1
  O  O338  1  0.92039971  0.40738363  0.80570308  1
  O  O339  1  0.90568312  0.90996957  0.12914423  1
  O  O340  1  0.91176507  0.92007476  0.46334961  1
  O  O341  1  0.90295548  0.91432468  0.78061548  1
  O  O342  1  0.41135743  0.40955698  0.29718843  1
  O  O343  1  0.42207196  0.41664132  0.61940303  1
  O  O344  1  0.42439601  0.41142023  0.96686436  1
  O  O345  1  0.41479596  0.91938410  0.30943555  1
  O  O346  1  0.42161522  0.91885693  0.62992409  1
  O  O347  1  0.40696867  0.91726410  0.97089133  1
  O  O348  1  0.91619589  0.39777932  0.28730392  1
  O  O349  1  0.91095799  0.40678425  0.62947037  1
  O  O350  1  0.91812220  0.40782556  0.96344255  1
  O  O351  1  0.91108456  0.91437565  0.29503542  1
  O  O352  1  0.91004181  0.90712909  0.61680082  1
  O  O353  1  0.90581267  0.90109266  0.95462005  1
  O  O354  1  0.09398579  0.09051222  0.21384275  1
  O  O355  1  0.08914393  0.08693917  0.53772095  1
  O  O356  1  0.09348778  0.08814154  0.87161746  1
  O  O357  1  0.08991305  0.58890466  0.19913645  1
  O  O358  1  0.09427386  0.59915105  0.53570590  1
  O  O359  1  0.07701839  0.59543354  0.85618546  1
  O  O360  1  0.57591566  0.07018421  0.20376082  1
  O  O361  1  0.58581161  0.08181167  0.53842633  1
  O  O362  1  0.58834999  0.09252556  0.87311102  1
  O  O363  1  0.57933930  0.57210636  0.18436408  1
  O  O364  1  0.58630984  0.57856459  0.53172724  1
  O  O365  1  0.60430845  0.59090177  0.89098667  1
  O  O366  1  0.13624898  0.23166739  0.06220166  1
  O  O367  1  0.13856158  0.21613619  0.39236290  1
  O  O368  1  0.14034192  0.22548146  0.72577972  1
  O  O369  1  0.13849053  0.72517260  0.06252509  1
  O  O370  1  0.13875583  0.72841018  0.39306563  1
  O  O371  1  0.13458595  0.73084942  0.72335796  1
  O  O372  1  0.64256879  0.20882264  0.05353832  1
  O  O373  1  0.63502253  0.21206571  0.39320419  1
  O  O374  1  0.64205217  0.21419178  0.72086419  1
  O  O375  1  0.63732495  0.72387758  0.05570154  1
  O  O376  1  0.63588084  0.72062360  0.39329855  1
  O  O377  1  0.64063783  0.71738890  0.72147995  1
  O  O378  1  0.28024265  0.36195084  0.11078305  1
  O  O379  1  0.28238578  0.36450956  0.43889784  1
  O  O380  1  0.28723294  0.37061103  0.76722141  1
  O  O381  1  0.27969375  0.86296932  0.11167903  1
  O  O382  1  0.28212618  0.86054978  0.44226857  1
  O  O383  1  0.28157753  0.86070422  0.77636222  1
  O  O384  1  0.78859156  0.36891970  0.11447988  1
  O  O385  1  0.77094348  0.36319070  0.44326254  1
  O  O386  1  0.78670415  0.35179784  0.78384171  1
  O  O387  1  0.77144440  0.85934485  0.10887091  1
  O  O388  1  0.77788952  0.86307068  0.44090095  1
  O  O389  1  0.77117082  0.86246534  0.76824530  1
  O  O390  1  0.35496941  0.27741329  0.27968309  1
  O  O391  1  0.36395560  0.28728289  0.60300922  1
  O  O392  1  0.36746449  0.28072033  0.94982297  1
  O  O393  1  0.35854782  0.78365538  0.27623177  1
  O  O394  1  0.36190568  0.78682274  0.60590195  1
  O  O395  1  0.36338174  0.77744359  0.94009606  1
  O  O396  1  0.87064349  0.26759405  0.27931683  1
  O  O397  1  0.86156368  0.27172545  0.60575123  1
  O  O398  1  0.86695325  0.27358802  0.94594594  1
  O  O399  1  0.85782940  0.77995278  0.27287963  1
  O  O400  1  0.86330635  0.77500867  0.60424572  1
  O  O401  1  0.85762564  0.76867055  0.94051393  1
  O  O402  1  0.22736811  0.13762802  0.23175116  1
  O  O403  1  0.22338426  0.13793419  0.55704118  1
  O  O404  1  0.22778032  0.13695763  0.89309976  1
  O  O405  1  0.22524430  0.64026054  0.22438359  1
  O  O406  1  0.23006399  0.64459763  0.55945938  1
  O  O407  1  0.21818961  0.63558421  0.89048433  1
  O  O408  1  0.69921230  0.13704575  0.21456894  1
  O  O409  1  0.71996776  0.13515198  0.55842340  1
  O  O410  1  0.72398139  0.13907522  0.88991537  1
  O  O411  1  0.71178513  0.64227478  0.22634822  1
  O  O412  1  0.71976989  0.63790646  0.55809174  1
  O  O413  1  0.73572066  0.62982791  0.89828456  1
  O  O414  1  0.49986805  0.33094611  0.03570559  1
  O  O415  1  0.48875388  0.32893742  0.36112431  1
  O  O416  1  0.49673188  0.33559237  0.68933010  1
  O  O417  1  0.49047721  0.83711330  0.03130674  1
  O  O418  1  0.49060147  0.83029113  0.36418657  1
  O  O419  1  0.49337960  0.83541029  0.69553614  1
  O  O420  1  0.99738117  0.33123046  0.03152099  1
  O  O421  1  0.99939743  0.32821112  0.36353754  1
  O  O422  1  0.99155920  0.32871325  0.69594579  1
  O  O423  1  0.98543838  0.83031125  0.03010542  1
  O  O424  1  0.98787624  0.83576134  0.36243530  1
  O  O425  1  0.99461749  0.83553862  0.68968077  1
  O  O426  1  0.17111120  0.00518529  0.14710468  1
  O  O427  1  0.16716473  0.00676020  0.47153640  1
  O  O428  1  0.16913904  0.00918019  0.80119593  1
  O  O429  1  0.17014203  0.51040417  0.13382221  1
  O  O430  1  0.17023462  0.51725681  0.46686534  1
  O  O431  1  0.15588462  0.50973046  0.79682046  1
  O  O432  1  0.65971427  0.00062450  0.13607720  1
  O  O433  1  0.66443170  0.00556114  0.46953027  1
  O  O434  1  0.66187256  0.00935187  0.80438904  1
  O  O435  1  0.68246104  0.50971048  0.14095032  1
  O  O436  1  0.66914626  0.50876474  0.46442922  1
  O  O437  1  0.66785237  0.50311537  0.81045765  1
  O  O438  1  0.00796458  0.16083799  0.30210692  1
  O  O439  1  0.01025954  0.16783639  0.63650735  1
  O  O440  1  0.01126616  0.16555401  0.97319037  1
  O  O441  1  0.00893915  0.67387418  0.30189531  1
  O  O442  1  0.00701554  0.66894669  0.63542149  1
  O  O443  1  0.01269009  0.67068197  0.96595621  1
  O  O444  1  0.50465536  0.16247509  0.30227252  1
  O  O445  1  0.50840129  0.16493482  0.63845533  1
  O  O446  1  0.50747392  0.16398778  0.97147015  1
  O  O447  1  0.50556961  0.65946172  0.30533892  1
  O  O448  1  0.50997882  0.66878317  0.63240001  1
  O  O449  1  0.50639809  0.66520057  0.96758866  1
  O  O450  1  0.33518855  0.49261487  0.20011619  1
  O  O451  1  0.33348794  0.49497208  0.52747943  1
  O  O452  1  0.32779732  0.50454125  0.85077706  1
  O  O453  1  0.34058750  0.99045095  0.20309240  1
  O  O454  1  0.33333881  0.99217161  0.53066158  1
  O  O455  1  0.33549254  0.99120735  0.86352430  1
  O  O456  1  0.85379594  0.49943389  0.19891010  1
  O  O457  1  0.83091118  0.48994579  0.53563217  1
  O  O458  1  0.83684218  0.48583403  0.86465205  1
  O  O459  1  0.82810192  0.99195588  0.19316000  1
  O  O460  1  0.82982981  0.99341592  0.53002941  1
  O  O461  1  0.82820697  0.99015029  0.85824073  1
