# generated using pymatgen
data_Na31Fe20(SO4)36
_symmetry_space_group_name_H-M   'P 1'
_cell_length_a   18.07003184
_cell_length_b   18.06911234
_cell_length_c   19.70327993
_cell_angle_alpha   107.59979047
_cell_angle_beta   107.55608233
_cell_angle_gamma   90.70248701
_symmetry_Int_Tables_number   1
_chemical_formula_structural   Na31Fe20(SO4)36
_chemical_formula_sum   'Na62 Fe40 S72 O288'
_cell_volume   5808.53725133
_cell_formula_units_Z   2
loop_
 _symmetry_equiv_pos_site_id
 _symmetry_equiv_pos_as_xyz
  1  'x, y, z'
loop_
 _atom_site_type_symbol
 _atom_site_label
 _atom_site_symmetry_multiplicity
 _atom_site_fract_x
 _atom_site_fract_y
 _atom_site_fract_z
 _atom_site_occupancy
  Na  Na0  1  0.13895458  0.37298668  0.08977928  1
  Na  Na1  1  0.13505262  0.37985494  0.42097252  1
  Na  Na2  1  0.12439502  0.38597477  0.74092083  1
  Na  Na3  1  0.13190025  0.86782413  0.08240679  1
  Na  Na4  1  0.13698160  0.88063119  0.43238215  1
  Na  Na5  1  0.12669741  0.85031381  0.74045163  1
  Na  Na6  1  0.63620700  0.36353667  0.08602450  1
  Na  Na7  1  0.64845900  0.34841039  0.42141900  1
  Na  Na8  1  0.62894296  0.34537309  0.72357565  1
  Na  Na9  1  0.65484800  0.85747949  0.09412409  1
  Na  Na10  1  0.62972745  0.86610504  0.41404336  1
  Na  Na11  1  0.62945668  0.86027092  0.74495700  1
  Na  Na12  1  0.36155276  0.13861446  0.25000557  1
  Na  Na13  1  0.36175275  0.14248726  0.58505984  1
  Na  Na14  1  0.36573634  0.12898407  0.91428773  1
  Na  Na15  1  0.36121364  0.63214752  0.24756255  1
  Na  Na16  1  0.37181138  0.63582125  0.59330331  1
  Na  Na17  1  0.36066964  0.62809696  0.90500529  1
  Na  Na18  1  0.85695220  0.14156484  0.25564139  1
  Na  Na19  1  0.86704621  0.14675582  0.58348584  1
  Na  Na20  1  0.86333665  0.13193203  0.91350957  1
  Na  Na21  1  0.86208332  0.63206106  0.24506879  1
  Na  Na22  1  0.87442633  0.63081945  0.59069064  1
  Na  Na23  1  0.86994927  0.62642065  0.91251541  1
  Na  Na24  1  0.97592010  0.00727131  0.09116343  1
  Na  Na25  1  0.99562427  0.51554710  0.06269827  1
  Na  Na26  1  1.00316003  -0.00115711  0.72312821  1
  Na  Na27  1  0.49163296  0.52458957  0.74812909  1
  Na  Na28  1  0.54288444  -0.02041903  0.04793721  1
  Na  Na29  1  0.49885645  0.06347042  0.44966139  1
  Na  Na30  1  0.45455165  0.50645427  0.40563835  1
  Na  Na31  1  0.48737235  0.50974773  0.08319090  1
  Na  Na32  1  1.03197520  0.49648814  0.58433920  1
  Na  Na33  1  0.51328261  0.47698706  0.57909974  1
  Na  Na34  1  0.45663739  1.01597857  0.63437753  1
  Na  Na35  1  0.01099883  0.48526880  0.26731604  1
  Na  Na36  1  0.51397323  0.99348265  0.24748291  1
  Na  Na37  1  -0.01912012  1.01027771  0.29719593  1
  Na  Na38  1  0.51584919  0.95489889  0.84669484  1
  Na  Na39  1  0.51116273  0.48872006  0.91321997  1
  Na  Na40  1  0.50314905  0.48957217  0.25105711  1
  Na  Na41  1  -0.00041645  0.93778835  0.89230915  1
  Na  Na42  1  0.25187310  0.25624600  -0.00276209  1
  Na  Na43  1  0.23115221  0.24530209  0.66760194  1
  Na  Na44  1  0.73973357  0.23531526  0.00473076  1
  Na  Na45  1  0.27327962  0.76833458  0.66835991  1
  Na  Na46  1  0.75565042  0.75084789  0.00270964  1
  Na  Na47  1  0.76206320  0.75496705  0.66240327  1
  Na  Na48  1  0.24366772  0.25410957  0.33519568  1
  Na  Na49  1  0.75800294  0.75693835  0.32117976  1
  Na  Na50  1  0.25574010  0.75437570  -0.00308544  1
  Na  Na51  1  0.24781971  0.75323886  0.33952298  1
  Na  Na52  1  0.76003515  0.75671361  0.82960827  1
  Na  Na53  1  0.24883430  0.75134345  0.16727868  1
  Na  Na54  1  0.75264830  0.25243936  0.81956275  1
  Na  Na55  1  0.75733755  0.75186446  0.49431116  1
  Na  Na56  1  0.73213275  0.22979477  0.17575791  1
  Na  Na57  1  0.23338132  0.24684339  0.50657773  1
  Na  Na58  1  0.25789398  0.26416454  0.16562100  1
  Na  Na59  1  0.24654484  0.25292498  0.83056171  1
  Na  Na60  1  0.26137403  0.76417497  0.50522252  1
  Na  Na61  1  0.25220267  0.74200044  0.82376389  1
  Fe  Fe62  1  0.96522528  0.30103279  0.45623809  1
  Fe  Fe63  1  0.46735390  0.80512178  0.12014114  1
  Fe  Fe64  1  0.96482084  0.81045004  0.12485921  1
  Fe  Fe65  1  0.46497609  0.81817317  0.46064658  1
  Fe  Fe66  1  0.96682517  0.30468098  0.77805294  1
  Fe  Fe67  1  0.46434453  0.30214183  0.78161742  1
  Fe  Fe68  1  0.46931322  0.30091297  0.45367749  1
  Fe  Fe69  1  0.46474770  0.30699732  0.11998458  1
  Fe  Fe70  1  0.96531458  0.30720256  0.11695130  1
  Fe  Fe71  1  0.96307974  0.80918309  0.45476080  1
  Fe  Fe72  1  0.18946364  0.53804667  0.04285495  1
  Fe  Fe73  1  0.69472581  0.04490635  0.39381317  1
  Fe  Fe74  1  0.19221840  0.03469646  0.04429617  1
  Fe  Fe75  1  0.19262550  0.03868425  0.38586278  1
  Fe  Fe76  1  0.20341700  0.53650113  0.37704965  1
  Fe  Fe77  1  0.69737184  0.52858276  0.38359717  1
  Fe  Fe78  1  0.69536189  0.52881906  0.71403773  1
  Fe  Fe79  1  0.19297660  0.03290612  0.70361681  1
  Fe  Fe80  1  0.68562892  0.03603079  0.70890310  1
  Fe  Fe81  1  0.69325090  0.53384190  0.04950672  1
  Fe  Fe82  1  0.53525581  0.69934572  0.88147413  1
  Fe  Fe83  1  0.03557238  0.69173462  0.54858607  1
  Fe  Fe84  1  0.03511160  0.19221510  0.87853774  1
  Fe  Fe85  1  0.53786523  0.69303568  0.21777376  1
  Fe  Fe86  1  0.03287951  0.69399829  0.87061519  1
  Fe  Fe87  1  0.03503818  0.19514946  0.21332998  1
  Fe  Fe88  1  0.53265379  0.18485946  0.87730352  1
  Fe  Fe89  1  0.53687405  0.18551760  0.21322150  1
  Fe  Fe90  1  0.53484631  0.69047930  0.54755643  1
  Fe  Fe91  1  0.03378627  0.69716056  0.21512564  1
  Fe  Fe92  1  0.80131860  0.96862192  0.95534019  1
  Fe  Fe93  1  0.30100659  0.47283985  0.62253253  1
  Fe  Fe94  1  0.81098941  0.46025417  0.28837788  1
  Fe  Fe95  1  0.80663291  0.96424730  0.62078678  1
  Fe  Fe96  1  0.80275414  0.97022881  0.29123016  1
  Fe  Fe97  1  0.81368766  0.45900534  0.62088577  1
  Fe  Fe98  1  0.30841606  0.96756322  0.28908447  1
  Fe  Fe99  1  0.80452320  0.46116656  0.94803471  1
  Fe  Fe100  1  0.30298178  0.46726338  0.94802619  1
  Fe  Fe101  1  0.31127558  0.96402605  0.95289518  1
  S  S102  1  0.35676769  0.14060648  0.08323979  1
  S  S103  1  0.35208865  0.14679343  0.41420667  1
  S  S104  1  0.35630202  0.14165938  0.74898974  1
  S  S105  1  0.36269540  0.63982469  0.08476058  1
  S  S106  1  0.36211545  0.64649940  0.41457750  1
  S  S107  1  0.36366313  0.63794421  0.75531981  1
  S  S108  1  0.86028704  0.14308696  0.08130622  1
  S  S109  1  0.85965250  0.14216428  0.41709170  1
  S  S110  1  0.86300097  0.13817446  0.74963779  1
  S  S111  1  0.86106695  0.63684311  0.08279761  1
  S  S112  1  0.86019595  0.63671542  0.41400838  1
  S  S113  1  0.85626924  0.63597373  0.75309400  1
  S  S114  1  0.13849891  0.36333025  0.24705415  1
  S  S115  1  0.13898315  0.36578208  0.57523292  1
  S  S116  1  0.13773175  0.36127596  0.91684303  1
  S  S117  1  0.14050629  0.86295894  0.25319156  1
  S  S118  1  0.13579633  0.86056386  0.58621882  1
  S  S119  1  0.14700805  0.85903752  0.91826293  1
  S  S120  1  0.64081219  0.35777734  0.24852835  1
  S  S121  1  0.64031572  0.36036111  0.58038019  1
  S  S122  1  0.63836265  0.35719024  0.91769404  1
  S  S123  1  0.63947926  0.86148382  0.25302383  1
  S  S124  1  0.64126328  0.85464961  0.58280917  1
  S  S125  1  0.64656429  0.85562037  0.92300851  1
  S  S126  1  0.07132578  0.17194056  0.04241942  1
  S  S127  1  0.06666096  0.17716866  0.37352876  1
  S  S128  1  0.06856368  0.17103767  0.70893494  1
  S  S129  1  0.06770460  0.67745316  0.04282840  1
  S  S130  1  0.07218596  0.67441702  0.37725188  1
  S  S131  1  0.06695819  0.66632858  0.70884374  1
  S  S132  1  0.56349159  0.17170930  0.04274691  1
  S  S133  1  0.55962677  0.16320442  0.36888110  1
  S  S134  1  0.56088603  0.16728707  0.70990724  1
  S  S135  1  0.56868155  0.66701721  0.04339989  1
  S  S136  1  0.56953370  0.66366786  0.37489996  1
  S  S137  1  0.57266441  0.66249109  0.70855130  1
  S  S138  1  0.33338755  0.43704935  0.12319790  1
  S  S139  1  0.33323023  0.43618373  0.45826618  1
  S  S140  1  0.33146607  0.42600335  0.79095687  1
  S  S141  1  0.33142908  0.93328346  0.12662110  1
  S  S142  1  0.33235808  0.94127840  0.45758543  1
  S  S143  1  0.31988087  0.93405840  0.78831548  1
  S  S144  1  0.83003200  0.43036116  0.12262190  1
  S  S145  1  0.83323975  0.42781300  0.45810574  1
  S  S146  1  0.82578010  0.42410259  0.78943753  1
  S  S147  1  0.84193402  0.93774855  0.13254369  1
  S  S148  1  0.82298843  0.92928840  0.45492231  1
  S  S149  1  0.82389936  0.93542784  0.78764118  1
  S  S150  1  0.44022713  0.32710744  0.28908597  1
  S  S151  1  0.42798223  0.33765204  0.62457611  1
  S  S152  1  0.43304596  0.33285580  0.95834138  1
  S  S153  1  0.43203379  0.82879986  0.29027774  1
  S  S154  1  0.43653298  0.82683551  0.62127142  1
  S  S155  1  0.43525028  0.82813526  0.96033753  1
  S  S156  1  0.92916902  0.32652535  0.28781757  1
  S  S157  1  0.93436289  0.33332053  0.62149082  1
  S  S158  1  0.93190816  0.32850094  0.95452179  1
  S  S159  1  0.92886688  0.82657084  0.29211754  1
  S  S160  1  0.93084273  0.82716992  0.62237486  1
  S  S161  1  0.93324318  0.83107185  0.96094109  1
  S  S162  1  0.16853162  0.06793349  0.20773810  1
  S  S163  1  0.16767452  0.07450382  0.54492284  1
  S  S164  1  0.17028880  0.06805082  0.87347985  1
  S  S165  1  0.16549199  0.57322740  0.20561282  1
  S  S166  1  0.17811542  0.57976553  0.54031009  1
  S  S167  1  0.17327064  0.57330383  0.88035531  1
  S  S168  1  0.66678631  0.05820620  0.20833324  1
  S  S169  1  0.67298395  0.06428829  0.54635229  1
  S  S170  1  0.66824009  0.06288624  0.87255640  1
  S  S171  1  0.66728731  0.56308716  0.21005943  1
  S  S172  1  0.66776113  0.56730486  0.54005401  1
  S  S173  1  0.66887120  0.56348245  0.87761943  1
  O  O174  1  0.36418748  0.22126882  0.07745662  1
  O  O175  1  0.36462787  0.22380228  0.40276904  1
  O  O176  1  0.36314044  0.22288510  0.74379781  1
  O  O177  1  0.37097239  0.71987573  0.07850600  1
  O  O178  1  0.37392083  0.72785983  0.41106719  1
  O  O179  1  0.36895991  0.71408285  0.74436462  1
  O  O180  1  0.87512097  0.22044208  0.06984556  1
  O  O181  1  0.87358092  0.21965002  0.40373675  1
  O  O182  1  0.87430283  0.21533683  0.73973496  1
  O  O183  1  0.87044770  0.71560364  0.07494949  1
  O  O184  1  0.86688786  0.71620838  0.40577831  1
  O  O185  1  0.85667837  0.71391107  0.74537873  1
  O  O186  1  0.27770847  0.13108322  0.09224777  1
  O  O187  1  0.26918730  0.14064186  0.41471045  1
  O  O188  1  0.27469058  0.13185008  0.75485616  1
  O  O189  1  0.28541385  0.63130978  0.09595470  1
  O  O190  1  0.28042995  0.64024803  0.41755959  1
  O  O191  1  0.29225435  0.62197529  0.77097800  1
  O  O192  1  0.78320629  0.13960358  0.08982963  1
  O  O193  1  0.77717172  0.13576334  0.41615876  1
  O  O194  1  0.78317511  0.12997220  0.75590026  1
  O  O195  1  0.78294307  0.62556733  0.09065794  1
  O  O196  1  0.78106225  0.62644416  0.42231258  1
  O  O197  1  0.78176877  0.62012841  0.76964508  1
  O  O198  1  0.12819066  0.28401365  0.25523872  1
  O  O199  1  0.14230539  0.28742640  0.58190347  1
  O  O200  1  0.12988109  0.28298807  0.92753412  1
  O  O201  1  0.13097149  0.78342768  0.26050913  1
  O  O202  1  0.12246065  0.78666275  0.60276424  1
  O  O203  1  0.13325563  0.78125956  0.92687679  1
  O  O204  1  0.63202609  0.27573388  0.24738197  1
  O  O205  1  0.63234842  0.28647082  0.59259551  1
  O  O206  1  0.62756855  0.28002506  0.92848786  1
  O  O207  1  0.63022883  0.78254461  0.26236951  1
  O  O208  1  0.63292730  0.77734210  0.59498305  1
  O  O209  1  0.63659853  0.77354304  0.92701641  1
  O  O210  1  0.21246666  0.37201293  0.23357055  1
  O  O211  1  0.21126539  0.38472949  0.55705003  1
  O  O212  1  0.21861097  0.36966644  0.91174900  1
  O  O213  1  0.22033648  0.87080121  0.24583740  1
  O  O214  1  0.21318350  0.86470171  0.57792491  1
  O  O215  1  0.23049881  0.86555069  0.91977858  1
  O  O216  1  0.71701401  0.36966575  0.23546549  1
  O  O217  1  0.71685872  0.37778213  0.57105159  1
  O  O218  1  0.71832485  0.36469754  0.91174320  1
  O  O219  1  0.71848193  0.87010860  0.24598632  1
  O  O220  1  0.72174994  0.86219165  0.57733282  1
  O  O221  1  0.73124777  0.86483753  0.92642803  1
  O  O222  1  0.41582904  0.13085928  0.14945186  1
  O  O223  1  0.40560387  0.14061582  0.48381760  1
  O  O224  1  0.41199227  0.13702028  0.82036101  1
  O  O225  1  0.42396209  0.62997475  0.15111429  1
  O  O226  1  0.41633431  0.63471748  0.48385501  1
  O  O227  1  0.43124612  0.62989276  0.82072444  1
  O  O228  1  0.92146461  0.13428783  0.14843987  1
  O  O229  1  0.91389867  0.13694363  0.48551874  1
  O  O230  1  0.92018968  0.13268810  0.82061302  1
  O  O231  1  0.92149822  0.62910603  0.15053919  1
  O  O232  1  0.91964929  0.62952852  0.48133777  1
  O  O233  1  0.92073845  0.63001443  0.81854346  1
  O  O234  1  0.36203590  0.08381288  0.01317358  1
  O  O235  1  0.36275824  0.08515065  0.34798204  1
  O  O236  1  0.36636860  0.08488998  0.68346060  1
  O  O237  1  0.37058858  0.58200297  0.01598442  1
  O  O238  1  0.37272088  0.58945409  0.34846058  1
  O  O239  1  0.37389484  0.57642625  0.68757132  1
  O  O240  1  0.86756340  0.08189981  0.01329248  1
  O  O241  1  0.86907181  0.08036377  0.34872818  1
  O  O242  1  0.87497671  0.07586670  0.68545240  1
  O  O243  1  0.87074453  0.57718960  0.01494758  1
  O  O244  1  0.86606747  0.57857346  0.34429314  1
  O  O245  1  0.85959643  0.57687318  0.68269414  1
  O  O246  1  0.07314449  0.37314801  0.18239918  1
  O  O247  1  0.07214757  0.36799827  0.50610405  1
  O  O248  1  0.08106287  0.36642440  0.84718360  1
  O  O249  1  0.08286654  0.86958741  0.18417376  1
  O  O250  1  0.07570734  0.86517222  0.51709939  1
  O  O251  1  0.09448150  0.86966084  0.85024520  1
  O  O252  1  0.57790164  0.37418194  0.18646458  1
  O  O253  1  0.57912638  0.36756445  0.51126948  1
  O  O254  1  0.58036800  0.36525226  0.84911942  1
  O  O255  1  0.58066542  0.86647533  0.18302091  1
  O  O256  1  0.58531779  0.85677540  0.51048173  1
  O  O257  1  0.59703733  0.86149632  0.85111303  1
  O  O258  1  0.13261322  0.42261608  0.31682274  1
  O  O259  1  0.12975626  0.42458258  0.64062257  1
  O  O260  1  0.12934663  0.42104909  0.98440256  1
  O  O261  1  0.13169302  0.92164413  0.32074750  1
  O  O262  1  0.12764601  0.92583620  0.65228264  1
  O  O263  1  0.13589780  0.91947507  0.98574968  1
  O  O264  1  0.63811847  0.41193118  0.32138493  1
  O  O265  1  0.62760494  0.42457072  0.64573145  1
  O  O266  1  0.62960039  0.41926131  0.98470370  1
  O  O267  1  0.62743507  0.92110478  0.31824388  1
  O  O268  1  0.62905522  0.91602401  0.64638065  1
  O  O269  1  0.63147399  0.91073177  0.98771636  1
  O  O270  1  0.03550194  0.20271106  0.10386176  1
  O  O271  1  0.02922336  0.20730804  0.43201155  1
  O  O272  1  0.03845908  0.20128195  0.77616922  1
  O  O273  1  0.03113108  0.70694259  0.10449812  1
  O  O274  1  0.03436531  0.70039750  0.43743055  1
  O  O275  1  0.03141774  0.70087698  0.76894052  1
  O  O276  1  0.52451726  0.20416800  0.10260555  1
  O  O277  1  0.52375438  0.19385327  0.42895359  1
  O  O278  1  0.52908027  0.20024521  0.77630905  1
  O  O279  1  0.53444030  0.69818197  0.10641636  1
  O  O280  1  0.53505973  0.69180727  0.43655051  1
  O  O281  1  0.54080833  0.68682467  0.77095485  1
  O  O282  1  0.30188451  0.46825078  0.05815646  1
  O  O283  1  0.30772872  0.47686769  0.40120603  1
  O  O284  1  0.30279873  0.45254027  0.72574554  1
  O  O285  1  0.30430156  0.97027394  0.06611380  1
  O  O286  1  0.29660938  0.97438332  0.39313134  1
  O  O287  1  0.28571325  0.97627378  0.73323917  1
  O  O288  1  0.79990852  0.46731254  0.06187069  1
  O  O289  1  0.80652210  0.46601259  0.39679037  1
  O  O290  1  0.79522433  0.45863421  0.72687665  1
  O  O291  1  0.82717461  0.97433737  0.07312401  1
  O  O292  1  0.79190853  0.96993112  0.39677490  1
  O  O293  1  0.78601672  0.97141544  0.72723967  1
  O  O294  1  0.47383574  0.28827115  0.22646975  1
  O  O295  1  0.46106052  0.31585923  0.56239014  1
  O  O296  1  0.46721738  0.30174236  0.89670279  1
  O  O297  1  0.46938102  0.79719335  0.22953024  1
  O  O298  1  0.47477893  0.79126320  0.55916069  1
  O  O299  1  0.47237527  0.80072301  0.90169512  1
  O  O300  1  0.97013388  0.29864545  0.22980225  1
  O  O301  1  0.97063042  0.30768608  0.55984679  1
  O  O302  1  0.96860633  0.30074593  0.89403059  1
  O  O303  1  0.96730213  0.79897690  0.23123640  1
  O  O304  1  0.96037636  0.79324371  0.55610335  1
  O  O305  1  0.97401918  0.80527701  0.90473642  1
  O  O306  1  0.19560953  0.03091488  0.26817739  1
  O  O307  1  0.19466017  0.03579715  0.60546576  1
  O  O308  1  0.19968369  0.02895559  0.93279784  1
  O  O309  1  0.18712117  0.53852371  0.26608454  1
  O  O310  1  0.21175801  0.54861185  0.60263352  1
  O  O311  1  0.20579847  0.53748865  0.94493987  1
  O  O312  1  0.69687328  0.03136494  0.27656097  1
  O  O313  1  0.70796076  0.02452209  0.60594548  1
  O  O314  1  0.69895450  0.02587252  0.93126434  1
  O  O315  1  0.69646313  0.52711059  0.27097325  1
  O  O316  1  0.69872187  0.53810965  0.60489788  1
  O  O317  1  0.69995663  0.52576476  0.93827602  1
  O  O318  1  0.08829595  0.09036199  0.03776967  1
  O  O319  1  0.09076790  0.09841183  0.37364203  1
  O  O320  1  0.09789976  0.09269334  0.71183420  1
  O  O321  1  0.08516655  0.59591775  0.03908582  1
  O  O322  1  0.09427765  0.59400609  0.36929425  1
  O  O323  1  0.07872459  0.58504559  0.70081107  1
  O  O324  1  0.58130358  0.09308947  0.04010867  1
  O  O325  1  0.58011238  0.08231462  0.37071975  1
  O  O326  1  0.58193395  0.08697700  0.70968971  1
  O  O327  1  0.58159785  0.58266421  0.03761937  1
  O  O328  1  0.58725060  0.58087536  0.36647795  1
  O  O329  1  0.58584224  0.57712003  0.69525153  1
  O  O330  1  0.41496237  0.41536938  0.12449152  1
  O  O331  1  0.41427931  0.41405001  0.45979570  1
  O  O332  1  0.41543695  0.40906838  0.80199203  1
  O  O333  1  0.41268894  0.91305475  0.13377611  1
  O  O334  1  0.41013132  0.91752045  0.45195979  1
  O  O335  1  0.39396353  0.90970821  0.78033916  1
  O  O336  1  0.91327694  0.41628588  0.13014128  1
  O  O337  1  0.91454203  0.40587028  0.46277146  1
  O  O338  1  0.90424049  0.40169199  0.79179739  1
  O  O339  1  0.92744386  0.92303768  0.15321002  1
  O  O340  1  0.90028814  0.90582389  0.45285819  1
  O  O341  1  0.90314562  0.92274287  0.78509598  1
  O  O342  1  0.43601380  0.40960317  0.29313030  1
  O  O343  1  0.41417803  0.42234348  0.64053524  1
  O  O344  1  0.41707581  0.41583372  0.96378458  1
  O  O345  1  0.41536556  0.91011910  0.29312401  1
  O  O346  1  0.40450047  0.89642219  0.60706207  1
  O  O347  1  0.41631980  0.91021918  0.96695384  1
  O  O348  1  0.91676631  0.40996572  0.29364432  1
  O  O349  1  0.92027961  0.41687998  0.63138813  1
  O  O350  1  0.91155773  0.41002232  0.96175271  1
  O  O351  1  0.90462802  0.90520629  0.29400113  1
  O  O352  1  0.90365528  0.90477067  0.61901894  1
  O  O353  1  0.91072598  0.91162785  0.96222905  1
  O  O354  1  0.08587595  0.08521161  0.19832540  1
  O  O355  1  0.09025267  0.09614934  0.53702912  1
  O  O356  1  0.08809556  0.08409165  0.86772910  1
  O  O357  1  0.08129165  0.58946974  0.19002291  1
  O  O358  1  0.09477347  0.59156746  0.53457779  1
  O  O359  1  0.09744053  0.59988145  0.88528154  1
  O  O360  1  0.58429659  0.07870568  0.20297241  1
  O  O361  1  0.59800103  0.08587428  0.55459424  1
  O  O362  1  0.58652289  0.08067107  0.87079159  1
  O  O363  1  0.58400095  0.57931641  0.20343191  1
  O  O364  1  0.58328202  0.58034731  0.53039890  1
  O  O365  1  0.58731074  0.58083816  0.87544077  1
  O  O366  1  0.14276640  0.22415033  0.05849417  1
  O  O367  1  0.13446404  0.23192231  0.38510416  1
  O  O368  1  0.13612343  0.22694262  0.72213389  1
  O  O369  1  0.14078560  0.72863427  0.06176259  1
  O  O370  1  0.14070031  0.73096480  0.39424410  1
  O  O371  1  0.13985602  0.71655993  0.72399503  1
  O  O372  1  0.63470391  0.22590485  0.06114312  1
  O  O373  1  0.62708757  0.21297703  0.37573226  1
  O  O374  1  0.63089191  0.21891832  0.72413497  1
  O  O375  1  0.64179214  0.71404521  0.05820467  1
  O  O376  1  0.64009442  0.71538436  0.38842214  1
  O  O377  1  0.64567807  0.71120739  0.72314819  1
  O  O378  1  0.28165819  0.36553928  0.10873482  1
  O  O379  1  0.27880915  0.36610948  0.43977602  1
  O  O380  1  0.28071575  0.35693024  0.78308788  1
  O  O381  1  0.27750104  0.86275368  0.10978022  1
  O  O382  1  0.27909297  0.87169985  0.44493898  1
  O  O383  1  0.26444883  0.86589943  0.77573143  1
  O  O384  1  0.77961918  0.35784418  0.10489998  1
  O  O385  1  0.77937762  0.36002567  0.44199023  1
  O  O386  1  0.77018515  0.35831595  0.77933335  1
  O  O387  1  0.79098499  0.86443151  0.11003203  1
  O  O388  1  0.76746544  0.85878591  0.43647479  1
  O  O389  1  0.77438322  0.86213866  0.77296089  1
  O  O390  1  0.36292224  0.28402764  0.27180616  1
  O  O391  1  0.35521636  0.28745155  0.60805936  1
  O  O392  1  0.36058533  0.28329193  0.94448681  1
  O  O393  1  0.35955014  0.77733702  0.27236464  1
  O  O394  1  0.37173370  0.76723507  0.60877138  1
  O  O395  1  0.36455385  0.77557454  0.94566016  1
  O  O396  1  0.85530530  0.27740768  0.26569672  1
  O  O397  1  0.86381866  0.28313333  0.60593267  1
  O  O398  1  0.86136140  0.27523093  0.93813522  1
  O  O399  1  0.86191698  0.76981586  0.27592675  1
  O  O400  1  0.86331992  0.77204621  0.61168145  1
  O  O401  1  0.86443509  0.77551165  0.94487586  1
  O  O402  1  0.22011439  0.14037159  0.22566088  1
  O  O403  1  0.22773873  0.14173006  0.56316606  1
  O  O404  1  0.22230893  0.14088700  0.89341778  1
  O  O405  1  0.21766235  0.64563811  0.22399705  1
  O  O406  1  0.22412553  0.65390520  0.55193968  1
  O  O407  1  0.23039489  0.64169728  0.89725690  1
  O  O408  1  0.71734135  0.12690236  0.21732381  1
  O  O409  1  0.72848757  0.12804056  0.55436795  1
  O  O410  1  0.71796957  0.13610062  0.88780057  1
  O  O411  1  0.71750167  0.63445261  0.22514224  1
  O  O412  1  0.71565664  0.63969251  0.55118073  1
  O  O413  1  0.72104263  0.63461028  0.89505576  1
  O  O414  1  0.49265392  0.33546210  0.03103039  1
  O  O415  1  0.49483462  0.32141042  0.36050000  1
  O  O416  1  0.48837556  0.33130987  0.69402053  1
  O  O417  1  0.49452876  0.83341502  0.03526797  1
  O  O418  1  0.48977582  0.82874275  0.36221693  1
  O  O419  1  0.49709510  0.84243501  0.69395023  1
  O  O420  1  0.99199495  0.33227545  0.02750992  1
  O  O421  1  0.98329393  0.32440119  0.36110663  1
  O  O422  1  0.99552249  0.33165182  0.69235759  1
  O  O423  1  0.98945850  0.84146581  0.03834100  1
  O  O424  1  0.99030420  0.83251629  0.36433565  1
  O  O425  1  0.99420238  0.84121134  0.69264689  1
  O  O426  1  0.16979408  0.00939583  0.13579781  1
  O  O427  1  0.17271443  0.01369639  0.47421633  1
  O  O428  1  0.16942666  0.01202212  0.79983952  1
  O  O429  1  0.16973983  0.51426837  0.13452426  1
  O  O430  1  0.17797552  0.51968898  0.46800257  1
  O  O431  1  0.16747869  0.51207408  0.81137236  1
  O  O432  1  0.66108537  -0.00799740  0.14126647  1
  O  O433  1  0.65998628  0.00261679  0.47034736  1
  O  O434  1  0.66327678  0.00586552  0.79787100  1
  O  O435  1  0.66475053  0.50392797  0.13683707  1
  O  O436  1  0.66946497  0.50500157  0.47038967  1
  O  O437  1  0.66417997  0.50482226  0.80433592  1
  O  O438  1  0.00630984  0.16442571  0.29762995  1
  O  O439  1  0.00463424  0.16058310  0.64107372  1
  O  O440  1  0.01202426  0.17036824  0.97040243  1
  O  O441  1  0.01142309  0.67097462  0.30433218  1
  O  O442  1  0.00859134  0.66982907  0.63562188  1
  O  O443  1  0.01020287  0.67792927  0.97148278  1
  O  O444  1  0.49794139  0.14976381  0.29328835  1
  O  O445  1  0.49721887  0.16069441  0.64142692  1
  O  O446  1  0.50584866  0.17224266  0.96964508  1
  O  O447  1  0.50860427  0.66199898  0.30256532  1
  O  O448  1  0.51265824  0.66553676  0.63793228  1
  O  O449  1  0.50865593  0.66607189  0.97209818  1
  O  O450  1  0.34077929  0.49763526  0.19380556  1
  O  O451  1  0.34113226  0.49245264  0.53424770  1
  O  O452  1  0.33468346  0.49023950  0.86221968  1
  O  O453  1  0.33308945  0.99276749  0.19915481  1
  O  O454  1  0.34344261  1.00358930  0.52799285  1
  O  O455  1  0.33253839  0.99123219  0.86614529  1
  O  O456  1  0.82966832  0.48847438  0.19510963  1
  O  O457  1  0.83807080  0.49031089  0.52989791  1
  O  O458  1  0.83159717  0.48808592  0.86157217  1
  O  O459  1  0.83369363  0.99541597  0.20221069  1
  O  O460  1  0.82803737  0.98697040  0.52821258  1
  O  O461  1  0.82724914  0.99158445  0.86246886  1
