# generated using pymatgen
data_Na31Fe20(SO4)36
_symmetry_space_group_name_H-M   'P 1'
_cell_length_a   18.07975770
_cell_length_b   18.07517563
_cell_length_c   19.71394694
_cell_angle_alpha   107.59943813
_cell_angle_beta   107.58665850
_cell_angle_gamma   90.73457828
_symmetry_Int_Tables_number   1
_chemical_formula_structural   Na31Fe20(SO4)36
_chemical_formula_sum   'Na62 Fe40 S72 O288'
_cell_volume   5815.24917738
_cell_formula_units_Z   2
loop_
 _symmetry_equiv_pos_site_id
 _symmetry_equiv_pos_as_xyz
  1  'x, y, z'
loop_
 _atom_site_type_symbol
 _atom_site_label
 _atom_site_symmetry_multiplicity
 _atom_site_fract_x
 _atom_site_fract_y
 _atom_site_fract_z
 _atom_site_occupancy
  Na  Na0  1  0.13956553  0.37017978  0.09362881  1
  Na  Na1  1  0.12227830  0.34039873  0.39895508  1
  Na  Na2  1  0.13410677  0.36496524  0.75067025  1
  Na  Na3  1  0.13528824  0.86862365  0.08760549  1
  Na  Na4  1  0.13266205  0.86714013  0.41595545  1
  Na  Na5  1  0.13854610  0.85841034  0.74438433  1
  Na  Na6  1  0.62042222  0.38061722  0.07712290  1
  Na  Na7  1  0.62066262  0.36174550  0.41057373  1
  Na  Na8  1  0.63163728  0.37641123  0.75813845  1
  Na  Na9  1  0.66907499  0.87224632  0.11263870  1
  Na  Na10  1  0.63343704  0.86112313  0.41017386  1
  Na  Na11  1  0.63485848  0.86816775  0.75435654  1
  Na  Na12  1  0.36722218  0.13544733  0.25409057  1
  Na  Na13  1  0.36430097  0.13336885  0.57874452  1
  Na  Na14  1  0.36832790  0.14140499  0.92072736  1
  Na  Na15  1  0.36302350  0.63032945  0.24728896  1
  Na  Na16  1  0.36374302  0.63759797  0.58912451  1
  Na  Na17  1  0.37470580  0.62618425  0.91952661  1
  Na  Na18  1  0.86770988  0.13460324  0.24373137  1
  Na  Na19  1  0.86035851  0.13195759  0.57567724  1
  Na  Na20  1  0.86697879  0.14523689  0.92171684  1
  Na  Na21  1  0.84164743  0.62547093  0.22153143  1
  Na  Na22  1  0.86462125  0.63256797  0.57882881  1
  Na  Na23  1  0.86711003  0.63613603  0.92172826  1
  Na  Na24  1  0.49212782  0.05171650  0.76385234  1
  Na  Na25  1  0.97386791  0.50488921  0.08690294  1
  Na  Na26  1  0.95682906  0.01372360  0.29276268  1
  Na  Na27  1  0.98792777  0.51502200  0.75013767  1
  Na  Na28  1  0.43103434  0.48951706  0.38122879  1
  Na  Na29  1  1.00542883  0.47914421  0.42072821  1
  Na  Na30  1  0.48817645  0.02010358  0.41134577  1
  Na  Na31  1  0.99307749  0.00671989  0.75418273  1
  Na  Na32  1  0.52810652  -0.01014215  0.07479222  1
  Na  Na33  1  0.50346132  0.45199952  0.57970620  1
  Na  Na34  1  0.51078125  0.98736217  0.58269058  1
  Na  Na35  1  0.01257271  0.48670329  0.25597926  1
  Na  Na36  1  0.00630120  0.44834886  0.57266045  1
  Na  Na37  1  0.55426707  1.00644514  0.93156817  1
  Na  Na38  1  0.00451447  1.00534065  0.55672621  1
  Na  Na39  1  0.52155499  0.99583687  0.24342430  1
  Na  Na40  1  0.01469439  0.49031932  0.92294626  1
  Na  Na41  1  -0.01883802  1.01862551  0.97894666  1
  Na  Na42  1  0.24385137  0.74542334  0.00848819  1
  Na  Na43  1  0.74141774  0.73277504  0.02423026  1
  Na  Na44  1  0.74790189  0.24977270  0.66801451  1
  Na  Na45  1  0.25747122  0.25572184  0.66423209  1
  Na  Na46  1  0.72409991  0.23290958  0.00278643  1
  Na  Na47  1  0.76280403  0.25361777  0.33198080  1
  Na  Na48  1  0.25536123  0.25785752  0.32097917  1
  Na  Na49  1  0.74498818  0.74649033  0.67023460  1
  Na  Na50  1  0.75834893  0.76737382  0.30803275  1
  Na  Na51  1  0.25669237  0.75351171  0.32669225  1
  Na  Na52  1  0.76224619  0.25642448  0.49248260  1
  Na  Na53  1  0.24366828  0.74364741  0.51213133  1
  Na  Na54  1  0.25831489  0.75810714  0.82571421  1
  Na  Na55  1  0.25641236  0.25457742  0.48928314  1
  Na  Na56  1  0.73669441  0.23527802  0.16348074  1
  Na  Na57  1  0.74075554  0.74436971  0.84282407  1
  Na  Na58  1  0.75551906  0.75427904  0.49327498  1
  Na  Na59  1  0.24333068  0.24591047  0.84262549  1
  Na  Na60  1  0.26290965  0.27005219  0.15913037  1
  Na  Na61  1  0.73704995  0.24188053  0.83974777  1
  Fe  Fe62  1  0.46450861  0.80709050  0.44935091  1
  Fe  Fe63  1  0.96531167  0.30922867  0.79042357  1
  Fe  Fe64  1  0.96525554  0.80236208  0.44760259  1
  Fe  Fe65  1  0.46497269  0.81000380  0.78690783  1
  Fe  Fe66  1  0.96795836  0.80969268  0.78875976  1
  Fe  Fe67  1  0.96569629  0.81305126  0.12441567  1
  Fe  Fe68  1  0.47059373  0.30350652  0.79785175  1
  Fe  Fe69  1  0.46219840  0.30945069  0.12081801  1
  Fe  Fe70  1  0.46332308  0.80608588  0.11728268  1
  Fe  Fe71  1  0.96949337  0.29892348  0.12469876  1
  Fe  Fe72  1  0.18474915  0.03536711  0.37385334  1
  Fe  Fe73  1  0.19129292  0.03495511  0.71378747  1
  Fe  Fe74  1  0.19476705  0.03791128  0.05217754  1
  Fe  Fe75  1  0.68522215  0.53492689  0.37747516  1
  Fe  Fe76  1  0.19889270  0.53403922  0.05428216  1
  Fe  Fe77  1  0.19502323  0.53640550  0.71681563  1
  Fe  Fe78  1  0.70227644  0.02969285  0.37969620  1
  Fe  Fe79  1  0.69170728  0.53733516  0.71239511  1
  Fe  Fe80  1  0.69304757  0.03568731  0.71229917  1
  Fe  Fe81  1  0.19702694  0.53036696  0.38098413  1
  Fe  Fe82  1  0.53410811  0.19006317  0.21142822  1
  Fe  Fe83  1  0.03280967  0.19806646  0.54263813  1
  Fe  Fe84  1  0.03920570  0.19391606  0.88449347  1
  Fe  Fe85  1  0.53572027  0.68384864  0.20823997  1
  Fe  Fe86  1  0.52968914  0.20151837  0.54248829  1
  Fe  Fe87  1  0.03621361  0.68866482  0.54694280  1
  Fe  Fe88  1  0.03730053  0.69178482  0.21498192  1
  Fe  Fe89  1  0.53535464  0.69208094  0.88542601  1
  Fe  Fe90  1  0.03582088  0.69602235  0.88491047  1
  Fe  Fe91  1  0.53185737  0.69154908  0.54438041  1
  Fe  Fe92  1  0.31680461  0.46340606  0.96078044  1
  Fe  Fe93  1  0.30688868  0.96621658  0.61950178  1
  Fe  Fe94  1  0.31328420  0.46611916  0.62836996  1
  Fe  Fe95  1  0.80327334  0.96812394  0.95932798  1
  Fe  Fe96  1  0.79604880  0.46979157  0.95296630  1
  Fe  Fe97  1  0.30407925  0.96262955  0.28127396  1
  Fe  Fe98  1  0.80194773  0.46716224  0.28143880  1
  Fe  Fe99  1  0.80780309  0.96396325  0.61996172  1
  Fe  Fe100  1  0.30931525  0.96982701  0.95286798  1
  Fe  Fe101  1  0.80599416  0.46637729  0.61747742  1
  S  S102  1  0.35714687  0.14271881  0.08366232  1
  S  S103  1  0.35708719  0.13645121  0.41513254  1
  S  S104  1  0.35435672  0.14174993  0.74914691  1
  S  S105  1  0.35772739  0.64274163  0.08385205  1
  S  S106  1  0.35623985  0.64666892  0.42053619  1
  S  S107  1  0.36061953  0.64336319  0.75336991  1
  S  S108  1  0.85894279  0.14370597  0.07539692  1
  S  S109  1  0.86123049  0.14025548  0.42119313  1
  S  S110  1  0.86132017  0.14084380  0.75060256  1
  S  S111  1  0.86607032  0.63876779  0.08115095  1
  S  S112  1  0.85864106  0.63988044  0.41650137  1
  S  S113  1  0.86051131  0.64283942  0.74900523  1
  S  S114  1  0.13496050  0.35930487  0.25345522  1
  S  S115  1  0.14578306  0.36130747  0.58675346  1
  S  S116  1  0.14076652  0.36249497  0.91698091  1
  S  S117  1  0.14278922  0.85634098  0.25135776  1
  S  S118  1  0.13794086  0.86050244  0.58237523  1
  S  S119  1  0.14238838  0.86228598  0.91682936  1
  S  S120  1  0.63824643  0.35889412  0.24844583  1
  S  S121  1  0.64535375  0.35924803  0.58465470  1
  S  S122  1  0.64672042  0.35571781  0.91146649  1
  S  S123  1  0.63312437  0.86055995  0.25115678  1
  S  S124  1  0.64039625  0.85785766  0.58225163  1
  S  S125  1  0.64027527  0.85825205  0.92003934  1
  S  S126  1  0.07245506  0.17735722  0.04433429  1
  S  S127  1  0.06735924  0.16453683  0.37621751  1
  S  S128  1  0.06426319  0.16936326  0.70824800  1
  S  S129  1  0.07122533  0.66945940  0.04114565  1
  S  S130  1  0.06832911  0.66683862  0.37750577  1
  S  S131  1  0.06536901  0.66696494  0.70990096  1
  S  S132  1  0.55860988  0.17058396  0.04295340  1
  S  S133  1  0.57065266  0.16351982  0.37659530  1
  S  S134  1  0.56458852  0.16942428  0.70365451  1
  S  S135  1  0.56905292  0.67611089  0.04827070  1
  S  S136  1  0.56510788  0.67209924  0.37768798  1
  S  S137  1  0.56658763  0.67236842  0.70812847  1
  S  S138  1  0.32940432  0.43473462  0.12575719  1
  S  S139  1  0.32893606  0.43499292  0.46239905  1
  S  S140  1  0.32717012  0.42765005  0.79268579  1
  S  S141  1  0.33293581  0.93561398  0.12290473  1
  S  S142  1  0.33129154  0.93235875  0.45830929  1
  S  S143  1  0.33048739  0.93460880  0.79126011  1
  S  S144  1  0.83612583  0.42479170  0.12161816  1
  S  S145  1  0.82805897  0.43757891  0.45594568  1
  S  S146  1  0.83368520  0.43720055  0.79130759  1
  S  S147  1  0.84259128  0.93595941  0.12576851  1
  S  S148  1  0.82941130  0.92702343  0.45891034  1
  S  S149  1  0.83218743  0.93296632  0.79166428  1
  S  S150  1  0.43081322  0.32329511  0.28223514  1
  S  S151  1  0.43246413  0.32625421  0.63000393  1
  S  S152  1  0.43118281  0.32709696  0.95648704  1
  S  S153  1  0.43051253  0.83292729  0.29355380  1
  S  S154  1  0.43613550  0.83693758  0.62667492  1
  S  S155  1  0.43308393  0.83304676  0.95709772  1
  S  S156  1  0.92598206  0.33305024  0.28807300  1
  S  S157  1  0.93488241  0.33145778  0.62896967  1
  S  S158  1  0.93414551  0.33114292  0.95757414  1
  S  S159  1  0.93432586  0.82102344  0.28927872  1
  S  S160  1  0.93407685  0.82960349  0.62516963  1
  S  S161  1  0.93034644  0.82735621  0.95494187  1
  S  S162  1  0.17039065  0.06479789  0.21009810  1
  S  S163  1  0.17210842  0.06855360  0.54413714  1
  S  S164  1  0.16912078  0.06635711  0.87264688  1
  S  S165  1  0.16457398  0.56716391  0.20976222  1
  S  S166  1  0.16899599  0.56504924  0.54341365  1
  S  S167  1  0.16710242  0.56807017  0.87672076  1
  S  S168  1  0.66854633  0.06773800  0.21027218  1
  S  S169  1  0.66942715  0.06300254  0.54236195  1
  S  S170  1  0.67493438  0.06248529  0.87211096  1
  S  S171  1  0.66912456  0.56740032  0.21390288  1
  S  S172  1  0.66903975  0.56823681  0.54323211  1
  S  S173  1  0.67358709  0.57399402  0.87531243  1
  O  O174  1  0.36676773  0.22292088  0.07869694  1
  O  O175  1  0.36023591  0.21291254  0.40519006  1
  O  O176  1  0.36831283  0.22202961  0.74497045  1
  O  O177  1  0.36612812  0.72089432  0.07308188  1
  O  O178  1  0.36542468  0.72906259  0.41917623  1
  O  O179  1  0.36939255  0.72249282  0.74599538  1
  O  O180  1  0.87995796  0.21943333  0.06006286  1
  O  O181  1  0.86118226  0.22211285  0.42275092  1
  O  O182  1  0.87064071  0.21998478  0.74290890  1
  O  O183  1  0.88172483  0.71482467  0.06902386  1
  O  O184  1  0.86694353  0.72095823  0.41255098  1
  O  O185  1  0.87172085  0.72139950  0.74086207  1
  O  O186  1  0.27809565  0.13404183  0.09185215  1
  O  O187  1  0.28149745  0.12106784  0.42819895  1
  O  O188  1  0.27157706  0.13415197  0.74955101  1
  O  O189  1  0.27878015  0.63341895  0.09120376  1
  O  O190  1  0.27737693  0.63567423  0.42829175  1
  O  O191  1  0.28087838  0.63240075  0.76042519  1
  O  O192  1  0.77657928  0.14492137  0.07119823  1
  O  O193  1  0.78662345  0.12191038  0.43764285  1
  O  O194  1  0.78177144  0.13245068  0.75750865  1
  O  O195  1  0.79007273  0.63471010  0.09138765  1
  O  O196  1  0.78209960  0.63056528  0.42919914  1
  O  O197  1  0.78000586  0.63546763  0.75369788  1
  O  O198  1  0.12256954  0.28657588  0.26812905  1
  O  O199  1  0.13313501  0.28443313  0.59806197  1
  O  O200  1  0.13183186  0.28096872  0.91756278  1
  O  O201  1  0.13296032  0.77903413  0.26309977  1
  O  O202  1  0.12758239  0.78120990  0.58843092  1
  O  O203  1  0.13278895  0.78337765  0.92538515  1
  O  O204  1  0.63323583  0.27937969  0.25712006  1
  O  O205  1  0.63403330  0.27958347  0.59074269  1
  O  O206  1  0.64773280  0.27370706  0.90934809  1
  O  O207  1  0.61739533  0.78433071  0.26298753  1
  O  O208  1  0.63024087  0.77850594  0.58886754  1
  O  O209  1  0.63317906  0.77590685  0.92072322  1
  O  O210  1  0.21011090  0.36793415  0.24155896  1
  O  O211  1  0.22847391  0.36765972  0.58641911  1
  O  O212  1  0.21718098  0.37462848  0.90607203  1
  O  O213  1  0.22204910  0.86421707  0.24455754  1
  O  O214  1  0.21643454  0.86993021  0.57337539  1
  O  O215  1  0.22193469  0.87146173  0.90993959  1
  O  O216  1  0.71614518  0.36941793  0.23806250  1
  O  O217  1  0.72727235  0.36659950  0.58117849  1
  O  O218  1  0.71796628  0.37468522  0.88993192  1
  O  O219  1  0.70906300  0.86393671  0.24042191  1
  O  O220  1  0.72071279  0.86683366  0.57714593  1
  O  O221  1  0.71960273  0.86980194  0.91153459  1
  O  O222  1  0.41559569  0.12954421  0.14910974  1
  O  O223  1  0.42015159  0.13033423  0.48294096  1
  O  O224  1  0.40807746  0.12875361  0.81517797  1
  O  O225  1  0.41658957  0.63816896  0.15296534  1
  O  O226  1  0.41505704  0.63767868  0.48925581  1
  O  O227  1  0.41854792  0.63654863  0.82215128  1
  O  O228  1  0.91051470  0.13870351  0.14521321  1
  O  O229  1  0.92486365  0.13045137  0.48754393  1
  O  O230  1  0.92013139  0.13185413  0.81831412  1
  O  O231  1  0.92739699  0.62747262  0.14743429  1
  O  O232  1  0.92065501  0.63062686  0.48299817  1
  O  O233  1  0.91762273  0.63379962  0.81771292  1
  O  O234  1  0.36221546  0.08554167  0.01310716  1
  O  O235  1  0.36815896  0.07496733  0.34896725  1
  O  O236  1  0.36362723  0.08423439  0.67955529  1
  O  O237  1  0.36525545  0.58319245  0.01603974  1
  O  O238  1  0.36522027  0.59196858  0.35271289  1
  O  O239  1  0.36807262  0.58442694  0.68539917  1
  O  O240  1  0.86894461  0.07977297  0.00843632  1
  O  O241  1  0.86654508  0.08736738  0.35103556  1
  O  O242  1  0.86947513  0.08138287  0.68257812  1
  O  O243  1  0.87282162  0.57598215  0.01327096  1
  O  O244  1  0.86436928  0.58336014  0.34661542  1
  O  O245  1  0.87029717  0.58274557  0.68207663  1
  O  O246  1  0.07173340  0.36650924  0.18343809  1
  O  O247  1  0.09200545  0.37043211  0.51822484  1
  O  O248  1  0.07835981  0.37519607  0.85210843  1
  O  O249  1  0.08499196  0.86104250  0.18163417  1
  O  O250  1  0.07793635  0.87128985  0.51585645  1
  O  O251  1  0.08435761  0.86700510  0.84660952  1
  O  O252  1  0.57727301  0.36548563  0.18097957  1
  O  O253  1  0.58902733  0.37091625  0.51922943  1
  O  O254  1  0.57907891  0.36388284  0.84757399  1
  O  O255  1  0.57143021  0.87337260  0.18582056  1
  O  O256  1  0.58299691  0.86762669  0.51405700  1
  O  O257  1  0.58149315  0.86775493  0.85096125  1
  O  O258  1  0.12374476  0.42557745  0.31723800  1
  O  O259  1  0.13440639  0.42250142  0.65366471  1
  O  O260  1  0.13293656  0.41822321  0.98710854  1
  O  O261  1  0.13406558  0.91647686  0.31843887  1
  O  O262  1  0.13146747  0.91920718  0.65151436  1
  O  O263  1  0.13286566  0.92195226  0.98353457  1
  O  O264  1  0.63165562  0.41652089  0.31759349  1
  O  O265  1  0.63862951  0.41741768  0.65483705  1
  O  O266  1  0.64791489  0.40949684  0.98304206  1
  O  O267  1  0.62792343  0.92291533  0.31989453  1
  O  O268  1  0.63086064  0.91683067  0.64959636  1
  O  O269  1  0.62996688  0.91373563  0.98698699  1
  O  O270  1  0.03559879  0.20758093  0.10359888  1
  O  O271  1  0.04828352  0.19885589  0.44669770  1
  O  O272  1  0.02784075  0.19852508  0.76945577  1
  O  O273  1  0.03972627  0.69971192  0.10449955  1
  O  O274  1  0.02992513  0.69838725  0.43740385  1
  O  O275  1  0.02944109  0.69759779  0.77161633  1
  O  O276  1  0.52204521  0.20790038  0.10517812  1
  O  O277  1  0.53469284  0.18826716  0.43672239  1
  O  O278  1  0.52525052  0.19515564  0.76116064  1
  O  O279  1  0.52764628  0.70948499  0.10744642  1
  O  O280  1  0.52533956  0.70295695  0.43748096  1
  O  O281  1  0.53058436  0.70038433  0.76927741  1
  O  O282  1  0.29783846  0.46755360  0.05951596  1
  O  O283  1  0.29675072  0.47426528  0.40483624  1
  O  O284  1  0.30221763  0.47046091  0.73529661  1
  O  O285  1  0.30279054  0.97290178  0.06233898  1
  O  O286  1  0.30199454  0.96534987  0.39603319  1
  O  O287  1  0.29927931  0.97017836  0.72897844  1
  O  O288  1  0.82114397  0.45933249  0.06065420  1
  O  O289  1  0.79189612  0.47254560  0.39506363  1
  O  O290  1  0.80633136  0.47581431  0.73152093  1
  O  O291  1  0.81832325  0.96923496  0.06224415  1
  O  O292  1  0.79960930  0.96032239  0.39827695  1
  O  O293  1  0.80166914  0.97046697  0.73109933  1
  O  O294  1  0.47033832  0.28881276  0.22094231  1
  O  O295  1  0.47322654  0.30330221  0.57299129  1
  O  O296  1  0.47257039  0.30154583  0.90019568  1
  O  O297  1  0.45936243  0.80187983  0.22876762  1
  O  O298  1  0.47367736  0.80849131  0.56636753  1
  O  O299  1  0.46978755  0.80154176  0.89644420  1
  O  O300  1  0.95093604  0.30377571  0.21979959  1
  O  O301  1  0.97395017  0.30646408  0.57162735  1
  O  O302  1  0.97431101  0.29865098  0.89900550  1
  O  O303  1  0.97278309  0.79055692  0.22833466  1
  O  O304  1  0.96884131  0.79965802  0.56363000  1
  O  O305  1  0.97109612  0.80123444  0.89567624  1
  O  O306  1  0.20593775  0.02485628  0.27012296  1
  O  O307  1  0.20058766  0.02878628  0.60365269  1
  O  O308  1  0.19928477  0.03199869  0.93474150  1
  O  O309  1  0.18667245  0.53534208  0.27217464  1
  O  O310  1  0.20031789  0.53128092  0.60623417  1
  O  O311  1  0.19501683  0.53354292  0.93815935  1
  O  O312  1  0.69394178  0.04251548  0.27742990  1
  O  O313  1  0.70100773  0.02704124  0.60467870  1
  O  O314  1  0.70420532  0.02221713  0.92897743  1
  O  O315  1  0.70243977  0.53286120  0.27868283  1
  O  O316  1  0.69988811  0.52979934  0.60354785  1
  O  O317  1  0.70154917  0.53749423  0.93419837  1
  O  O318  1  0.09483238  0.09806108  0.04442527  1
  O  O319  1  0.08262891  0.08025065  0.36913226  1
  O  O320  1  0.07904862  0.08574377  0.70080851  1
  O  O321  1  0.09098457  0.58777896  0.03606433  1
  O  O322  1  0.08691586  0.58619837  0.37690714  1
  O  O323  1  0.08006128  0.58394807  0.70407334  1
  O  O324  1  0.58172593  0.09475590  0.05127633  1
  O  O325  1  0.58837619  0.08028147  0.36865357  1
  O  O326  1  0.58263514  0.08622053  0.69841622  1
  O  O327  1  0.59101929  0.60097384  0.05128835  1
  O  O328  1  0.58311013  0.59223512  0.37689904  1
  O  O329  1  0.58487541  0.59060840  0.69840623  1
  O  O330  1  0.40507940  0.40423394  0.12048473  1
  O  O331  1  0.40995008  0.42262581  0.46487148  1
  O  O332  1  0.40411212  0.40098254  0.79465870  1
  O  O333  1  0.41466880  0.91756423  0.12693097  1
  O  O334  1  0.41476156  0.91640115  0.46531490  1
  O  O335  1  0.41230967  0.91804600  0.79626283  1
  O  O336  1  0.92072915  0.40517816  0.13620439  1
  O  O337  1  0.90969619  0.42707941  0.46030965  1
  O  O338  1  0.91794735  0.42344018  0.79988816  1
  O  O339  1  0.92594811  0.91824981  0.13757064  1
  O  O340  1  0.91079441  0.90657810  0.46491467  1
  O  O341  1  0.91375338  0.91610753  0.79408513  1
  O  O342  1  0.40310362  0.39571919  0.27155534  1
  O  O343  1  0.41529354  0.40852626  0.63734134  1
  O  O344  1  0.41387325  0.40858810  0.96437628  1
  O  O345  1  0.41270732  0.91571040  0.29909922  1
  O  O346  1  0.42043327  0.92025382  0.63304335  1
  O  O347  1  0.41585497  0.91495226  0.96033694  1
  O  O348  1  0.90679659  0.41664465  0.29583450  1
  O  O349  1  0.91567259  0.41429127  0.63447467  1
  O  O350  1  0.92434534  0.41429996  0.96239729  1
  O  O351  1  0.91042889  0.89717386  0.29018482  1
  O  O352  1  0.91737288  0.91238212  0.63295250  1
  O  O353  1  0.90585314  0.90616044  0.95609850  1
  O  O354  1  0.09208003  0.07900416  0.20837114  1
  O  O355  1  0.09261971  0.08965025  0.54339579  1
  O  O356  1  0.08743897  0.08554797  0.86797024  1
  O  O357  1  0.07908031  0.58150374  0.19465364  1
  O  O358  1  0.08597608  0.58124745  0.53887126  1
  O  O359  1  0.08323952  0.58427222  0.86878910  1
  O  O360  1  0.58389384  0.08702176  0.20062330  1
  O  O361  1  0.58629028  0.07507050  0.53540907  1
  O  O362  1  0.59534827  0.08049770  0.86993469  1
  O  O363  1  0.58939387  0.58644275  0.21451419  1
  O  O364  1  0.58945622  0.58825821  0.54183241  1
  O  O365  1  0.59375269  0.59507456  0.86903986  1
  O  O366  1  0.13915333  0.23069309  0.05380502  1
  O  O367  1  0.14089739  0.20926172  0.38381740  1
  O  O368  1  0.13683552  0.22010043  0.72670705  1
  O  O369  1  0.13805887  0.72201848  0.04904627  1
  O  O370  1  0.13903586  0.72010026  0.39497982  1
  O  O371  1  0.13746138  0.71701191  0.72640444  1
  O  O372  1  0.62777733  0.22577261  0.05801105  1
  O  O373  1  0.64189149  0.21600486  0.39316954  1
  O  O374  1  0.63738434  0.22020145  0.72150046  1
  O  O375  1  0.63409843  0.73524631  0.06250447  1
  O  O376  1  0.63668500  0.72504235  0.39745411  1
  O  O377  1  0.63860964  0.72549953  0.72598257  1
  O  O378  1  0.27181940  0.37005101  0.11317360  1
  O  O379  1  0.27833855  0.36161854  0.44436975  1
  O  O380  1  0.26772928  0.36056771  0.77255149  1
  O  O381  1  0.28040502  0.86527948  0.10643604  1
  O  O382  1  0.28077115  0.86136431  0.44540510  1
  O  O383  1  0.27909533  0.86395937  0.77668128  1
  O  O384  1  0.78245896  0.35530524  0.10449696  1
  O  O385  1  0.77941657  0.36441319  0.44174654  1
  O  O386  1  0.78468308  0.36315352  0.77033555  1
  O  O387  1  0.79190417  0.86253415  0.10546574  1
  O  O388  1  0.77712809  0.85682104  0.44676060  1
  O  O389  1  0.78061691  0.86105336  0.77452877  1
  O  O390  1  0.36366374  0.26500004  0.26668740  1
  O  O391  1  0.35960928  0.27287826  0.60669673  1
  O  O392  1  0.35958633  0.27420971  0.93566290  1
  O  O393  1  0.36270269  0.78267266  0.28720737  1
  O  O394  1  0.36422323  0.78642673  0.60960291  1
  O  O395  1  0.36161374  0.78166075  0.94143474  1
  O  O396  1  0.85577140  0.28174011  0.27684875  1
  O  O397  1  0.86353599  0.27924284  0.61231071  1
  O  O398  1  0.85959736  0.28306417  0.93586149  1
  O  O399  1  0.86952984  0.76261565  0.27604170  1
  O  O400  1  0.86208699  0.77886037  0.60996362  1
  O  O401  1  0.86208683  0.77091831  0.93542580  1
  O  O402  1  0.22508616  0.13471545  0.22698909  1
  O  O403  1  0.22604854  0.13895315  0.56209334  1
  O  O404  1  0.22063422  0.13488209  0.88309765  1
  O  O405  1  0.21463274  0.63886594  0.22492226  1
  O  O406  1  0.21863033  0.63643405  0.55697284  1
  O  O407  1  0.21701038  0.64014458  0.89126907  1
  O  O408  1  0.71925031  0.13855627  0.22133275  1
  O  O409  1  0.71869353  0.13686218  0.56170369  1
  O  O410  1  0.72829785  0.13298126  0.88833987  1
  O  O411  1  0.72027113  0.63989219  0.23225567  1
  O  O412  1  0.72332129  0.63877783  0.56106093  1
  O  O413  1  0.72869327  0.64422551  0.89170632  1
  O  O414  1  0.48662316  0.32552071  0.03030091  1
  O  O415  1  0.48962285  0.33448611  0.35494686  1
  O  O416  1  0.48653964  0.32422952  0.70343161  1
  O  O417  1  0.49202680  0.83852462  0.03053382  1
  O  O418  1  0.49502294  0.83960524  0.36542435  1
  O  O419  1  0.49428154  0.83767787  0.69944023  1
  O  O420  1  0.98843782  0.32914709  0.03137895  1
  O  O421  1  0.99046809  0.33839797  0.35584455  1
  O  O422  1  0.99212086  0.33633289  0.70399377  1
  O  O423  1  0.98953280  0.83119370  0.02727840  1
  O  O424  1  0.99680710  0.82622436  0.36248479  1
  O  O425  1  0.99395657  0.83120454  0.69751240  1
  O  O426  1  0.17251922  0.00577057  0.13716910  1
  O  O427  1  0.16948046  0.01008485  0.47154462  1
  O  O428  1  0.16210622  0.00378583  0.79941211  1
  O  O429  1  0.16735823  0.50689626  0.13906110  1
  O  O430  1  0.16397459  0.50415660  0.47099405  1
  O  O431  1  0.16504050  0.50869224  0.80396942  1
  O  O432  1  0.66424251  0.00336667  0.14252138  1
  O  O433  1  0.67275696  0.00514271  0.47183873  1
  O  O434  1  0.67054292  0.00547649  0.79635198  1
  O  O435  1  0.66889839  0.50792726  0.14557707  1
  O  O436  1  0.66579793  0.50993440  0.47044595  1
  O  O437  1  0.67088566  0.51554954  0.80084217  1
  O  O438  1  0.00146050  0.16300835  0.31131406  1
  O  O439  1  0.00671863  0.16933934  0.63581398  1
  O  O440  1  0.01015628  0.16457656  0.96886720  1
  O  O441  1  0.01062752  0.66042391  0.30349071  1
  O  O442  1  0.00665382  0.66700131  0.63782622  1
  O  O443  1  0.00698724  0.66244780  0.96858678  1
  O  O444  1  0.51156390  0.16228709  0.30416389  1
  O  O445  1  0.50878717  0.16496789  0.62844169  1
  O  O446  1  0.50056564  0.15823996  0.96955422  1
  O  O447  1  0.50789707  0.67152024  0.30542865  1
  O  O448  1  0.50751979  0.67463753  0.63699849  1
  O  O449  1  0.50816132  0.67144041  0.97399371  1
  O  O450  1  0.34132142  0.49957944  0.19399729  1
  O  O451  1  0.33095312  0.49038951  0.53815589  1
  O  O452  1  0.33047438  0.48651126  0.86574671  1
  O  O453  1  0.33737936  0.99415871  0.19635868  1
  O  O454  1  0.33462014  0.99272490  0.53106563  1
  O  O455  1  0.33160946  0.99551606  0.86259020  1
  O  O456  1  0.83567301  0.48688715  0.19182686  1
  O  O457  1  0.82852533  0.49496965  0.53015216  1
  O  O458  1  0.83208413  0.49327016  0.86345172  1
  O  O459  1  0.83937834  0.99571771  0.19363349  1
  O  O460  1  0.83625863  0.98808505  0.53356357  1
  O  O461  1  0.83550520  0.99031803  0.86533210  1
