# generated using pymatgen
data_Na31Fe20(SO4)36
_symmetry_space_group_name_H-M   'P 1'
_cell_length_a   18.07514793
_cell_length_b   18.07311707
_cell_length_c   19.70415100
_cell_angle_alpha   107.58482620
_cell_angle_beta   107.57623171
_cell_angle_gamma   90.72174765
_symmetry_Int_Tables_number   1
_chemical_formula_structural   Na31Fe20(SO4)36
_chemical_formula_sum   'Na62 Fe40 S72 O288'
_cell_volume   5811.29079601
_cell_formula_units_Z   2
loop_
 _symmetry_equiv_pos_site_id
 _symmetry_equiv_pos_as_xyz
  1  'x, y, z'
loop_
 _atom_site_type_symbol
 _atom_site_label
 _atom_site_symmetry_multiplicity
 _atom_site_fract_x
 _atom_site_fract_y
 _atom_site_fract_z
 _atom_site_occupancy
  Na  Na0  1  0.13510451  0.35497037  0.07682248  1
  Na  Na1  1  0.15535533  0.34489399  0.41538444  1
  Na  Na2  1  0.13674802  0.37295761  0.74939572  1
  Na  Na3  1  0.12532637  0.87772661  0.08827915  1
  Na  Na4  1  0.12441218  0.86680731  0.40569959  1
  Na  Na5  1  0.13523510  0.86802142  0.75392107  1
  Na  Na6  1  0.62498493  0.35255983  0.06550006  1
  Na  Na7  1  0.63548736  0.36574276  0.41651596  1
  Na  Na8  1  0.63455827  0.36312229  0.75226543  1
  Na  Na9  1  0.64084248  0.87036726  0.09735363  1
  Na  Na10  1  0.67259648  0.87502537  0.44128292  1
  Na  Na11  1  0.63268805  0.86847066  0.74676696  1
  Na  Na12  1  0.36444578  0.13938479  0.25498087  1
  Na  Na13  1  0.36842789  0.14520160  0.59082678  1
  Na  Na14  1  0.36169956  0.15556999  0.92412021  1
  Na  Na15  1  0.36742668  0.63285356  0.25315702  1
  Na  Na16  1  0.36595644  0.63837432  0.58863900  1
  Na  Na17  1  0.36415599  0.62827159  0.91198231  1
  Na  Na18  1  0.85828431  0.12302413  0.23912385  1
  Na  Na19  1  0.84851460  0.12253692  0.56624960  1
  Na  Na20  1  0.87545954  0.13532957  0.92688023  1
  Na  Na21  1  0.87790929  0.61984837  0.24345954  1
  Na  Na22  1  0.86112186  0.63934184  0.57742218  1
  Na  Na23  1  0.86490724  0.62943324  0.91066388  1
  Na  Na24  1  0.49688413  0.51033280  0.40281445  1
  Na  Na25  1  0.50086210  0.06656939  0.76443567  1
  Na  Na26  1  0.48612182  0.01053583  0.08044453  1
  Na  Na27  1  1.01077818  0.46548185  0.13750523  1
  Na  Na28  1  0.96104100  0.00596894  0.75195282  1
  Na  Na29  1  0.48707105  0.49649337  0.75251699  1
  Na  Na30  1  0.49137184  0.50100386  0.10452089  1
  Na  Na31  1  1.01298674  0.48892798  0.40167956  1
  Na  Na32  1  0.50877411  -0.00430851  0.40881595  1
  Na  Na33  1  0.03254897  0.48942213  0.61151848  1
  Na  Na34  1  0.51586291  0.99192798  0.58085191  1
  Na  Na35  1  0.50700800  0.49165665  0.58373964  1
  Na  Na36  1  0.50694758  0.45083867  0.90818176  1
  Na  Na37  1  0.56870968  0.99885005  0.27176887  1
  Na  Na38  1  -0.01129124  1.00622373  0.58715015  1
  Na  Na39  1  0.48959316  1.02715386  0.90619026  1
  Na  Na40  1  -0.06641983  1.00285193  0.33842385  1
  Na  Na41  1  0.01172993  0.49203725  0.91379632  1
  Na  Na42  1  0.74748352  0.24109919  0.33547949  1
  Na  Na43  1  0.23719767  0.74082266  0.34067455  1
  Na  Na44  1  0.75416489  0.25301460  -0.00130589  1
  Na  Na45  1  0.26609438  0.26464130  0.65647500  1
  Na  Na46  1  0.74197400  0.23959524  0.66862683  1
  Na  Na47  1  0.75986532  0.75497839  -0.00263841  1
  Na  Na48  1  0.76203023  0.75587028  0.33002569  1
  Na  Na49  1  0.24163752  0.74442511  0.00837458  1
  Na  Na50  1  0.24147803  0.73554391  0.67720594  1
  Na  Na51  1  0.76201752  0.77360952  0.64316474  1
  Na  Na52  1  0.75411323  0.25178072  0.16225436  1
  Na  Na53  1  0.24170140  0.74054987  0.50511846  1
  Na  Na54  1  0.76393275  0.76138479  0.16702791  1
  Na  Na55  1  0.23021831  0.74124006  0.17556977  1
  Na  Na56  1  0.24772788  0.24756474  0.17010565  1
  Na  Na57  1  0.26036998  0.25930704  0.82676570  1
  Na  Na58  1  0.75835639  0.75804237  0.82394352  1
  Na  Na59  1  0.74313110  0.24319844  0.84009760  1
  Na  Na60  1  0.74137996  0.24221542  0.50311030  1
  Na  Na61  1  0.23747448  0.73351501  0.83987006  1
  Fe  Fe62  1  0.96504544  0.30695933  0.78463544  1
  Fe  Fe63  1  0.46554448  0.81049558  0.12214980  1
  Fe  Fe64  1  0.46483102  0.30914279  0.12052658  1
  Fe  Fe65  1  0.96910506  0.79764391  0.12856764  1
  Fe  Fe66  1  0.46356497  0.80629323  0.45011013  1
  Fe  Fe67  1  0.46797149  0.80953910  0.78652802  1
  Fe  Fe68  1  0.96555797  0.80901669  0.78765340  1
  Fe  Fe69  1  0.45480479  0.31194950  0.44884651  1
  Fe  Fe70  1  0.96737216  0.30869671  0.45164311  1
  Fe  Fe71  1  0.97084102  0.80184717  0.45250933  1
  Fe  Fe72  1  0.18782530  0.03713125  0.04363534  1
  Fe  Fe73  1  0.69883145  0.03338266  0.71120495  1
  Fe  Fe74  1  0.18142235  0.04507715  0.37532924  1
  Fe  Fe75  1  0.19404860  0.53423786  0.05101333  1
  Fe  Fe76  1  0.19123575  0.52963570  0.37776115  1
  Fe  Fe77  1  0.69296607  0.03165194  0.04615336  1
  Fe  Fe78  1  0.18754301  0.03170479  0.70961183  1
  Fe  Fe79  1  0.69162991  0.53984117  0.38034939  1
  Fe  Fe80  1  0.69015286  0.53507316  0.04835677  1
  Fe  Fe81  1  0.69461475  0.53555800  0.71524095  1
  Fe  Fe82  1  0.53287492  0.69307259  0.21744813  1
  Fe  Fe83  1  0.53000885  0.19679244  0.54525095  1
  Fe  Fe84  1  0.03631963  0.19434993  0.88274561  1
  Fe  Fe85  1  0.53449661  0.19483250  0.21416282  1
  Fe  Fe86  1  0.53463945  0.69387134  0.88338164  1
  Fe  Fe87  1  0.02830164  0.19697207  0.20577245  1
  Fe  Fe88  1  0.03506046  0.19007048  0.54237692  1
  Fe  Fe89  1  0.53469546  0.69540258  0.54948109  1
  Fe  Fe90  1  0.03521255  0.68714039  0.87663846  1
  Fe  Fe91  1  0.03740726  0.68761409  0.54911529  1
  Fe  Fe92  1  0.30512345  0.46690358  0.95218509  1
  Fe  Fe93  1  0.30258437  0.96712787  0.94907941  1
  Fe  Fe94  1  0.81126537  0.46435151  0.95441674  1
  Fe  Fe95  1  0.30727371  0.96712404  0.61764104  1
  Fe  Fe96  1  0.30526419  0.97291058  0.28498059  1
  Fe  Fe97  1  0.81123321  0.46414025  0.61822274  1
  Fe  Fe98  1  0.80728827  0.46435443  0.28491063  1
  Fe  Fe99  1  0.30273612  0.46669058  0.62262581  1
  Fe  Fe100  1  0.81558952  0.96084799  0.96023868  1
  Fe  Fe101  1  0.30605673  0.46023581  0.28370262  1
  S  S102  1  0.35978544  0.14027450  0.08074918  1
  S  S103  1  0.35614330  0.14176635  0.41700290  1
  S  S104  1  0.35288850  0.13795536  0.75046765  1
  S  S105  1  0.35959570  0.64263796  0.08613573  1
  S  S106  1  0.36115213  0.63925106  0.41713258  1
  S  S107  1  0.36281782  0.64358887  0.74957655  1
  S  S108  1  0.85769972  0.13869677  0.08313856  1
  S  S109  1  0.85844487  0.15245886  0.42061566  1
  S  S110  1  0.86151544  0.14260624  0.75003212  1
  S  S111  1  0.85470678  0.63359881  0.07920343  1
  S  S112  1  0.86241736  0.63795257  0.41729917  1
  S  S113  1  0.85744787  0.64070882  0.74644228  1
  S  S114  1  0.13924425  0.35896775  0.24929308  1
  S  S115  1  0.14059971  0.35402003  0.57901413  1
  S  S116  1  0.13936311  0.36049189  0.91506885  1
  S  S117  1  0.14460032  0.86600541  0.24954914  1
  S  S118  1  0.14520962  0.85547377  0.58253001  1
  S  S119  1  0.14162753  0.85893845  0.91672822  1
  S  S120  1  0.64112575  0.36166520  0.25284696  1
  S  S121  1  0.63900727  0.36384083  0.58121263  1
  S  S122  1  0.64435922  0.36154688  0.91538749  1
  S  S123  1  0.64039815  0.85331666  0.25360007  1
  S  S124  1  0.63548139  0.86259949  0.58300888  1
  S  S125  1  0.64116816  0.85718821  0.91734337  1
  S  S126  1  0.06744384  0.16931444  0.04363576  1
  S  S127  1  0.06217714  0.16847845  0.36806806  1
  S  S128  1  0.06672804  0.17179965  0.70856580  1
  S  S129  1  0.06642899  0.66781196  0.03918887  1
  S  S130  1  0.06772084  0.66648014  0.37922234  1
  S  S131  1  0.06656908  0.67135055  0.71284352  1
  S  S132  1  0.56423117  0.16750144  0.04211222  1
  S  S133  1  0.55945502  0.17521066  0.37759737  1
  S  S134  1  0.57131394  0.17085254  0.70813986  1
  S  S135  1  0.56490163  0.66948432  0.04334660  1
  S  S136  1  0.56810241  0.67331266  0.37890473  1
  S  S137  1  0.56832754  0.66883689  0.70963488  1
  S  S138  1  0.32848175  0.43318117  0.12745359  1
  S  S139  1  0.33418889  0.44031620  0.46011868  1
  S  S140  1  0.33197503  0.43682968  0.78957195  1
  S  S141  1  0.33071398  0.93589161  0.12189972  1
  S  S142  1  0.33178745  0.93288482  0.45644706  1
  S  S143  1  0.33125225  0.93040920  0.78968332  1
  S  S144  1  0.82031086  0.42851497  0.11993648  1
  S  S145  1  0.82962323  0.43407433  0.45605392  1
  S  S146  1  0.82818321  0.43143892  0.78664998  1
  S  S147  1  0.83042006  0.92516717  0.12312871  1
  S  S148  1  0.85261256  0.93425750  0.45392330  1
  S  S149  1  0.82781801  0.93092281  0.79196051  1
  S  S150  1  0.43418057  0.33234948  0.29026599  1
  S  S151  1  0.43782536  0.33899607  0.62467707  1
  S  S152  1  0.43196589  0.34161394  0.96322712  1
  S  S153  1  0.42629995  0.83054504  0.28875539  1
  S  S154  1  0.43126180  0.83181502  0.62326833  1
  S  S155  1  0.43092919  0.83101444  0.95763719  1
  S  S156  1  0.93150346  0.32647497  0.28887592  1
  S  S157  1  0.93419743  0.33140850  0.62309905  1
  S  S158  1  0.93683703  0.33445320  0.95630778  1
  S  S159  1  0.93366427  0.80722277  0.28123912  1
  S  S160  1  0.94427233  0.83121374  0.62595259  1
  S  S161  1  0.93307082  0.81967592  0.95614407  1
  S  S162  1  0.17212679  0.07974919  0.20804865  1
  S  S163  1  0.17111802  0.06728098  0.54301498  1
  S  S164  1  0.16800919  0.06776804  0.87210467  1
  S  S165  1  0.17248578  0.56468814  0.21319290  1
  S  S166  1  0.17082313  0.56192316  0.54186556  1
  S  S167  1  0.17142428  0.56473993  0.87886266  1
  S  S168  1  0.66444287  0.07093265  0.20566634  1
  S  S169  1  0.65968236  0.06740408  0.53924911  1
  S  S170  1  0.67437011  0.06238868  0.87796900  1
  S  S171  1  0.66804706  0.56709975  0.20966891  1
  S  S172  1  0.66650788  0.56865340  0.54294168  1
  S  S173  1  0.66510276  0.56825079  0.87317673  1
  O  O174  1  0.37235438  0.21804345  0.07274459  1
  O  O175  1  0.36396244  0.21861902  0.40605398  1
  O  O176  1  0.35972329  0.21521919  0.74277684  1
  O  O177  1  0.36948003  0.72213516  0.07931972  1
  O  O178  1  0.36920483  0.71632193  0.40451826  1
  O  O179  1  0.37926400  0.71953145  0.73615224  1
  O  O180  1  0.85888584  0.21490879  0.07243779  1
  O  O181  1  0.86775055  0.23744349  0.42354051  1
  O  O182  1  0.86884674  0.22338624  0.74400112  1
  O  O183  1  0.86782454  0.71530910  0.07762443  1
  O  O184  1  0.87503802  0.71810299  0.41259379  1
  O  O185  1  0.86433385  0.72120168  0.74096693  1
  O  O186  1  0.28024250  0.13127078  0.08640525  1
  O  O187  1  0.27814360  0.12696820  0.42319542  1
  O  O188  1  0.27100364  0.12282125  0.75244675  1
  O  O189  1  0.28159489  0.63502001  0.09671473  1
  O  O190  1  0.28118178  0.63093309  0.42296460  1
  O  O191  1  0.28488007  0.64281717  0.75678555  1
  O  O192  1  0.78137838  0.12262614  0.09590737  1
  O  O193  1  0.78374320  0.13950813  0.43212220  1
  O  O194  1  0.78215320  0.13422911  0.75846462  1
  O  O195  1  0.77382623  0.62989011  0.08683020  1
  O  O196  1  0.78364939  0.62967060  0.42534198  1
  O  O197  1  0.77984739  0.63059056  0.75830410  1
  O  O198  1  0.12250484  0.27712295  0.24990895  1
  O  O199  1  0.13149803  0.27184289  0.58129659  1
  O  O200  1  0.13008122  0.28188148  0.92211523  1
  O  O201  1  0.14871375  0.79008421  0.26207472  1
  O  O202  1  0.13966210  0.77666671  0.59223066  1
  O  O203  1  0.13438525  0.77771263  0.92081119  1
  O  O204  1  0.63099679  0.28477030  0.26543319  1
  O  O205  1  0.62962044  0.28391478  0.58684128  1
  O  O206  1  0.64013138  0.28574977  0.92725889  1
  O  O207  1  0.62680865  0.77103507  0.25531552  1
  O  O208  1  0.62339082  0.78516463  0.59543223  1
  O  O209  1  0.62936119  0.77928919  0.92738261  1
  O  O210  1  0.22260747  0.36395492  0.24998002  1
  O  O211  1  0.22145966  0.36604954  0.57658300  1
  O  O212  1  0.21691689  0.37076999  0.90478789  1
  O  O213  1  0.21788382  0.88301279  0.23201469  1
  O  O214  1  0.22447080  0.86748185  0.57601874  1
  O  O215  1  0.21927104  0.86855599  0.90472752  1
  O  O216  1  0.72089303  0.36749650  0.24548502  1
  O  O217  1  0.71685074  0.37202236  0.57005271  1
  O  O218  1  0.72549879  0.37450674  0.90893650  1
  O  O219  1  0.71529687  0.86015789  0.24112039  1
  O  O220  1  0.71211926  0.86912421  0.57444450  1
  O  O221  1  0.72067797  0.86237542  0.91012907  1
  O  O222  1  0.41769377  0.13099641  0.14934181  1
  O  O223  1  0.41540506  0.13644370  0.48662019  1
  O  O224  1  0.40855113  0.12774346  0.81834760  1
  O  O225  1  0.41969655  0.63171995  0.15270622  1
  O  O226  1  0.41880573  0.63612831  0.48829628  1
  O  O227  1  0.42139155  0.63644359  0.81895524  1
  O  O228  1  0.91974505  0.13643920  0.15330801  1
  O  O229  1  0.92230074  0.13966232  0.48463354  1
  O  O230  1  0.91990086  0.13513541  0.81979104  1
  O  O231  1  0.91150892  0.61313737  0.13805023  1
  O  O232  1  0.92129464  0.62686320  0.48403802  1
  O  O233  1  0.91789380  0.62997645  0.81174378  1
  O  O234  1  0.36937743  0.07942155  0.01334651  1
  O  O235  1  0.36918510  0.08124365  0.35082397  1
  O  O236  1  0.36582287  0.07829866  0.68260238  1
  O  O237  1  0.36544380  0.58431501  0.01726376  1
  O  O238  1  0.37387770  0.57760383  0.35322917  1
  O  O239  1  0.37109821  0.58016290  0.68400940  1
  O  O240  1  0.86804458  0.07772517  0.01787144  1
  O  O241  1  0.86358391  0.10439463  0.34815754  1
  O  O242  1  0.87124501  0.08492443  0.68404196  1
  O  O243  1  0.85338506  0.58080419  0.00327342  1
  O  O244  1  0.86885337  0.57990359  0.34780358  1
  O  O245  1  0.86050543  0.58414198  0.67524012  1
  O  O246  1  0.08825923  0.37433743  0.18326378  1
  O  O247  1  0.08464479  0.36235158  0.50839276  1
  O  O248  1  0.07861201  0.37114570  0.84860886  1
  O  O249  1  0.07865332  0.86668214  0.18301381  1
  O  O250  1  0.08682935  0.85959986  0.51263607  1
  O  O251  1  0.08056790  0.86954510  0.85192500  1
  O  O252  1  0.58339039  0.36651484  0.18308014  1
  O  O253  1  0.57804029  0.37620824  0.51662793  1
  O  O254  1  0.58711238  0.36963077  0.84836660  1
  O  O255  1  0.57735412  0.86613569  0.18717830  1
  O  O256  1  0.57360440  0.87028046  0.51546514  1
  O  O257  1  0.58377367  0.86331511  0.84713479  1
  O  O258  1  0.13176521  0.41359943  0.32055642  1
  O  O259  1  0.12629587  0.40869447  0.64430926  1
  O  O260  1  0.13235067  0.41962435  0.98390581  1
  O  O261  1  0.13854901  0.92679746  0.31770026  1
  O  O262  1  0.13445600  0.91432979  0.64941283  1
  O  O263  1  0.13923756  0.91509541  0.98814475  1
  O  O264  1  0.63382908  0.42339230  0.31976389  1
  O  O265  1  0.63481933  0.42158375  0.65188129  1
  O  O266  1  0.63419949  0.42303734  0.98324062  1
  O  O267  1  0.63348375  0.90853636  0.32262230  1
  O  O268  1  0.62586186  0.92347255  0.65026193  1
  O  O269  1  0.63185659  0.91779149  0.98335609  1
  O  O270  1  0.02652937  0.18893378  0.10122615  1
  O  O271  1  0.02445950  0.20086221  0.42786771  1
  O  O272  1  0.03023489  0.20123882  0.76982438  1
  O  O273  1  0.03142345  0.69722789  0.09876040  1
  O  O274  1  0.03533563  0.70103297  0.44496081  1
  O  O275  1  0.02709933  0.70674628  0.77166885  1
  O  O276  1  0.53505698  0.20175617  0.10880955  1
  O  O277  1  0.52373046  0.21387395  0.43800620  1
  O  O278  1  0.53964338  0.19142060  0.76968376  1
  O  O279  1  0.52755578  0.69956940  0.10363545  1
  O  O280  1  0.53100483  0.70360989  0.44028917  1
  O  O281  1  0.53547331  0.69969186  0.77264533  1
  O  O282  1  0.29729182  0.46859960  0.06522693  1
  O  O283  1  0.29936899  0.47276489  0.39654933  1
  O  O284  1  0.29922953  0.47362643  0.73092276  1
  O  O285  1  0.29984175  0.97172089  0.06026617  1
  O  O286  1  0.30247699  0.96620080  0.39430005  1
  O  O287  1  0.29985454  0.96323306  0.72704306  1
  O  O288  1  0.79151463  0.46977041  0.06148532  1
  O  O289  1  0.80030996  0.47070242  0.39509338  1
  O  O290  1  0.80052057  0.46857920  0.72517419  1
  O  O291  1  0.79786287  0.96079622  0.05969762  1
  O  O292  1  0.85042169  0.96585141  0.39405459  1
  O  O293  1  0.80095396  0.97201856  0.73598525  1
  O  O294  1  0.47142696  0.30236832  0.22982917  1
  O  O295  1  0.46594281  0.30409830  0.55704535  1
  O  O296  1  0.46851137  0.32551881  0.90536637  1
  O  O297  1  0.46233953  0.79812258  0.22788331  1
  O  O298  1  0.46417500  0.79907953  0.55999057  1
  O  O299  1  0.46779149  0.80189863  0.89681144  1
  O  O300  1  0.96826278  0.29530401  0.22964646  1
  O  O301  1  0.97480192  0.30206738  0.56568114  1
  O  O302  1  0.97025079  0.29881747  0.89265883  1
  O  O303  1  0.97762905  0.77417399  0.22882202  1
  O  O304  1  0.98016225  0.79379078  0.56432703  1
  O  O305  1  0.97114120  0.79102679  0.89518013  1
  O  O306  1  0.19975061  0.04387903  0.26990930  1
  O  O307  1  0.19817864  0.02306374  0.59899347  1
  O  O308  1  0.19773792  0.03091777  0.93378424  1
  O  O309  1  0.20859414  0.52656792  0.27344732  1
  O  O310  1  0.20167431  0.52840841  0.60269476  1
  O  O311  1  0.20405171  0.53419456  0.94560671  1
  O  O312  1  0.68805194  0.04173223  0.26882010  1
  O  O313  1  0.68868452  0.03958391  0.60480578  1
  O  O314  1  0.70855037  0.02360463  0.93699532  1
  O  O315  1  0.69970844  0.53011213  0.27033942  1
  O  O316  1  0.69587134  0.53164108  0.60327360  1
  O  O317  1  0.69226843  0.53378823  0.93460436  1
  O  O318  1  0.08680610  0.08768352  0.02969064  1
  O  O319  1  0.06982199  0.08421991  0.36089867  1
  O  O320  1  0.08391272  0.08950280  0.70354638  1
  O  O321  1  0.08855000  0.58698517  0.03527168  1
  O  O322  1  0.09379795  0.58950842  0.38571291  1
  O  O323  1  0.08688216  0.59493619  0.71652266  1
  O  O324  1  0.58109685  0.08452953  0.03743337  1
  O  O325  1  0.56750272  0.09417382  0.37584325  1
  O  O326  1  0.58930811  0.08628874  0.69358432  1
  O  O327  1  0.58083163  0.58722998  0.03755811  1
  O  O328  1  0.58573275  0.59198616  0.37717564  1
  O  O329  1  0.58369775  0.58564519  0.70261639  1
  O  O330  1  0.40948481  0.41493677  0.13065249  1
  O  O331  1  0.41788122  0.42797103  0.46204785  1
  O  O332  1  0.41380311  0.42426816  0.79482064  1
  O  O333  1  0.41304238  0.91969373  0.12626578  1
  O  O334  1  0.41524632  0.91630437  0.46380079  1
  O  O335  1  0.41454228  0.91563221  0.79703555  1
  O  O336  1  0.89646320  0.40463540  0.12032607  1
  O  O337  1  0.91162215  0.41732448  0.46277933  1
  O  O338  1  0.91007729  0.41412376  0.79471618  1
  O  O339  1  0.90366869  0.89292152  0.11591009  1
  O  O340  1  0.93374131  0.90359953  0.47777151  1
  O  O341  1  0.90742967  0.90803057  0.79100504  1
  O  O342  1  0.41447217  0.41311892  0.29330656  1
  O  O343  1  0.41117377  0.41750458  0.62074619  1
  O  O344  1  0.41405250  0.42685345  0.98188607  1
  O  O345  1  0.40973120  0.91224274  0.29253470  1
  O  O346  1  0.41638777  0.91399750  0.62811739  1
  O  O347  1  0.41145303  0.91234191  0.96188249  1
  O  O348  1  0.91006708  0.40665244  0.29033802  1
  O  O349  1  0.91722723  0.41306206  0.62517517  1
  O  O350  1  0.91485427  0.41327141  0.95107617  1
  O  O351  1  0.90685231  0.88012514  0.27175024  1
  O  O352  1  0.93728635  0.91353327  0.63227300  1
  O  O353  1  0.91226074  0.89890082  0.95840650  1
  O  O354  1  0.09379529  0.10546296  0.20643148  1
  O  O355  1  0.09097918  0.08675276  0.54216399  1
  O  O356  1  0.08631002  0.08579980  0.86602970  1
  O  O357  1  0.09411352  0.58009307  0.21331599  1
  O  O358  1  0.08792494  0.57829755  0.53672391  1
  O  O359  1  0.09126888  0.58579462  0.87865237  1
  O  O360  1  0.57880443  0.08692886  0.19256933  1
  O  O361  1  0.57632509  0.08780272  0.53205654  1
  O  O362  1  0.59339657  0.07431968  0.87579703  1
  O  O363  1  0.58792609  0.58748212  0.20922349  1
  O  O364  1  0.58279190  0.58344358  0.53642834  1
  O  O365  1  0.58193740  0.58508521  0.86452829  1
  O  O366  1  0.13782632  0.22464921  0.06698613  1
  O  O367  1  0.13736006  0.21238516  0.38562303  1
  O  O368  1  0.13740948  0.22417535  0.72481630  1
  O  O369  1  0.13710656  0.72101200  0.05279453  1
  O  O370  1  0.13704926  0.72096797  0.39280511  1
  O  O371  1  0.13602758  0.72670615  0.72814541  1
  O  O372  1  0.63673738  0.21606855  0.05492301  1
  O  O373  1  0.63439887  0.22192834  0.39361923  1
  O  O374  1  0.64372641  0.22218390  0.72290330  1
  O  O375  1  0.63638361  0.72080249  0.05924290  1
  O  O376  1  0.63776217  0.72408682  0.39200632  1
  O  O377  1  0.63943444  0.71866603  0.72257653  1
  O  O378  1  0.27740722  0.36383407  0.11606004  1
  O  O379  1  0.29029094  0.36724983  0.44873464  1
  O  O380  1  0.28195972  0.36335840  0.77338261  1
  O  O381  1  0.28046158  0.86384242  0.10621190  1
  O  O382  1  0.28202967  0.86087615  0.44311543  1
  O  O383  1  0.28201132  0.85851170  0.77691866  1
  O  O384  1  0.76225784  0.36101317  0.10328730  1
  O  O385  1  0.77615585  0.36373333  0.43950259  1
  O  O386  1  0.77516884  0.36030506  0.76819876  1
  O  O387  1  0.77049662  0.85946684  0.10847955  1
  O  O388  1  0.79274099  0.86693496  0.43065737  1
  O  O389  1  0.77309575  0.85960722  0.77218780  1
  O  O390  1  0.36518651  0.27925278  0.27537459  1
  O  O391  1  0.37320570  0.28575171  0.61937815  1
  O  O392  1  0.36004060  0.28972323  0.94433741  1
  O  O393  1  0.35507394  0.77928275  0.27432709  1
  O  O394  1  0.35964144  0.78153378  0.60967035  1
  O  O395  1  0.36092822  0.77777984  0.94240135  1
  O  O396  1  0.86178573  0.27375813  0.27657701  1
  O  O397  1  0.86161281  0.28078459  0.60596311  1
  O  O398  1  0.86652000  0.28242048  0.94375663  1
  O  O399  1  0.86597102  0.75110757  0.26911859  1
  O  O400  1  0.87005148  0.78386128  0.60884432  1
  O  O401  1  0.86122041  0.76525365  0.93586209  1
  O  O402  1  0.22894008  0.14472358  0.21957266  1
  O  O403  1  0.22652544  0.13689508  0.56481735  1
  O  O404  1  0.22041091  0.13698217  0.88634182  1
  O  O405  1  0.22586039  0.63594664  0.22983842  1
  O  O406  1  0.22022485  0.63528559  0.55608702  1
  O  O407  1  0.22367162  0.63697572  0.89509555  1
  O  O408  1  0.71268405  0.14336675  0.21660781  1
  O  O409  1  0.71053745  0.13939745  0.55229061  1
  O  O410  1  0.72455497  0.13591593  0.89601792  1
  O  O411  1  0.72117026  0.63583960  0.22276672  1
  O  O412  1  0.71617550  0.64077371  0.55938898  1
  O  O413  1  0.71594657  0.63970691  0.88731654  1
  O  O414  1  0.49009482  0.33831824  0.03624916  1
  O  O415  1  0.49377468  0.33920860  0.36432082  1
  O  O416  1  0.50475805  0.35519475  0.69310700  1
  O  O417  1  0.49097544  0.83523461  0.03064341  1
  O  O418  1  0.48637916  0.83466694  0.36149785  1
  O  O419  1  0.49203396  0.83238742  0.69442977  1
  O  O420  1  0.99786170  0.34588893  0.02795896  1
  O  O421  1  0.99181257  0.33748201  0.36415123  1
  O  O422  1  0.99064649  0.33455291  0.69731270  1
  O  O423  1  0.99027013  0.82005821  0.02803933  1
  O  O424  1  0.98928409  0.82071650  0.36084427  1
  O  O425  1  1.00023281  0.82807941  0.69889993  1
  O  O426  1  0.16443840  0.01607232  0.13600691  1
  O  O427  1  0.16699233  0.01249570  0.46777926  1
  O  O428  1  0.16519362  0.00542411  0.80037745  1
  O  O429  1  0.17067042  0.50685320  0.13919880  1
  O  O430  1  0.16759973  0.50293926  0.46834901  1
  O  O431  1  0.16821142  0.50406106  0.81052389  1
  O  O432  1  0.66462687  0.00908846  0.13428220  1
  O  O433  1  0.65457816  0.00518069  0.46971914  1
  O  O434  1  0.67338108  0.00809747  0.80299582  1
  O  O435  1  0.65909173  0.50653665  0.13569482  1
  O  O436  1  0.66457617  0.50997061  0.46984310  1
  O  O437  1  0.66395948  0.50811705  0.80094253  1
  O  O438  1  0.00574799  0.17200372  0.29507669  1
  O  O439  1  0.00725965  0.16780051  0.63561040  1
  O  O440  1  0.01036634  0.17494859  0.97267513  1
  O  O441  1  0.00649461  0.65558391  0.30950315  1
  O  O442  1  0.00884118  0.66459134  0.63734289  1
  O  O443  1  0.00725453  0.66005702  0.96388189  1
  O  O444  1  0.50429897  0.17563926  0.30347419  1
  O  O445  1  0.51124470  0.17405058  0.63691360  1
  O  O446  1  0.50129648  0.16431164  0.97361155  1
  O  O447  1  0.50585788  0.66822681  0.30683247  1
  O  O448  1  0.50705003  0.66677710  0.63788064  1
  O  O449  1  0.50577597  0.66841911  0.97068000  1
  O  O450  1  0.33324262  0.49541736  0.19950820  1
  O  O451  1  0.33750042  0.50136577  0.53184923  1
  O  O452  1  0.33253775  0.49242756  0.86482752  1
  O  O453  1  0.33206205  0.99546634  0.19373538  1
  O  O454  1  0.33413249  0.99305583  0.52878786  1
  O  O455  1  0.33376390  0.99163016  0.86185394  1
  O  O456  1  0.82335430  0.48772408  0.19364177  1
  O  O457  1  0.82987853  0.49352424  0.52820122  1
  O  O458  1  0.82680957  0.49083117  0.85739614  1
  O  O459  1  0.84250484  0.98704673  0.19417577  1
  O  O460  1  0.85108032  0.99415491  0.52329956  1
  O  O461  1  0.83567457  0.98499094  0.86828820  1
