# generated using pymatgen
data_Na31Fe20(SO4)36
_symmetry_space_group_name_H-M   'P 1'
_cell_length_a   18.07934147
_cell_length_b   18.07689600
_cell_length_c   19.70266861
_cell_angle_alpha   107.60128630
_cell_angle_beta   107.58157948
_cell_angle_gamma   90.70805067
_symmetry_Int_Tables_number   1
_chemical_formula_structural   Na31Fe20(SO4)36
_chemical_formula_sum   'Na62 Fe40 S72 O288'
_cell_volume   5812.80213410
_cell_formula_units_Z   2
loop_
 _symmetry_equiv_pos_site_id
 _symmetry_equiv_pos_as_xyz
  1  'x, y, z'
loop_
 _atom_site_type_symbol
 _atom_site_label
 _atom_site_symmetry_multiplicity
 _atom_site_fract_x
 _atom_site_fract_y
 _atom_site_fract_z
 _atom_site_occupancy
  Na  Na0  1  0.13079784  0.36283046  0.08023017  1
  Na  Na1  1  0.13010826  0.36398219  0.41113383  1
  Na  Na2  1  0.13084061  0.36712979  0.74724671  1
  Na  Na3  1  0.12572274  0.82911573  0.05001260  1
  Na  Na4  1  0.13317135  0.86518925  0.41616866  1
  Na  Na5  1  0.14271757  0.87687472  0.76522031  1
  Na  Na6  1  0.63755014  0.36292819  0.08658959  1
  Na  Na7  1  0.66481298  0.37315528  0.45322224  1
  Na  Na8  1  0.63726101  0.38445943  0.75297484  1
  Na  Na9  1  0.62143077  0.86694580  0.07241148  1
  Na  Na10  1  0.64221053  0.86438459  0.42280562  1
  Na  Na11  1  0.63939719  0.86447163  0.75310113  1
  Na  Na12  1  0.35762941  0.14410957  0.25160716  1
  Na  Na13  1  0.36250016  0.13317129  0.57914497  1
  Na  Na14  1  0.36471422  0.13529916  0.92129786  1
  Na  Na15  1  0.36402530  0.62928798  0.24382946  1
  Na  Na16  1  0.37400289  0.63229042  0.58596061  1
  Na  Na17  1  0.37284384  0.63100376  0.91887958  1
  Na  Na18  1  0.86816160  0.13094324  0.24860707  1
  Na  Na19  1  0.85840391  0.14190496  0.58047101  1
  Na  Na20  1  0.86641825  0.13011981  0.91249757  1
  Na  Na21  1  0.85710672  0.62979776  0.24001937  1
  Na  Na22  1  0.84711750  0.63869472  0.57614290  1
  Na  Na23  1  0.88005571  0.64762268  0.92794499  1
  Na  Na24  1  0.50596136  0.47788113  0.43598146  1
  Na  Na25  1  0.49970683  -0.00746398  0.76817482  1
  Na  Na26  1  0.96025408  0.52909801  0.78322820  1
  Na  Na27  1  0.52225457  0.57249983  0.79276030  1
  Na  Na28  1  1.01437035  -0.02292067  0.08343689  1
  Na  Na29  1  0.54596049  0.48930930  0.02283663  1
  Na  Na30  1  0.98457501  0.01198014  0.41664792  1
  Na  Na31  1  0.49627673  0.01168811  0.40682768  1
  Na  Na32  1  0.99631367  0.52038140  0.06995828  1
  Na  Na33  1  0.00375061  0.94446236  0.23494002  1
  Na  Na34  1  0.01327695  0.99335415  0.90439082  1
  Na  Na35  1  0.48774997  1.02188212  0.21149215  1
  Na  Na36  1  0.50935121  0.45744526  0.22436676  1
  Na  Na37  1  -0.03604348  0.52145179  0.61173556  1
  Na  Na38  1  0.45844871  1.01136854  0.97742635  1
  Na  Na39  1  0.00343946  0.49080235  0.26294812  1
  Na  Na40  1  0.00641563  0.98953584  0.59873977  1
  Na  Na41  1  0.51041745  0.99043800  0.58467593  1
  Na  Na42  1  0.25142205  0.75126264  0.32905637  1
  Na  Na43  1  0.73714062  0.73470221  0.00452718  1
  Na  Na44  1  0.74063650  0.73844069  0.34549807  1
  Na  Na45  1  0.24277351  0.74767205  0.68103294  1
  Na  Na46  1  0.75913572  0.28038992  0.64459960  1
  Na  Na47  1  0.75470381  0.25203513  -0.00342122  1
  Na  Na48  1  0.26706227  0.26026046  0.00108505  1
  Na  Na49  1  0.74416555  0.24685364  0.34751749  1
  Na  Na50  1  0.73836170  0.73586751  0.66615111  1
  Na  Na51  1  0.25544531  0.25424946  0.66178897  1
  Na  Na52  1  0.74622679  0.24497958  0.16964219  1
  Na  Na53  1  0.25910959  0.26080045  0.48347179  1
  Na  Na54  1  0.25707822  0.75280705  0.15683712  1
  Na  Na55  1  0.73430899  0.71831939  0.83211272  1
  Na  Na56  1  0.25747085  0.25227971  0.16462482  1
  Na  Na57  1  0.73212345  0.72875763  0.16602290  1
  Na  Na58  1  0.24654260  0.74389821  0.50827399  1
  Na  Na59  1  0.75381284  0.25825841  0.82170946  1
  Na  Na60  1  0.25558693  0.25286870  0.83132341  1
  Na  Na61  1  0.23303352  0.74784889  0.87019888  1
  Fe  Fe62  1  0.46112550  0.80671317  0.11546930  1
  Fe  Fe63  1  0.46281434  0.30625072  0.45340165  1
  Fe  Fe64  1  0.96298716  0.80880779  0.45429174  1
  Fe  Fe65  1  0.46590692  0.80590486  0.45027858  1
  Fe  Fe66  1  0.46764492  0.31315091  0.78936189  1
  Fe  Fe67  1  0.96633040  0.80323472  0.78555953  1
  Fe  Fe68  1  0.96641451  0.30944151  0.78804875  1
  Fe  Fe69  1  0.96266470  0.31458892  0.45738101  1
  Fe  Fe70  1  0.46689249  0.80400154  0.79505353  1
  Fe  Fe71  1  0.96846548  0.30227356  0.12152734  1
  Fe  Fe72  1  0.69073398  0.03749849  0.37947699  1
  Fe  Fe73  1  0.69382056  0.53470102  0.38292924  1
  Fe  Fe74  1  0.18883849  0.53380547  0.04139062  1
  Fe  Fe75  1  0.19997679  0.02966925  0.04520717  1
  Fe  Fe76  1  0.69136291  0.03349469  0.04364488  1
  Fe  Fe77  1  0.19340691  0.53491231  0.37981621  1
  Fe  Fe78  1  0.69485558  0.03632583  0.71489268  1
  Fe  Fe79  1  0.19133743  0.03512310  0.37943342  1
  Fe  Fe80  1  0.19908317  0.03367659  0.71877893  1
  Fe  Fe81  1  0.18993709  0.53647586  0.71598265  1
  Fe  Fe82  1  0.53675458  0.68597670  0.21004435  1
  Fe  Fe83  1  0.53240523  0.20328443  0.21023417  1
  Fe  Fe84  1  0.03892744  0.18761285  0.21598145  1
  Fe  Fe85  1  0.03551283  0.19393158  0.54906924  1
  Fe  Fe86  1  0.53648086  0.69154422  0.54340212  1
  Fe  Fe87  1  0.03112267  0.69931347  0.21148704  1
  Fe  Fe88  1  0.03422649  0.19085865  0.87927002  1
  Fe  Fe89  1  0.53311704  0.19333449  0.54949363  1
  Fe  Fe90  1  0.03299948  0.69149340  0.54511010  1
  Fe  Fe91  1  0.53428155  0.19571376  0.88119934  1
  Fe  Fe92  1  0.30503550  0.96419541  0.28060585  1
  Fe  Fe93  1  0.30802003  0.46908220  0.62138628  1
  Fe  Fe94  1  0.81017588  0.96428788  0.95103730  1
  Fe  Fe95  1  0.81161865  0.96263221  0.61897287  1
  Fe  Fe96  1  0.30875482  0.46387450  0.28526704  1
  Fe  Fe97  1  0.80365591  0.96411119  0.27954302  1
  Fe  Fe98  1  0.80281731  0.46960969  0.96086778  1
  Fe  Fe99  1  0.81121891  0.46552725  0.28849106  1
  Fe  Fe100  1  0.31002201  0.96491382  0.62023455  1
  Fe  Fe101  1  0.30868739  0.46419522  0.95407040  1
  S  S102  1  0.36149475  0.14035501  0.08964697  1
  S  S103  1  0.36043826  0.13793049  0.41607591  1
  S  S104  1  0.36158762  0.14076765  0.74896607  1
  S  S105  1  0.35926477  0.63823278  0.08473899  1
  S  S106  1  0.35724913  0.64190285  0.41445828  1
  S  S107  1  0.35450253  0.64214757  0.74995746  1
  S  S108  1  0.86160013  0.13849663  0.08348336  1
  S  S109  1  0.86039999  0.13934626  0.41602152  1
  S  S110  1  0.86060937  0.14018826  0.74666619  1
  S  S111  1  0.86228756  0.63813002  0.08627287  1
  S  S112  1  0.86059189  0.64088862  0.41383612  1
  S  S113  1  0.85797259  0.64817720  0.74207784  1
  S  S114  1  0.14080008  0.35739377  0.25128198  1
  S  S115  1  0.14193390  0.35883112  0.58111993  1
  S  S116  1  0.14109420  0.35471955  0.91852753  1
  S  S117  1  0.14422653  0.85911485  0.25177755  1
  S  S118  1  0.14050736  0.86132606  0.58375922  1
  S  S119  1  0.13254913  0.86821225  0.91160616  1
  S  S120  1  0.64861281  0.35760406  0.25339588  1
  S  S121  1  0.63008264  0.36009429  0.58524827  1
  S  S122  1  0.64259315  0.35550888  0.91552999  1
  S  S123  1  0.64000987  0.86206806  0.25112150  1
  S  S124  1  0.63971869  0.86346619  0.58250287  1
  S  S125  1  0.64214460  0.86241682  0.91112574  1
  S  S126  1  0.06890728  0.16535355  0.04307011  1
  S  S127  1  0.06560130  0.16345773  0.37666042  1
  S  S128  1  0.07037132  0.16835441  0.70873934  1
  S  S129  1  0.07027653  0.66046938  0.04227323  1
  S  S130  1  0.06984338  0.67490014  0.37720459  1
  S  S131  1  0.06879170  0.67718308  0.70968402  1
  S  S132  1  0.57004472  0.16834652  0.03976873  1
  S  S133  1  0.56586206  0.16901274  0.37330205  1
  S  S134  1  0.56435080  0.16531113  0.70834369  1
  S  S135  1  0.56682726  0.67780595  0.05191501  1
  S  S136  1  0.56643246  0.67149976  0.37311995  1
  S  S137  1  0.56240154  0.67597328  0.70686177  1
  S  S138  1  0.32375426  0.43215951  0.12103652  1
  S  S139  1  0.32562502  0.43299576  0.45583056  1
  S  S140  1  0.32723960  0.43161755  0.78882881  1
  S  S141  1  0.32462583  0.92891534  0.12663483  1
  S  S142  1  0.33158438  0.93413378  0.45729815  1
  S  S143  1  0.33602963  0.93514407  0.79093863  1
  S  S144  1  0.83500802  0.42548874  0.12644048  1
  S  S145  1  0.83606753  0.43861807  0.45739417  1
  S  S146  1  0.83391642  0.42944825  0.79841644  1
  S  S147  1  0.83028966  0.93506619  0.11961924  1
  S  S148  1  0.83230148  0.93648851  0.45720892  1
  S  S149  1  0.82928470  0.93063679  0.78532587  1
  S  S150  1  0.43687403  0.33407199  0.29272830  1
  S  S151  1  0.42432442  0.32455471  0.62142848  1
  S  S152  1  0.43746511  0.33096167  0.95819868  1
  S  S153  1  0.43296375  0.83031170  0.29120753  1
  S  S154  1  0.43563951  0.83394436  0.62467984  1
  S  S155  1  0.42528942  0.82507685  0.95302569  1
  S  S156  1  0.93364542  0.32450737  0.28948326  1
  S  S157  1  0.93862210  0.33109652  0.62557858  1
  S  S158  1  0.92913813  0.32539273  0.95862706  1
  S  S159  1  0.93076847  0.83131922  0.29289806  1
  S  S160  1  0.93026570  0.82825940  0.62120160  1
  S  S161  1  0.93063369  0.83847451  0.95209299  1
  S  S162  1  0.16987466  0.06511442  0.20830842  1
  S  S163  1  0.16873052  0.06496245  0.54266833  1
  S  S164  1  0.17292978  0.07769476  0.87809062  1
  S  S165  1  0.16603150  0.56391537  0.20981926  1
  S  S166  1  0.17285072  0.57046775  0.54378093  1
  S  S167  1  0.16722785  0.55804052  0.87236582  1
  S  S168  1  0.67168312  0.07141840  0.20975305  1
  S  S169  1  0.66706441  0.06866362  0.54260629  1
  S  S170  1  0.67255072  0.07130858  0.87472006  1
  S  S171  1  0.66746540  0.55979438  0.21144263  1
  S  S172  1  0.66288899  0.56717134  0.53742260  1
  S  S173  1  0.68143562  0.57038534  0.88877015  1
  O  O174  1  0.36085403  0.22097733  0.08819935  1
  O  O175  1  0.36813208  0.21693413  0.40887703  1
  O  O176  1  0.36993026  0.22074475  0.74337615  1
  O  O177  1  0.36484073  0.71817786  0.07950658  1
  O  O178  1  0.36746738  0.72156681  0.40732977  1
  O  O179  1  0.36633278  0.72260999  0.74427711  1
  O  O180  1  0.87089020  0.21798899  0.07605503  1
  O  O181  1  0.87178817  0.21810391  0.40898123  1
  O  O182  1  0.87020112  0.21884769  0.73854144  1
  O  O183  1  0.87306642  0.70788001  0.06638731  1
  O  O184  1  0.87109226  0.72053475  0.40628614  1
  O  O185  1  0.87480921  0.72893197  0.73116524  1
  O  O186  1  0.28655110  0.12064562  0.10369156  1
  O  O187  1  0.28262935  0.12787499  0.42651991  1
  O  O188  1  0.28255840  0.13146252  0.75725526  1
  O  O189  1  0.28288313  0.62566165  0.09712509  1
  O  O190  1  0.27747199  0.63449242  0.42193070  1
  O  O191  1  0.27274084  0.63474165  0.75295431  1
  O  O192  1  0.78342444  0.13079726  0.09356686  1
  O  O193  1  0.78109163  0.13003236  0.42231552  1
  O  O194  1  0.78164309  0.13148610  0.75559830  1
  O  O195  1  0.78719507  0.62949947  0.09867286  1
  O  O196  1  0.78044477  0.63223149  0.41808401  1
  O  O197  1  0.77459398  0.64503749  0.73329279  1
  O  O198  1  0.13002558  0.28068182  0.26191729  1
  O  O199  1  0.13404633  0.28037136  0.59151231  1
  O  O200  1  0.12930240  0.27729766  0.92977693  1
  O  O201  1  0.13087211  0.78256643  0.26353534  1
  O  O202  1  0.13316343  0.78106185  0.58874550  1
  O  O203  1  0.12545179  0.79300485  0.92363830  1
  O  O204  1  0.63775486  0.27601776  0.25684383  1
  O  O205  1  0.62030791  0.27747872  0.59114310  1
  O  O206  1  0.63544838  0.27282973  0.91683754  1
  O  O207  1  0.63149377  0.78257482  0.25848925  1
  O  O208  1  0.63057056  0.78505205  0.59008555  1
  O  O209  1  0.64350517  0.78431117  0.91773436  1
  O  O210  1  0.22050586  0.36706350  0.24569267  1
  O  O211  1  0.22173883  0.36823750  0.57462936  1
  O  O212  1  0.22263849  0.36058920  0.91464716  1
  O  O213  1  0.22815653  0.86510424  0.25525212  1
  O  O214  1  0.21755057  0.87150982  0.57188348  1
  O  O215  1  0.20417646  0.88156812  0.89541974  1
  O  O216  1  0.73010919  0.36507474  0.24929127  1
  O  O217  1  0.70802766  0.36754067  0.57827274  1
  O  O218  1  0.72461633  0.36726442  0.91220434  1
  O  O219  1  0.71780189  0.86955939  0.23932974  1
  O  O220  1  0.71613555  0.87519609  0.57179863  1
  O  O221  1  0.71523894  0.88236105  0.89573875  1
  O  O222  1  0.42516100  0.13314321  0.15730137  1
  O  O223  1  0.42097712  0.12813682  0.48287067  1
  O  O224  1  0.42078099  0.12948811  0.81514979  1
  O  O225  1  0.42094642  0.62942481  0.15112173  1
  O  O226  1  0.41519393  0.63396988  0.48234628  1
  O  O227  1  0.41094285  0.62951982  0.81474986  1
  O  O228  1  0.92168726  0.12974599  0.15041207  1
  O  O229  1  0.91894283  0.12922347  0.48397532  1
  O  O230  1  0.91917119  0.13285198  0.81540045  1
  O  O231  1  0.92438505  0.63391516  0.15635465  1
  O  O232  1  0.91760486  0.63453759  0.48347542  1
  O  O233  1  0.90589933  0.64673608  0.81643616  1
  O  O234  1  0.37018837  0.08647763  0.02096095  1
  O  O235  1  0.36842950  0.07915045  0.34772630  1
  O  O236  1  0.36751981  0.08333604  0.67900573  1
  O  O237  1  0.36486430  0.58042933  0.01506746  1
  O  O238  1  0.36341905  0.58333136  0.34568521  1
  O  O239  1  0.36093639  0.58510668  0.67905935  1
  O  O240  1  0.86731231  0.08092893  0.01380682  1
  O  O241  1  0.86962358  0.07963230  0.34818119  1
  O  O242  1  0.86712234  0.08094097  0.67821719  1
  O  O243  1  0.87363859  0.56794739  0.02405540  1
  O  O244  1  0.87145661  0.58308213  0.34620698  1
  O  O245  1  0.87936471  0.58993828  0.68226881  1
  O  O246  1  0.08331643  0.36320255  0.18079538  1
  O  O247  1  0.08406968  0.36176783  0.51050897  1
  O  O248  1  0.08638935  0.35787660  0.84668297  1
  O  O249  1  0.09238478  0.86679607  0.18203061  1
  O  O250  1  0.07862424  0.87252736  0.51871009  1
  O  O251  1  0.06552080  0.87536082  0.84388324  1
  O  O252  1  0.59311747  0.36816451  0.18649504  1
  O  O253  1  0.57152453  0.36302024  0.51224660  1
  O  O254  1  0.58700792  0.36264412  0.84527751  1
  O  O255  1  0.57885153  0.87528498  0.18774624  1
  O  O256  1  0.57751467  0.87309782  0.51612518  1
  O  O257  1  0.57665916  0.86940697  0.84531879  1
  O  O258  1  0.12860197  0.41980088  0.31597198  1
  O  O259  1  0.13206266  0.41899075  0.64705671  1
  O  O260  1  0.13018761  0.41537625  0.98326555  1
  O  O261  1  0.13175569  0.92065536  0.31794946  1
  O  O262  1  0.13496248  0.91883649  0.65413443  1
  O  O263  1  0.12179731  0.93169597  0.97739663  1
  O  O264  1  0.64013040  0.41323297  0.32289202  1
  O  O265  1  0.61536011  0.41546545  0.64866114  1
  O  O266  1  0.63221016  0.40880147  0.98303350  1
  O  O267  1  0.63899119  0.91994999  0.32343524  1
  O  O268  1  0.63141413  0.92272254  0.65129985  1
  O  O269  1  0.63443599  0.92009466  0.98070875  1
  O  O270  1  0.03224878  0.19594325  0.10417825  1
  O  O271  1  0.02937335  0.19343093  0.43752764  1
  O  O272  1  0.03341436  0.19774324  0.76893140  1
  O  O273  1  0.04415931  0.68102834  0.10999829  1
  O  O274  1  0.03363690  0.70308203  0.43862382  1
  O  O275  1  0.03193879  0.70966172  0.76865563  1
  O  O276  1  0.53776830  0.19395470  0.10172302  1
  O  O277  1  0.52826247  0.19477247  0.43363229  1
  O  O278  1  0.52851835  0.19758498  0.76903824  1
  O  O279  1  0.52925173  0.71458380  0.11464752  1
  O  O280  1  0.52919115  0.70221542  0.43453641  1
  O  O281  1  0.52052293  0.70912803  0.76333517  1
  O  O282  1  0.28945628  0.46866947  0.06010985  1
  O  O283  1  0.29765882  0.47174591  0.39552983  1
  O  O284  1  0.29594682  0.46972831  0.72891850  1
  O  O285  1  0.29156835  0.95665723  0.06252746  1
  O  O286  1  0.30117685  0.97138564  0.39759991  1
  O  O287  1  0.30504308  0.96947642  0.72629103  1
  O  O288  1  0.80881693  0.45472599  0.06193386  1
  O  O289  1  0.80382734  0.47194751  0.39337359  1
  O  O290  1  0.82046363  0.47229342  0.74569329  1
  O  O291  1  0.79330033  0.97130723  0.05874110  1
  O  O292  1  0.80371912  0.97229687  0.39587777  1
  O  O293  1  0.80167566  0.97021411  0.72570580  1
  O  O294  1  0.47738914  0.30924192  0.23620366  1
  O  O295  1  0.45871740  0.29334610  0.55917593  1
  O  O296  1  0.46873334  0.29843631  0.89174178  1
  O  O297  1  0.46781743  0.80110957  0.23020462  1
  O  O298  1  0.46875312  0.80285439  0.56138859  1
  O  O299  1  0.47015511  0.80651403  0.89761452  1
  O  O300  1  0.97247709  0.29314004  0.22999644  1
  O  O301  1  0.97548071  0.29753113  0.56338895  1
  O  O302  1  0.96663246  0.29905309  0.89817525  1
  O  O303  1  0.96932487  0.80563893  0.23482618  1
  O  O304  1  0.97167398  0.79888574  0.56299152  1
  O  O305  1  0.95530864  0.81100792  0.88371393  1
  O  O306  1  0.20194725  0.02920281  0.27051319  1
  O  O307  1  0.19943194  0.03030582  0.60470346  1
  O  O308  1  0.20042388  0.05282420  0.94456235  1
  O  O309  1  0.20038052  0.52655951  0.27017944  1
  O  O310  1  0.20010630  0.53064814  0.60249018  1
  O  O311  1  0.20418539  0.52047298  0.93308468  1
  O  O312  1  0.69998675  0.03218489  0.26947617  1
  O  O313  1  0.69707303  0.03255984  0.60347855  1
  O  O314  1  0.70350504  0.04008782  0.93846407  1
  O  O315  1  0.70219807  0.52620598  0.27516016  1
  O  O316  1  0.68470940  0.53215835  0.59557136  1
  O  O317  1  0.71320327  0.52676288  0.94543094  1
  O  O318  1  0.08605339  0.08393518  0.03853111  1
  O  O319  1  0.08007946  0.07990808  0.37085263  1
  O  O320  1  0.09182022  0.08789868  0.70437074  1
  O  O321  1  0.08439508  0.57464072  0.02711016  1
  O  O322  1  0.08806927  0.59300593  0.36965943  1
  O  O323  1  0.08822255  0.59670001  0.70886817  1
  O  O324  1  0.58701553  0.08475866  0.02767415  1
  O  O325  1  0.58058185  0.08446544  0.36431294  1
  O  O326  1  0.58148686  0.08295718  0.70532368  1
  O  O327  1  0.60154657  0.61072523  0.07021678  1
  O  O328  1  0.58443608  0.59067933  0.36784081  1
  O  O329  1  0.57764395  0.59796995  0.70821518  1
  O  O330  1  0.40133601  0.41276466  0.12070552  1
  O  O331  1  0.40452016  0.41018051  0.45696574  1
  O  O332  1  0.40613037  0.41056664  0.78887051  1
  O  O333  1  0.40556833  0.90775496  0.13026883  1
  O  O334  1  0.41412877  0.91810902  0.46242471  1
  O  O335  1  0.41227124  0.90488279  0.78563813  1
  O  O336  1  0.91899431  0.40972031  0.13949241  1
  O  O337  1  0.91785175  0.41983144  0.46133451  1
  O  O338  1  0.91704756  0.40855973  0.81442597  1
  O  O339  1  0.91199360  0.92745194  0.12299895  1
  O  O340  1  0.91652890  0.92279904  0.46642245  1
  O  O341  1  0.91001541  0.90981716  0.78959017  1
  O  O342  1  0.41861189  0.41727209  0.29928299  1
  O  O343  1  0.40344725  0.40388767  0.62476558  1
  O  O344  1  0.41194942  0.40929675  0.95636650  1
  O  O345  1  0.41270837  0.91183066  0.29716503  1
  O  O346  1  0.42097018  0.91769065  0.62991912  1
  O  O347  1  0.39469478  0.89964218  0.95741786  1
  O  O348  1  0.91641133  0.40526098  0.29120950  1
  O  O349  1  0.92855774  0.41263989  0.63340330  1
  O  O350  1  0.90740942  0.40612637  0.96823039  1
  O  O351  1  0.91261728  0.91448619  0.29823098  1
  O  O352  1  0.91778394  0.91144348  0.62518989  1
  O  O353  1  0.91709302  0.92449690  0.96263893  1
  O  O354  1  0.08664039  0.07869676  0.20428600  1
  O  O355  1  0.08584967  0.08043849  0.53631195  1
  O  O356  1  0.08804134  0.08969142  0.86396320  1
  O  O357  1  0.08521216  0.58006550  0.20975024  1
  O  O358  1  0.09376899  0.59246416  0.54049023  1
  O  O359  1  0.08683081  0.56832268  0.86852389  1
  O  O360  1  0.59311569  0.09490977  0.20862874  1
  O  O361  1  0.58312592  0.08198637  0.53572387  1
  O  O362  1  0.59133685  0.09070892  0.86887202  1
  O  O363  1  0.58764171  0.58032860  0.21338875  1
  O  O364  1  0.57907569  0.58750510  0.52245652  1
  O  O365  1  0.61616672  0.60896595  0.90772535  1
  O  O366  1  0.13969714  0.21768861  0.05911896  1
  O  O367  1  0.13795390  0.21262850  0.39263359  1
  O  O368  1  0.13982144  0.22203128  0.72284294  1
  O  O369  1  0.14502509  0.70788513  0.06011217  1
  O  O370  1  0.14189640  0.72758907  0.39616497  1
  O  O371  1  0.13901779  0.72975803  0.72389497  1
  O  O372  1  0.64190679  0.21905401  0.05349180  1
  O  O373  1  0.63812298  0.21864317  0.39104762  1
  O  O374  1  0.63520351  0.21498471  0.72125471  1
  O  O375  1  0.63003746  0.73821844  0.06247971  1
  O  O376  1  0.63599862  0.72513365  0.38930731  1
  O  O377  1  0.63387208  0.72975024  0.72536872  1
  O  O378  1  0.26895422  0.36300379  0.10748987  1
  O  O379  1  0.26998557  0.36504240  0.43962654  1
  O  O380  1  0.27336639  0.36068203  0.77220877  1
  O  O381  1  0.27428320  0.86362065  0.12545515  1
  O  O382  1  0.28111547  0.86212651  0.44169181  1
  O  O383  1  0.27862583  0.87043783  0.77854540  1
  O  O384  1  0.78407650  0.35425946  0.11314467  1
  O  O385  1  0.78652343  0.36606342  0.44178976  1
  O  O386  1  0.77827596  0.35692082  0.77223505  1
  O  O387  1  0.78319173  0.86181944  0.10532618  1
  O  O388  1  0.78324503  0.86390098  0.44048960  1
  O  O389  1  0.77453705  0.86171203  0.76711545  1
  O  O390  1  0.36499615  0.28226411  0.27383792  1
  O  O391  1  0.35374310  0.27021264  0.60519921  1
  O  O392  1  0.36887618  0.27592993  0.94482279  1
  O  O393  1  0.36312282  0.77712868  0.27756755  1
  O  O394  1  0.36259806  0.78558212  0.60988093  1
  O  O395  1  0.36314118  0.76118076  0.93242338  1
  O  O396  1  0.86249839  0.27217305  0.27223054  1
  O  O397  1  0.86617710  0.28032424  0.60661160  1
  O  O398  1  0.85941520  0.26973309  0.93999419  1
  O  O399  1  0.85965725  0.78013650  0.27766842  1
  O  O400  1  0.85699212  0.78017559  0.60118639  1
  O  O401  1  0.85796878  0.79205622  0.94096406  1
  O  O402  1  0.21780264  0.13782570  0.22428821  1
  O  O403  1  0.21868670  0.13694278  0.55758362  1
  O  O404  1  0.22131876  0.14985516  0.88802729  1
  O  O405  1  0.21707739  0.63593088  0.22588767  1
  O  O406  1  0.22873841  0.64040952  0.56227442  1
  O  O407  1  0.21769356  0.62951421  0.88772619  1
  O  O408  1  0.72817953  0.14013482  0.22782707  1
  O  O409  1  0.71627140  0.14054017  0.55795916  1
  O  O410  1  0.72528119  0.13991189  0.88535350  1
  O  O411  1  0.71913667  0.63222904  0.22792536  1
  O  O412  1  0.71366125  0.63797617  0.54896316  1
  O  O413  1  0.74523960  0.63082538  0.89962942  1
  O  O414  1  0.50109464  0.34035355  0.02711716  1
  O  O415  1  0.49239811  0.33757785  0.36803198  1
  O  O416  1  0.48465245  0.32581790  0.69271604  1
  O  O417  1  0.48552774  0.82972325  0.02718970  1
  O  O418  1  0.49360547  0.83594687  0.36470073  1
  O  O419  1  0.49487672  0.83667068  0.69671980  1
  O  O420  1  0.98952218  0.32579339  0.03018690  1
  O  O421  1  0.99119445  0.32651170  0.36257740  1
  O  O422  1  0.99625924  0.32566586  0.69680834  1
  O  O423  1  0.99501035  0.83965110  0.01877696  1
  O  O424  1  0.98944480  0.83770479  0.36815015  1
  O  O425  1  0.98726771  0.82873521  0.69456269  1
  O  O426  1  0.16659391  0.00498518  0.13620990  1
  O  O427  1  0.16810124  0.00553055  0.47056155  1
  O  O428  1  0.17829569  0.01467637  0.80997406  1
  O  O429  1  0.16123843  0.50616857  0.13597316  1
  O  O430  1  0.16971139  0.51253130  0.47001551  1
  O  O431  1  0.16885936  0.49974612  0.79895856  1
  O  O432  1  0.66659183  0.01255231  0.13640320  1
  O  O433  1  0.66484089  0.00950778  0.46938196  1
  O  O434  1  0.66782085  0.00822312  0.80294023  1
  O  O435  1  0.66142965  0.49974547  0.14062532  1
  O  O436  1  0.65995929  0.50666176  0.46226192  1
  O  O437  1  0.65621973  0.51381796  0.81288863  1
  O  O438  1  0.00756642  0.16243343  0.30384660  1
  O  O439  1  0.00989413  0.16226901  0.63500343  1
  O  O440  1  0.00948735  0.16227292  0.96976010  1
  O  O441  1  0.01123681  0.67580816  0.30604007  1
  O  O442  1  0.00961731  0.66760862  0.63406408  1
  O  O443  1  0.01018342  0.66876406  0.97803655  1
  O  O444  1  0.50698173  0.16862084  0.30097256  1
  O  O445  1  0.50386723  0.15891228  0.63470452  1
  O  O446  1  0.50860326  0.16879951  0.96850843  1
  O  O447  1  0.50567982  0.67081403  0.30161908  1
  O  O448  1  0.50751569  0.67445185  0.63124838  1
  O  O449  1  0.50469434  0.65844300  0.98052972  1
  O  O450  1  0.32751661  0.49160449  0.19506315  1
  O  O451  1  0.33153938  0.49290473  0.52905643  1
  O  O452  1  0.33179570  0.48924694  0.86228635  1
  O  O453  1  0.33703443  0.99632201  0.19941972  1
  O  O454  1  0.33415767  0.99239845  0.53092941  1
  O  O455  1  0.35134602  0.99925001  0.86132944  1
  O  O456  1  0.83338006  0.48793967  0.19616290  1
  O  O457  1  0.83833327  0.49938282  0.52672933  1
  O  O458  1  0.82832966  0.48088473  0.87290055  1
  O  O459  1  0.82969938  0.99283034  0.19346280  1
  O  O460  1  0.83167641  0.99527247  0.52936818  1
  O  O461  1  0.83313371  0.99101691  0.85778928  1
