# generated using pymatgen
data_Na31Fe20(SO4)36
_symmetry_space_group_name_H-M   'P 1'
_cell_length_a   18.07718055
_cell_length_b   18.08094268
_cell_length_c   19.71404919
_cell_angle_alpha   107.60198931
_cell_angle_beta   107.57310687
_cell_angle_gamma   90.73453950
_symmetry_Int_Tables_number   1
_chemical_formula_structural   Na31Fe20(SO4)36
_chemical_formula_sum   'Na62 Fe40 S72 O288'
_cell_volume   5816.70564498
_cell_formula_units_Z   2
loop_
 _symmetry_equiv_pos_site_id
 _symmetry_equiv_pos_as_xyz
  1  'x, y, z'
loop_
 _atom_site_type_symbol
 _atom_site_label
 _atom_site_symmetry_multiplicity
 _atom_site_fract_x
 _atom_site_fract_y
 _atom_site_fract_z
 _atom_site_occupancy
  Na  Na0  1  0.14075605  0.35595097  0.07760454  1
  Na  Na1  1  0.13456449  0.35962490  0.41917117  1
  Na  Na2  1  0.12362249  0.36256474  0.74125850  1
  Na  Na3  1  0.12982180  0.88163985  0.08790844  1
  Na  Na4  1  0.13166637  0.86545660  0.41235636  1
  Na  Na5  1  0.13339844  0.86793783  0.75469602  1
  Na  Na6  1  0.63441611  0.36288035  0.07731144  1
  Na  Na7  1  0.67184573  0.36690499  0.45282182  1
  Na  Na8  1  0.63243736  0.35482172  0.73847360  1
  Na  Na9  1  0.63076129  0.86711924  0.08027854  1
  Na  Na10  1  0.63625372  0.87131072  0.42722810  1
  Na  Na11  1  0.63056874  0.87197235  0.74908034  1
  Na  Na12  1  0.36138181  0.12808398  0.23738373  1
  Na  Na13  1  0.37178789  0.13941776  0.58691425  1
  Na  Na14  1  0.35938900  0.13711451  0.92117464  1
  Na  Na15  1  0.35078783  0.62374489  0.22550103  1
  Na  Na16  1  0.36571147  0.63279748  0.58127341  1
  Na  Na17  1  0.36422927  0.63567388  0.92124010  1
  Na  Na18  1  0.87369963  0.13986044  0.25808594  1
  Na  Na19  1  0.85783354  0.14332597  0.58177344  1
  Na  Na20  1  0.87549802  0.15765013  0.94603791  1
  Na  Na21  1  0.86844348  0.63517786  0.24993630  1
  Na  Na22  1  0.86875782  0.62953027  0.58279368  1
  Na  Na23  1  0.86456931  0.63020530  0.91399530  1
  Na  Na24  1  0.51885828  0.49035452  0.39075591  1
  Na  Na25  1  1.00177856  0.06098317  0.42348919  1
  Na  Na26  1  0.49633250  0.04784844  0.42795110  1
  Na  Na27  1  0.48209986  0.01083722  0.07828663  1
  Na  Na28  1  1.00546774  0.49248044  0.42255960  1
  Na  Na29  1  0.93984161  0.49722775  0.72215564  1
  Na  Na30  1  1.01892004  0.48786404  0.08264801  1
  Na  Na31  1  0.96221872  0.01205535  0.75562420  1
  Na  Na32  1  0.50459595  0.48958461  0.75816885  1
  Na  Na33  1  -0.01853544  1.02213512  0.58176534  1
  Na  Na34  1  0.51338992  0.99175232  0.25393403  1
  Na  Na35  1  0.51245713  1.00005645  0.59392529  1
  Na  Na36  1  -0.04138954  0.31922456  0.46895940  1
  Na  Na37  1  0.49369380  0.48679075  0.94318653  1
  Na  Na38  1  0.51298846  1.00028632  0.89958434  1
  Na  Na39  1  0.00683913  0.44564338  0.23105598  1
  Na  Na40  1  0.51502890  0.48796435  0.57933894  1
  Na  Na41  1  0.03953578  0.49125939  0.92338852  1
  Na  Na42  1  0.23752012  0.73282582  0.02338654  1
  Na  Na43  1  0.75400881  0.75768262  0.33195401  1
  Na  Na44  1  0.25945251  0.75464840  0.31468452  1
  Na  Na45  1  0.23500973  0.24026536  0.67526976  1
  Na  Na46  1  0.25045602  0.24713257  0.33363195  1
  Na  Na47  1  0.74928429  0.25841358  0.65219537  1
  Na  Na48  1  0.75234736  0.24919403  0.34157757  1
  Na  Na49  1  0.75805876  0.76438394  0.65816605  1
  Na  Na50  1  0.24638070  0.74770512  0.66904533  1
  Na  Na51  1  0.75520219  0.75591652  -0.00563958  1
  Na  Na52  1  0.25257969  0.24387564  0.15679440  1
  Na  Na53  1  0.75236182  0.75475113  0.16375368  1
  Na  Na54  1  0.77070032  0.26339889  0.15163632  1
  Na  Na55  1  0.74938921  0.24657533  0.84422155  1
  Na  Na56  1  0.75791512  0.76288816  0.49752648  1
  Na  Na57  1  0.75611523  0.76058929  0.82690618  1
  Na  Na58  1  0.23409120  0.24007752  0.84659984  1
  Na  Na59  1  0.25391669  0.75249067  0.49300309  1
  Na  Na60  1  0.23686088  0.23972347  0.50978990  1
  Na  Na61  1  0.23920275  0.74005368  0.84257538  1
  Fe  Fe62  1  0.96722441  0.80930277  0.12341146  1
  Fe  Fe63  1  0.96595510  0.81160519  0.45606690  1
  Fe  Fe64  1  0.46620030  0.30900943  0.12101833  1
  Fe  Fe65  1  0.46192226  0.80741156  0.78385960  1
  Fe  Fe66  1  0.96454590  0.30924128  0.78539969  1
  Fe  Fe67  1  0.46545894  0.80628078  0.11733964  1
  Fe  Fe68  1  0.96670221  0.81168211  0.79115718  1
  Fe  Fe69  1  0.46527559  0.30415394  0.78484270  1
  Fe  Fe70  1  0.46323416  0.80624033  0.44859117  1
  Fe  Fe71  1  0.46967372  0.29902652  0.45564708  1
  Fe  Fe72  1  0.69147104  0.53738266  0.04706201  1
  Fe  Fe73  1  0.18715066  0.03480977  0.71124586  1
  Fe  Fe74  1  0.18861480  0.53340917  0.71135295  1
  Fe  Fe75  1  0.69959873  0.53324933  0.71148663  1
  Fe  Fe76  1  0.69460336  0.03545016  0.39026657  1
  Fe  Fe77  1  0.18782472  0.03587522  0.37384349  1
  Fe  Fe78  1  0.69507148  0.03588967  0.04951097  1
  Fe  Fe79  1  0.19302714  0.53163011  0.37907185  1
  Fe  Fe80  1  0.69363414  0.53521757  0.37835852  1
  Fe  Fe81  1  0.69975337  0.03481928  0.71403954  1
  Fe  Fe82  1  0.03332299  0.19440466  0.20399894  1
  Fe  Fe83  1  0.53034902  0.69260139  0.54566818  1
  Fe  Fe84  1  0.03529326  0.69178197  0.88362154  1
  Fe  Fe85  1  0.03387120  0.69359574  0.54716872  1
  Fe  Fe86  1  0.03863148  0.68814086  0.21293131  1
  Fe  Fe87  1  0.54004166  0.19362236  0.21648502  1
  Fe  Fe88  1  0.53449541  0.69308879  0.21414328  1
  Fe  Fe89  1  0.03603289  0.19391650  0.88733476  1
  Fe  Fe90  1  0.53691332  0.19115663  0.88091383  1
  Fe  Fe91  1  0.53328921  0.69493434  0.87983238  1
  Fe  Fe92  1  0.81036723  0.46633611  0.28293060  1
  Fe  Fe93  1  0.30889392  0.46204551  0.28408491  1
  Fe  Fe94  1  0.30201620  0.46659965  0.96105099  1
  Fe  Fe95  1  0.30881523  0.46760248  0.62037015  1
  Fe  Fe96  1  0.80723530  0.96502057  0.28803487  1
  Fe  Fe97  1  0.81335118  0.46336895  0.95752980  1
  Fe  Fe98  1  0.29479816  0.96975421  0.95278640  1
  Fe  Fe99  1  0.30883017  0.96592437  0.62092290  1
  Fe  Fe100  1  0.81154562  0.96756295  0.95790261  1
  Fe  Fe101  1  0.30395943  0.96715888  0.28121638  1
  S  S102  1  0.36719103  0.13788697  0.08298087  1
  S  S103  1  0.35799057  0.13906030  0.41764492  1
  S  S104  1  0.35890927  0.13925002  0.74981516  1
  S  S105  1  0.36445522  0.63956539  0.08052286  1
  S  S106  1  0.35862651  0.63935317  0.41295740  1
  S  S107  1  0.35786916  0.64043017  0.75099749  1
  S  S108  1  0.85930896  0.13952826  0.08953199  1
  S  S109  1  0.85541411  0.13585679  0.41421270  1
  S  S110  1  0.86018612  0.14707511  0.75628158  1
  S  S111  1  0.85858321  0.64340500  0.08539707  1
  S  S112  1  0.85936760  0.64450715  0.41604544  1
  S  S113  1  0.85843158  0.64647857  0.75107587  1
  S  S114  1  0.14693553  0.35607374  0.25219127  1
  S  S115  1  0.14689572  0.36188587  0.58260117  1
  S  S116  1  0.14064228  0.35838196  0.91707884  1
  S  S117  1  0.14183796  0.85866315  0.25028294  1
  S  S118  1  0.14356541  0.85626733  0.58107131  1
  S  S119  1  0.14164035  0.85412356  0.91763535  1
  S  S120  1  0.64230744  0.35923650  0.24786285  1
  S  S121  1  0.63526741  0.36605278  0.58879395  1
  S  S122  1  0.63730092  0.36332285  0.91603713  1
  S  S123  1  0.63904906  0.86055748  0.25175220  1
  S  S124  1  0.63425468  0.85877787  0.58657914  1
  S  S125  1  0.63769788  0.86312067  0.91512763  1
  S  S126  1  0.06878751  0.16749662  0.04579188  1
  S  S127  1  0.07263838  0.17374267  0.37073890  1
  S  S128  1  0.06087104  0.16876026  0.71029161  1
  S  S129  1  0.05955365  0.66664502  0.04356894  1
  S  S130  1  0.06652611  0.66693986  0.37596075  1
  S  S131  1  0.06677128  0.67086327  0.70925973  1
  S  S132  1  0.57103775  0.16651120  0.04151857  1
  S  S133  1  0.56811226  0.17006128  0.37320145  1
  S  S134  1  0.56748233  0.16872243  0.71358367  1
  S  S135  1  0.56939305  0.67344159  0.04077830  1
  S  S136  1  0.56880705  0.67409890  0.37667620  1
  S  S137  1  0.56488663  0.66968979  0.70992052  1
  S  S138  1  0.33323965  0.42629842  0.12705402  1
  S  S139  1  0.33457444  0.43365302  0.45753035  1
  S  S140  1  0.33264905  0.43330016  0.79419089  1
  S  S141  1  0.33812895  0.93009819  0.12360152  1
  S  S142  1  0.33028566  0.93239050  0.45642971  1
  S  S143  1  0.32729268  0.93213496  0.79032935  1
  S  S144  1  0.83005734  0.44050674  0.12231247  1
  S  S145  1  0.83271073  0.44711899  0.45264412  1
  S  S146  1  0.82827810  0.43682331  0.79552115  1
  S  S147  1  0.82371213  0.92611686  0.12270679  1
  S  S148  1  0.83053206  0.93535731  0.45947350  1
  S  S149  1  0.82735231  0.93307809  0.79320010  1
  S  S150  1  0.43405674  0.32389087  0.29162807  1
  S  S151  1  0.42823884  0.33344248  0.62535068  1
  S  S152  1  0.42925440  0.32561265  0.95440144  1
  S  S153  1  0.43433669  0.83390625  0.29198517  1
  S  S154  1  0.42838918  0.82823882  0.62250554  1
  S  S155  1  0.43146419  0.83152155  0.95441218  1
  S  S156  1  0.93845745  0.33177679  0.29108582  1
  S  S157  1  0.92904299  0.32595893  0.62439013  1
  S  S158  1  0.94076695  0.33930517  0.95998892  1
  S  S159  1  0.93241205  0.82982813  0.29165286  1
  S  S160  1  0.93971837  0.83493988  0.62608462  1
  S  S161  1  0.93053071  0.82542418  0.95738235  1
  S  S162  1  0.17346967  0.07213741  0.20809912  1
  S  S163  1  0.16937100  0.06191407  0.54303466  1
  S  S164  1  0.16564196  0.06386818  0.86882926  1
  S  S165  1  0.16820827  0.55969481  0.21062380  1
  S  S166  1  0.17271014  0.57057136  0.54231704  1
  S  S167  1  0.17106286  0.56600587  0.87600846  1
  S  S168  1  0.66765620  0.06310183  0.20944685  1
  S  S169  1  0.66549821  0.06170745  0.54734715  1
  S  S170  1  0.67605214  0.07078358  0.87911313  1
  S  S171  1  0.67295666  0.57307622  0.21034851  1
  S  S172  1  0.66082617  0.57236606  0.53854575  1
  S  S173  1  0.66791427  0.57075863  0.87564424  1
  O  O174  1  0.38093833  0.21488186  0.07308002  1
  O  O175  1  0.36842611  0.21812650  0.40963919  1
  O  O176  1  0.36916636  0.21779333  0.74057997  1
  O  O177  1  0.37804707  0.71493685  0.06470223  1
  O  O178  1  0.36725356  0.71946120  0.40621924  1
  O  O179  1  0.36648008  0.71969774  0.74324298  1
  O  O180  1  0.85949081  0.21511213  0.07804472  1
  O  O181  1  0.86816816  0.21239478  0.40587960  1
  O  O182  1  0.86584177  0.22858121  0.75258907  1
  O  O183  1  0.86536057  0.72321338  0.07832570  1
  O  O184  1  0.86948693  0.72500521  0.41036592  1
  O  O185  1  0.86567154  0.72891126  0.74897933  1
  O  O186  1  0.29391690  0.13058214  0.09741359  1
  O  O187  1  0.27772528  0.13099257  0.42386998  1
  O  O188  1  0.27731665  0.13098785  0.75288809  1
  O  O189  1  0.28803112  0.63550567  0.08987799  1
  O  O190  1  0.27960884  0.63042201  0.42110475  1
  O  O191  1  0.27854534  0.63080814  0.75800282  1
  O  O192  1  0.78459855  0.12292100  0.10491633  1
  O  O193  1  0.77310630  0.12702749  0.41562442  1
  O  O194  1  0.77974056  0.13446714  0.76089770  1
  O  O195  1  0.78001989  0.63400478  0.09476396  1
  O  O196  1  0.77916699  0.63660860  0.42168312  1
  O  O197  1  0.77979111  0.63552516  0.76034719  1
  O  O198  1  0.13131957  0.27534077  0.25587229  1
  O  O199  1  0.14503316  0.28363857  0.58956524  1
  O  O200  1  0.13289644  0.27695352  0.91968380  1
  O  O201  1  0.13175547  0.77958736  0.25893742  1
  O  O202  1  0.13456141  0.77624900  0.58742189  1
  O  O203  1  0.13548794  0.77010818  0.91780714  1
  O  O204  1  0.63516402  0.28115901  0.25898269  1
  O  O205  1  0.62324852  0.29429657  0.60549428  1
  O  O206  1  0.62841354  0.28683065  0.92751559  1
  O  O207  1  0.62906507  0.78164240  0.25977660  1
  O  O208  1  0.61836491  0.78346678  0.60091351  1
  O  O209  1  0.62818859  0.78466176  0.92437214  1
  O  O210  1  0.23041611  0.36153990  0.25435762  1
  O  O211  1  0.22496615  0.37734050  0.57118660  1
  O  O212  1  0.22004180  0.36894672  0.90925054  1
  O  O213  1  0.22195057  0.86867246  0.24548887  1
  O  O214  1  0.22284273  0.86521129  0.57325778  1
  O  O215  1  0.21924998  0.86547992  0.90568725  1
  O  O216  1  0.72075287  0.36902758  0.23877796  1
  O  O217  1  0.71143792  0.37726197  0.58019108  1
  O  O218  1  0.71708984  0.37450110  0.91100553  1
  O  O219  1  0.71891990  0.86716457  0.24495247  1
  O  O220  1  0.71111395  0.85876256  0.57679380  1
  O  O221  1  0.71669372  0.87091450  0.90750205  1
  O  O222  1  0.43233353  0.12584686  0.14693063  1
  O  O223  1  0.41559764  0.12916542  0.48359800  1
  O  O224  1  0.41462611  0.13285337  0.81997802  1
  O  O225  1  0.42572105  0.63673027  0.15004797  1
  O  O226  1  0.41680078  0.63292158  0.48236578  1
  O  O227  1  0.41677817  0.63260668  0.81900808  1
  O  O228  1  0.92299251  0.13661894  0.15864673  1
  O  O229  1  0.90984992  0.12097221  0.47946074  1
  O  O230  1  0.91665637  0.14006357  0.82716381  1
  O  O231  1  0.91845426  0.63585575  0.15295862  1
  O  O232  1  0.91676721  0.63677846  0.48495105  1
  O  O233  1  0.91819126  0.63618929  0.81825374  1
  O  O234  1  0.37115336  0.07652206  0.01291383  1
  O  O235  1  0.36571804  0.08041591  0.34785775  1
  O  O236  1  0.36873450  0.07984243  0.68294807  1
  O  O237  1  0.37317560  0.57587662  0.01498850  1
  O  O238  1  0.36800753  0.58137866  0.34582374  1
  O  O239  1  0.36678473  0.58260584  0.68268819  1
  O  O240  1  0.86743147  0.07778076  0.02331566  1
  O  O241  1  0.86451454  0.07591838  0.34427895  1
  O  O242  1  0.87420104  0.09129969  0.69137335  1
  O  O243  1  0.86501483  0.58535381  0.01663697  1
  O  O244  1  0.86962382  0.58731098  0.34863278  1
  O  O245  1  0.86584868  0.59162078  0.68278367  1
  O  O246  1  0.09513270  0.36965910  0.18556566  1
  O  O247  1  0.08599374  0.37205977  0.51876508  1
  O  O248  1  0.08298120  0.36834237  0.84812197  1
  O  O249  1  0.08391020  0.86466991  0.18136548  1
  O  O250  1  0.08502443  0.86372516  0.51265150  1
  O  O251  1  0.08136550  0.86115829  0.84915114  1
  O  O252  1  0.58322974  0.36125340  0.17719291  1
  O  O253  1  0.57342226  0.37130480  0.51863695  1
  O  O254  1  0.57988286  0.36886680  0.84538027  1
  O  O255  1  0.58154226  0.86874007  0.18268952  1
  O  O256  1  0.57404297  0.86635338  0.51825257  1
  O  O257  1  0.57832354  0.87072764  0.84662809  1
  O  O258  1  0.13666931  0.41296244  0.32159364  1
  O  O259  1  0.14378790  0.41955038  0.65467643  1
  O  O260  1  0.13048854  0.41485984  0.98363272  1
  O  O261  1  0.13298970  0.91745496  0.31797045  1
  O  O262  1  0.13588993  0.91378348  0.64937480  1
  O  O263  1  0.13629266  0.90756160  0.98629436  1
  O  O264  1  0.63188753  0.41989032  0.31361960  1
  O  O265  1  0.62274979  0.43328100  0.65255986  1
  O  O266  1  0.62401866  0.42515879  0.98076611  1
  O  O267  1  0.62938350  0.91999728  0.31857090  1
  O  O268  1  0.62786525  0.92286402  0.65258883  1
  O  O269  1  0.62813237  0.92326640  0.98179919  1
  O  O270  1  0.02850055  0.19665418  0.10569485  1
  O  O271  1  0.03498965  0.19546684  0.42842342  1
  O  O272  1  0.03008806  0.19952690  0.77573122  1
  O  O273  1  0.02370386  0.70387578  0.10525001  1
  O  O274  1  0.02949035  0.69790596  0.43641126  1
  O  O275  1  0.02778482  0.70002420  0.76819560  1
  O  O276  1  0.53825156  0.19696185  0.10426122  1
  O  O277  1  0.53252312  0.19818788  0.43336261  1
  O  O278  1  0.53272093  0.19932498  0.77809354  1
  O  O279  1  0.53907117  0.70601366  0.10518588  1
  O  O280  1  0.53162927  0.70320248  0.43768922  1
  O  O281  1  0.52703480  0.70106971  0.77034118  1
  O  O282  1  0.30722137  0.46087629  0.06637255  1
  O  O283  1  0.30546467  0.47253828  0.39812197  1
  O  O284  1  0.30608277  0.47154274  0.73434078  1
  O  O285  1  0.31667232  0.96297388  0.06178016  1
  O  O286  1  0.30183349  0.96868880  0.39582631  1
  O  O287  1  0.29914401  0.96848964  0.72924512  1
  O  O288  1  0.79198735  0.47552768  0.06039555  1
  O  O289  1  0.79375718  0.47593839  0.38422445  1
  O  O290  1  0.80357273  0.47638419  0.73755495  1
  O  O291  1  0.79298745  0.96048097  0.06022346  1
  O  O292  1  0.79529417  0.96377340  0.39269042  1
  O  O293  1  0.79970063  0.97110590  0.73511234  1
  O  O294  1  0.47217726  0.29582247  0.23142833  1
  O  O295  1  0.45738506  0.30579733  0.56171858  1
  O  O296  1  0.46895497  0.30072668  0.89470546  1
  O  O297  1  0.46950662  0.80274765  0.22988048  1
  O  O298  1  0.46042217  0.79517628  0.55907482  1
  O  O299  1  0.46946546  0.80121527  0.89388979  1
  O  O300  1  0.97590079  0.30030269  0.23162499  1
  O  O301  1  0.96666892  0.28437765  0.57069254  1
  O  O302  1  0.97234526  0.30582190  0.89537816  1
  O  O303  1  0.96997651  0.79975097  0.23175147  1
  O  O304  1  0.97550750  0.79857238  0.56418589  1
  O  O305  1  0.97065539  0.79625045  0.89878442  1
  O  O306  1  0.20126117  0.03487291  0.27140782  1
  O  O307  1  0.20437217  0.02296973  0.60241178  1
  O  O308  1  0.19526241  0.02850859  0.92879671  1
  O  O309  1  0.20104312  0.52556725  0.27468846  1
  O  O310  1  0.20252963  0.53763978  0.60528573  1
  O  O311  1  0.19923632  0.52911302  0.93491230  1
  O  O312  1  0.69495684  0.02371267  0.26791045  1
  O  O313  1  0.70302758  0.02785502  0.60706194  1
  O  O314  1  0.70535071  0.03386083  0.94064595  1
  O  O315  1  0.70397919  0.53440937  0.26930922  1
  O  O316  1  0.68847990  0.54400168  0.60291934  1
  O  O317  1  0.69707540  0.53710368  0.93802380  1
  O  O318  1  0.08445040  0.08820940  0.03727265  1
  O  O319  1  0.08765282  0.08944324  0.35813600  1
  O  O320  1  0.08409911  0.08777730  0.70680357  1
  O  O321  1  0.06964142  0.58592923  0.04258659  1
  O  O322  1  0.08327006  0.58496931  0.37187265  1
  O  O323  1  0.08755756  0.59138360  0.70677510  1
  O  O324  1  0.58366185  0.08203044  0.03338401  1
  O  O325  1  0.58656579  0.08742839  0.36997198  1
  O  O326  1  0.59186734  0.08959759  0.71219651  1
  O  O327  1  0.58562837  0.59141604  0.03438540  1
  O  O328  1  0.58979255  0.59390687  0.37326688  1
  O  O329  1  0.58219181  0.58850563  0.70634328  1
  O  O330  1  0.41544866  0.40861785  0.13741148  1
  O  O331  1  0.41565744  0.41449331  0.46214195  1
  O  O332  1  0.41653468  0.41724481  0.80224350  1
  O  O333  1  0.42395048  0.91576012  0.13764584  1
  O  O334  1  0.41272316  0.91483651  0.46379198  1
  O  O335  1  0.40951390  0.91385832  0.79692874  1
  O  O336  1  0.91036037  0.43083859  0.12238567  1
  O  O337  1  0.91507505  0.44177070  0.45733161  1
  O  O338  1  0.91144405  0.42150788  0.80478808  1
  O  O339  1  0.90192708  0.90320361  0.12433092  1
  O  O340  1  0.91063108  0.91329416  0.45929431  1
  O  O341  1  0.90697387  0.91021156  0.79317714  1
  O  O342  1  0.41417811  0.40498856  0.29670915  1
  O  O343  1  0.41570371  0.41892788  0.63789607  1
  O  O344  1  0.40740505  0.40575002  0.95947688  1
  O  O345  1  0.41752061  0.91606006  0.29673102  1
  O  O346  1  0.41188229  0.90938601  0.62565495  1
  O  O347  1  0.41280000  0.91212684  0.95780889  1
  O  O348  1  0.91620309  0.41200914  0.28677223  1
  O  O349  1  0.90943828  0.40200925  0.61579118  1
  O  O350  1  0.92231384  0.42181388  0.96146636  1
  O  O351  1  0.91308354  0.91019421  0.29666404  1
  O  O352  1  0.93191187  0.91675633  0.63126462  1
  O  O353  1  0.90716404  0.90303076  0.95782345  1
  O  O354  1  0.09617821  0.10106223  0.20877665  1
  O  O355  1  0.08899530  0.07372720  0.54190703  1
  O  O356  1  0.08483057  0.08443531  0.86306252  1
  O  O357  1  0.08745376  0.58089480  0.21108364  1
  O  O358  1  0.09148648  0.58983278  0.53564947  1
  O  O359  1  0.08925298  0.58546036  0.87202740  1
  O  O360  1  0.58414192  0.07847279  0.20211838  1
  O  O361  1  0.58240096  0.06775150  0.54185867  1
  O  O362  1  0.59396516  0.08718807  0.87574052  1
  O  O363  1  0.59490068  0.59538471  0.21037589  1
  O  O364  1  0.57502740  0.58467676  0.52623421  1
  O  O365  1  0.58512417  0.58848962  0.86952980  1
  O  O366  1  0.13783236  0.22428083  0.06615909  1
  O  O367  1  0.14710110  0.22399679  0.39107511  1
  O  O368  1  0.13167594  0.22182825  0.72466390  1
  O  O369  1  0.13120084  0.71572758  0.05776336  1
  O  O370  1  0.13845170  0.71824914  0.39248071  1
  O  O371  1  0.13758702  0.72488859  0.72608903  1
  O  O372  1  0.64305978  0.21459063  0.05470822  1
  O  O373  1  0.63729541  0.22096384  0.38399533  1
  O  O374  1  0.63660643  0.22405872  0.73051418  1
  O  O375  1  0.64049083  0.72323393  0.05211893  1
  O  O376  1  0.63913481  0.72804731  0.39346977  1
  O  O377  1  0.63547424  0.72225279  0.72644280  1
  O  O378  1  0.28140706  0.35662642  0.11478057  1
  O  O379  1  0.28121889  0.36355849  0.44070557  1
  O  O380  1  0.28177272  0.36099476  0.77563075  1
  O  O381  1  0.28861159  0.85849053  0.10867718  1
  O  O382  1  0.27834959  0.85998302  0.43857081  1
  O  O383  1  0.27565918  0.86018000  0.77281287  1
  O  O384  1  0.78123068  0.36883169  0.10890269  1
  O  O385  1  0.79069514  0.36931176  0.43468980  1
  O  O386  1  0.77627464  0.36459039  0.77586914  1
  O  O387  1  0.76811719  0.85694309  0.10780155  1
  O  O388  1  0.77879123  0.86466049  0.44760758  1
  O  O389  1  0.77268274  0.86202917  0.77571402  1
  O  O390  1  0.36387208  0.26987426  0.27357754  1
  O  O391  1  0.35632408  0.28511138  0.61443561  1
  O  O392  1  0.36060223  0.27007072  0.93540041  1
  O  O393  1  0.36449311  0.78238142  0.27838589  1
  O  O394  1  0.35723199  0.77741155  0.61009454  1
  O  O395  1  0.36234701  0.77741891  0.93825808  1
  O  O396  1  0.86696980  0.28037774  0.27629034  1
  O  O397  1  0.86011534  0.27795217  0.62191527  1
  O  O398  1  0.86847858  0.29105943  0.94706295  1
  O  O399  1  0.86093862  0.77645840  0.27424778  1
  O  O400  1  0.86478183  0.78643095  0.60750022  1
  O  O401  1  0.86043794  0.76948524  0.93911196  1
  O  O402  1  0.23150318  0.14032796  0.22735142  1
  O  O403  1  0.22071920  0.13504657  0.56247117  1
  O  O404  1  0.21932541  0.13214998  0.88048538  1
  O  O405  1  0.22003390  0.63027796  0.22573229  1
  O  O406  1  0.22590648  0.64021771  0.55580288  1
  O  O407  1  0.22356089  0.63803555  0.89317308  1
  O  O408  1  0.71793662  0.13562668  0.22827618  1
  O  O409  1  0.70932449  0.13614709  0.55867923  1
  O  O410  1  0.72654219  0.14209598  0.89527317  1
  O  O411  1  0.72773648  0.64285688  0.22584066  1
  O  O412  1  0.70818413  0.64508221  0.54971698  1
  O  O413  1  0.71862118  0.64244375  0.89022496  1
  O  O414  1  0.48932009  0.32792075  0.02642388  1
  O  O415  1  0.49311714  0.32808081  0.36467982  1
  O  O416  1  0.48978008  0.33357714  0.69696605  1
  O  O417  1  0.49166575  0.83551623  0.02752799  1
  O  O418  1  0.49531018  0.83684862  0.36429452  1
  O  O419  1  0.48887071  0.83049983  0.69439917  1
  O  O420  1  1.00231555  0.34679888  0.03043515  1
  O  O421  1  0.99555383  0.34522415  0.36631040  1
  O  O422  1  0.98867126  0.34272942  0.70434503  1
  O  O423  1  0.98843224  0.82962278  0.03078428  1
  O  O424  1  0.99101254  0.83024388  0.36391952  1
  O  O425  1  0.99501826  0.82995826  0.69798309  1
  O  O426  1  0.16822759  0.01173000  0.13886264  1
  O  O427  1  0.16860809  0.00791958  0.46808737  1
  O  O428  1  0.16096214  0.00264720  0.79488000  1
  O  O429  1  0.16025167  0.49860208  0.14013781  1
  O  O430  1  0.16966944  0.50869440  0.47061361  1
  O  O431  1  0.16743736  0.50920579  0.80163240  1
  O  O432  1  0.66579388  0.00595626  0.13556842  1
  O  O433  1  0.66584781  0.00430506  0.47237204  1
  O  O434  1  0.67369518  0.01087100  0.80712172  1
  O  O435  1  0.66692809  0.51414276  0.13626550  1
  O  O436  1  0.65989232  0.51006802  0.46708781  1
  O  O437  1  0.66458494  0.51090901  0.80334078  1
  O  O438  1  0.01748871  0.17939361  0.29808118  1
  O  O439  1  -0.00129766  0.16112150  0.64060672  1
  O  O440  1  0.00993280  0.17521089  0.97534866  1
  O  O441  1  0.00864269  0.66618793  0.30340798  1
  O  O442  1  0.00913748  0.66725833  0.63531314  1
  O  O443  1  0.00155205  0.66485193  0.96954976  1
  O  O444  1  0.50702489  0.16097455  0.29849519  1
  O  O445  1  0.50518649  0.16266876  0.64426561  1
  O  O446  1  0.51013156  0.16487701  0.96933740  1
  O  O447  1  0.50885522  0.67132114  0.30503499  1
  O  O448  1  0.50534004  0.66627137  0.63691996  1
  O  O449  1  0.50705824  0.67155254  0.96997205  1
  O  O450  1  0.33328588  0.48855072  0.19867662  1
  O  O451  1  0.33806034  0.49321486  0.53099794  1
  O  O452  1  0.33358005  0.49093146  0.86713773  1
  O  O453  1  0.33664333  0.99070522  0.19470847  1
  O  O454  1  0.33183730  0.99053530  0.52937524  1
  O  O455  1  0.32831734  0.99081905  0.86225426  1
  O  O456  1  0.83126556  0.49935957  0.19566265  1
  O  O457  1  0.82243213  0.50445759  0.51799023  1
  O  O458  1  0.82582601  0.49378976  0.86828483  1
  O  O459  1  0.82755193  0.98655540  0.19441267  1
  O  O460  1  0.83864269  0.99857013  0.52852092  1
  O  O461  1  0.83433123  0.98941970  0.86822436  1
