# generated using pymatgen
data_Na31Fe20(SO4)36
_symmetry_space_group_name_H-M   'P 1'
_cell_length_a   18.07945428
_cell_length_b   18.08299540
_cell_length_c   19.72312522
_cell_angle_alpha   107.57578585
_cell_angle_beta   107.56008971
_cell_angle_gamma   90.72466521
_symmetry_Int_Tables_number   1
_chemical_formula_structural   Na31Fe20(SO4)36
_chemical_formula_sum   'Na62 Fe40 S72 O288'
_cell_volume   5822.32989830
_cell_formula_units_Z   2
loop_
 _symmetry_equiv_pos_site_id
 _symmetry_equiv_pos_as_xyz
  1  'x, y, z'
loop_
 _atom_site_type_symbol
 _atom_site_label
 _atom_site_symmetry_multiplicity
 _atom_site_fract_x
 _atom_site_fract_y
 _atom_site_fract_z
 _atom_site_occupancy
  Na  Na0  1  0.13260411  0.37391137  0.08449729  1
  Na  Na1  1  0.13807387  0.37436242  0.41546877  1
  Na  Na2  1  0.13885320  0.37220226  0.75893082  1
  Na  Na3  1  0.14220765  0.87224442  0.09437680  1
  Na  Na4  1  0.13144615  0.84944943  0.41474217  1
  Na  Na5  1  0.12323660  0.86367489  0.74308157  1
  Na  Na6  1  0.63452669  0.37232110  0.08072032  1
  Na  Na7  1  0.63204304  0.36610415  0.41475987  1
  Na  Na8  1  0.62875898  0.36855729  0.74764809  1
  Na  Na9  1  0.65563178  0.82250614  0.07643511  1
  Na  Na10  1  0.63080141  0.86109265  0.41611135  1
  Na  Na11  1  0.63735029  0.85986607  0.75613271  1
  Na  Na12  1  0.35865438  0.14043408  0.25786894  1
  Na  Na13  1  0.36646977  0.12453830  0.57723859  1
  Na  Na14  1  0.36324778  0.13654225  0.91621710  1
  Na  Na15  1  0.37294586  0.64985666  0.26761370  1
  Na  Na16  1  0.36190548  0.63214876  0.57562652  1
  Na  Na17  1  0.35748345  0.62312177  0.91232109  1
  Na  Na18  1  0.87142644  0.12862308  0.24923594  1
  Na  Na19  1  0.87105644  0.12873682  0.58267686  1
  Na  Na20  1  0.86273800  0.12444102  0.91280278  1
  Na  Na21  1  0.84871002  0.63233203  0.22522171  1
  Na  Na22  1  0.87547012  0.63517384  0.58155508  1
  Na  Na23  1  0.85025612  0.67895706  0.92787764  1
  Na  Na24  1  0.99324953  0.54418556  0.74657792  1
  Na  Na25  1  1.01911124  0.58918810  0.45433085  1
  Na  Na26  1  1.00078516  0.00087497  0.10729081  1
  Na  Na27  1  0.46476082  -0.01419188  0.41992961  1
  Na  Na28  1  0.45649900  0.51227589  0.06744426  1
  Na  Na29  1  0.52167555  -0.02650361  0.08808477  1
  Na  Na30  1  0.50536420  0.00009175  0.72714682  1
  Na  Na31  1  1.01765249  -0.01631224  0.39989787  1
  Na  Na32  1  0.48263965  0.51826316  0.41908690  1
  Na  Na33  1  0.03680819  0.49728356  0.24050272  1
  Na  Na34  1  0.50911194  0.98993177  0.91344900  1
  Na  Na35  1  0.49665202  0.49829327  0.59995935  1
  Na  Na36  1  -0.01936243  0.53743375  0.91927627  1
  Na  Na37  1  0.52615097  0.48742259  0.91535557  1
  Na  Na38  1  0.50779626  0.49573517  0.24690327  1
  Na  Na39  1  -0.00474976  0.93173558  0.56801336  1
  Na  Na40  1  0.01616418  0.99138397  0.90707410  1
  Na  Na41  1  0.47955389  1.00812165  0.26075496  1
  Na  Na42  1  0.76117229  0.75606641  0.31794981  1
  Na  Na43  1  0.25462346  0.26400545  -0.00427787  1
  Na  Na44  1  0.25708199  0.75560446  0.34166024  1
  Na  Na45  1  0.23699239  0.74339200  0.00399128  1
  Na  Na46  1  0.74694369  0.74373622  0.67199049  1
  Na  Na47  1  0.75721981  0.25483966  -0.00693925  1
  Na  Na48  1  0.75869317  0.25637002  0.32761370  1
  Na  Na49  1  0.25811091  0.25652469  0.65874212  1
  Na  Na50  1  0.23481896  0.74039950  0.67088258  1
  Na  Na51  1  0.75672126  0.25337417  0.65960406  1
  Na  Na52  1  0.25663637  0.75992233  0.17300876  1
  Na  Na53  1  0.75508686  0.25624904  0.49546432  1
  Na  Na54  1  0.23230252  0.73835794  0.83990950  1
  Na  Na55  1  0.76413880  0.75945754  0.49343790  1
  Na  Na56  1  0.75383139  0.25753778  0.82733615  1
  Na  Na57  1  0.25953509  0.26300226  0.82778408  1
  Na  Na58  1  0.23150946  0.72877348  0.50174452  1
  Na  Na59  1  0.75637298  0.25701587  0.15970850  1
  Na  Na60  1  0.24164073  0.24744132  0.17773500  1
  Na  Na61  1  0.25867383  0.25352263  0.48222864  1
  Fe  Fe62  1  0.97021584  0.79916965  0.79209090  1
  Fe  Fe63  1  0.46508512  0.30388085  0.78534908  1
  Fe  Fe64  1  0.96374985  0.81074152  0.11818986  1
  Fe  Fe65  1  0.46362332  0.30949728  0.11844696  1
  Fe  Fe66  1  0.96407709  0.30505958  0.11950056  1
  Fe  Fe67  1  0.96865163  0.30995523  0.45651764  1
  Fe  Fe68  1  0.96381991  0.30931892  0.78881161  1
  Fe  Fe69  1  0.46245266  0.80425936  0.78461651  1
  Fe  Fe70  1  0.46577556  0.30505235  0.45019856  1
  Fe  Fe71  1  0.46501795  0.80812653  0.11952605  1
  Fe  Fe72  1  0.69203443  0.03249712  0.37991342  1
  Fe  Fe73  1  0.68972810  0.53875807  0.71825402  1
  Fe  Fe74  1  0.19082782  0.03314116  0.71186239  1
  Fe  Fe75  1  0.18855510  0.53386762  0.71104291  1
  Fe  Fe76  1  0.19658217  0.03719791  0.05141775  1
  Fe  Fe77  1  0.69509590  0.03031787  0.71449442  1
  Fe  Fe78  1  0.19639190  0.53348439  0.03860254  1
  Fe  Fe79  1  0.69502594  0.03061027  0.05002056  1
  Fe  Fe80  1  0.68958813  0.53304568  0.38058445  1
  Fe  Fe81  1  0.19953803  0.03010119  0.37694716  1
  Fe  Fe82  1  0.03259923  0.19047619  0.87806763  1
  Fe  Fe83  1  0.03447967  0.69377208  0.20733093  1
  Fe  Fe84  1  0.53589416  0.68576996  0.88251445  1
  Fe  Fe85  1  0.53606318  0.18928195  0.88064047  1
  Fe  Fe86  1  0.53429342  0.19299328  0.21392063  1
  Fe  Fe87  1  0.53442050  0.69317663  0.21454867  1
  Fe  Fe88  1  0.53710234  0.18976324  0.54794390  1
  Fe  Fe89  1  0.03611545  0.18993439  0.54612578  1
  Fe  Fe90  1  0.03674116  0.19627050  0.21799648  1
  Fe  Fe91  1  0.53259249  0.70203954  0.54743263  1
  Fe  Fe92  1  0.30930343  0.96794984  0.95214152  1
  Fe  Fe93  1  0.80409508  0.47080951  0.28696703  1
  Fe  Fe94  1  0.81216891  0.96227402  0.28645450  1
  Fe  Fe95  1  0.30605631  0.96107277  0.61663717  1
  Fe  Fe96  1  0.81613732  0.94662719  0.95561192  1
  Fe  Fe97  1  0.31305665  0.46343240  0.62131798  1
  Fe  Fe98  1  0.29704440  0.47331711  0.29016155  1
  Fe  Fe99  1  0.80508978  0.46959899  0.62169595  1
  Fe  Fe100  1  0.80865527  0.96392712  0.62188916  1
  Fe  Fe101  1  0.80118968  0.47223119  0.95832236  1
  S  S102  1  0.36024058  0.14373663  0.08386937  1
  S  S103  1  0.36654546  0.13657666  0.41593769  1
  S  S104  1  0.36005347  0.13728175  0.74953468  1
  S  S105  1  0.35600321  0.64792802  0.08625389  1
  S  S106  1  0.36233949  0.63994490  0.41930622  1
  S  S107  1  0.36051919  0.63949884  0.75086340  1
  S  S108  1  0.85886033  0.13569812  0.08363967  1
  S  S109  1  0.85956276  0.14149341  0.41698525  1
  S  S110  1  0.85767444  0.13992011  0.75031928  1
  S  S111  1  0.86677072  0.64050606  0.07627760  1
  S  S112  1  0.85011893  0.64075589  0.41603038  1
  S  S113  1  0.85472165  0.64045097  0.75283299  1
  S  S114  1  0.13763130  0.36068371  0.24663651  1
  S  S115  1  0.14293047  0.35481106  0.58275181  1
  S  S116  1  0.13725065  0.35627630  0.91769160  1
  S  S117  1  0.13507495  0.86210690  0.25091103  1
  S  S118  1  0.14404897  0.85845421  0.58513904  1
  S  S119  1  0.14266581  0.86552755  0.91633271  1
  S  S120  1  0.63963915  0.35811791  0.24903587  1
  S  S121  1  0.63936061  0.35881885  0.58374210  1
  S  S122  1  0.63993194  0.35477693  0.91428866  1
  S  S123  1  0.64054086  0.86103825  0.24632348  1
  S  S124  1  0.64214008  0.86133966  0.58494449  1
  S  S125  1  0.63434244  0.86020726  0.92149759  1
  S  S126  1  0.06576955  0.17052301  0.04221717  1
  S  S127  1  0.06889157  0.17130771  0.37797766  1
  S  S128  1  0.06936948  0.17288292  0.71065299  1
  S  S129  1  0.07159566  0.67807506  0.04340659  1
  S  S130  1  0.06839805  0.66847661  0.36585301  1
  S  S131  1  0.06597855  0.67365830  0.70859539  1
  S  S132  1  0.56700370  0.16464741  0.04244488  1
  S  S133  1  0.56938296  0.16965344  0.37583750  1
  S  S134  1  0.56883325  0.16769289  0.70996553  1
  S  S135  1  0.55138510  0.65845139  0.03898404  1
  S  S136  1  0.57053014  0.66753776  0.37673157  1
  S  S137  1  0.56600738  0.67289954  0.70925856  1
  S  S138  1  0.33112631  0.43667894  0.12772927  1
  S  S139  1  0.34111649  0.43019611  0.46128658  1
  S  S140  1  0.33512423  0.43052445  0.79074688  1
  S  S141  1  0.33490821  0.94031735  0.12348145  1
  S  S142  1  0.32528924  0.93097063  0.45904299  1
  S  S143  1  0.33100631  0.93413682  0.79134080  1
  S  S144  1  0.83235821  0.42854459  0.12578570  1
  S  S145  1  0.82535133  0.42800825  0.45681765  1
  S  S146  1  0.82444366  0.43157953  0.78924337  1
  S  S147  1  0.83118553  0.93264893  0.12515755  1
  S  S148  1  0.82988857  0.93569382  0.45404303  1
  S  S149  1  0.82820193  0.92804039  0.79348502  1
  S  S150  1  0.43604146  0.33239602  0.28972996  1
  S  S151  1  0.43387951  0.32385826  0.62086944  1
  S  S152  1  0.43838332  0.32760822  0.95604918  1
  S  S153  1  0.44146044  0.83468599  0.28999141  1
  S  S154  1  0.43189704  0.82775822  0.62747978  1
  S  S155  1  0.42893769  0.83008469  0.95499536  1
  S  S156  1  0.92826276  0.32626330  0.28980286  1
  S  S157  1  0.93074409  0.33086716  0.62575100  1
  S  S158  1  0.92440506  0.32528817  0.95385250  1
  S  S159  1  0.93446467  0.82745750  0.28775912  1
  S  S160  1  0.92601951  0.82925661  0.63183351  1
  S  S161  1  0.94477196  0.85298353  0.96430595  1
  S  S162  1  0.17182430  0.07384817  0.21060395  1
  S  S163  1  0.17095646  0.06715912  0.54157221  1
  S  S164  1  0.17252885  0.07240113  0.87848045  1
  S  S165  1  0.17677424  0.57724133  0.20612924  1
  S  S166  1  0.17798497  0.56048530  0.55109073  1
  S  S167  1  0.16401362  0.56270024  0.87383291  1
  S  S168  1  0.67001911  0.06910683  0.21190651  1
  S  S169  1  0.67153300  0.06638153  0.54189179  1
  S  S170  1  0.66532542  0.06348650  0.87572013  1
  S  S171  1  0.66105877  0.56213953  0.20674040  1
  S  S172  1  0.66492971  0.56438209  0.54286698  1
  S  S173  1  0.66710867  0.56459358  0.87312734  1
  O  O174  1  0.36864395  0.22211306  0.07372918  1
  O  O175  1  0.37546119  0.21697801  0.41008309  1
  O  O176  1  0.36863886  0.21633657  0.74081437  1
  O  O177  1  0.36343131  0.72986742  0.08282740  1
  O  O178  1  0.37184798  0.71285991  0.40381647  1
  O  O179  1  0.36636988  0.71898063  0.74234267  1
  O  O180  1  0.86615714  0.21577413  0.07680909  1
  O  O181  1  0.86894176  0.22109212  0.40974311  1
  O  O182  1  0.86562866  0.22028276  0.74420353  1
  O  O183  1  0.88036039  0.71749471  0.06432432  1
  O  O184  1  0.84977233  0.71935142  0.41034270  1
  O  O185  1  0.87118208  0.72095382  0.75029125  1
  O  O186  1  0.28102558  0.13513585  0.09149358  1
  O  O187  1  0.28779463  0.12818154  0.42471618  1
  O  O188  1  0.28057184  0.12908629  0.75671258  1
  O  O189  1  0.27518402  0.63741963  0.09011277  1
  O  O190  1  0.28969975  0.62910478  0.43497870  1
  O  O191  1  0.28162447  0.62879506  0.75918130  1
  O  O192  1  0.78209122  0.12779302  0.09724008  1
  O  O193  1  0.78059415  0.13342608  0.42540479  1
  O  O194  1  0.77927870  0.13057950  0.76049917  1
  O  O195  1  0.79523880  0.63308736  0.09294084  1
  O  O196  1  0.77352102  0.62273882  0.42871847  1
  O  O197  1  0.77045220  0.63324468  0.74627582  1
  O  O198  1  0.13143035  0.27836901  0.24725813  1
  O  O199  1  0.13027322  0.27540689  0.58999922  1
  O  O200  1  0.12135704  0.27937134  0.92961038  1
  O  O201  1  0.12260852  0.78304587  0.26145803  1
  O  O202  1  0.13198127  0.78166071  0.59235114  1
  O  O203  1  0.13922822  0.78855836  0.92476472  1
  O  O204  1  0.63107232  0.27887815  0.25737162  1
  O  O205  1  0.63121434  0.28074395  0.59472315  1
  O  O206  1  0.63324417  0.27348317  0.92006360  1
  O  O207  1  0.63197420  0.78259708  0.25530464  1
  O  O208  1  0.63298308  0.78250820  0.59476300  1
  O  O209  1  0.62274597  0.78236824  0.92980551  1
  O  O210  1  0.21591565  0.37383688  0.23744511  1
  O  O211  1  0.22278392  0.35991543  0.57561593  1
  O  O212  1  0.21412546  0.35758139  0.90786608  1
  O  O213  1  0.21048357  0.86701114  0.23907763  1
  O  O214  1  0.22629290  0.86674560  0.58181768  1
  O  O215  1  0.21766341  0.87963573  0.90155986  1
  O  O216  1  0.71984693  0.36745889  0.24391494  1
  O  O217  1  0.72043536  0.36779091  0.58014380  1
  O  O218  1  0.71995883  0.36576382  0.90883575  1
  O  O219  1  0.72114982  0.87285837  0.24356331  1
  O  O220  1  0.72424472  0.86939340  0.58112944  1
  O  O221  1  0.71092800  0.87071636  0.91144757  1
  O  O222  1  0.41846707  0.13835019  0.15332482  1
  O  O223  1  0.42493902  0.12990551  0.48647345  1
  O  O224  1  0.41824137  0.13091602  0.81875845  1
  O  O225  1  0.41254822  0.63886983  0.15586698  1
  O  O226  1  0.42844004  0.63106722  0.48477807  1
  O  O227  1  0.41920671  0.63435778  0.81988389  1
  O  O228  1  0.92167706  0.12695399  0.14904328  1
  O  O229  1  0.91871070  0.13454962  0.48533056  1
  O  O230  1  0.91765538  0.13130591  0.81711933  1
  O  O231  1  0.93312236  0.63103436  0.14131261  1
  O  O232  1  0.91241050  0.63108221  0.47917142  1
  O  O233  1  0.90425622  0.62681963  0.82081023  1
  O  O234  1  0.36953082  0.08447952  0.01688997  1
  O  O235  1  0.37824880  0.07870418  0.35115773  1
  O  O236  1  0.37057814  0.07818950  0.68319073  1
  O  O237  1  0.36738220  0.59237734  0.02014287  1
  O  O238  1  0.36982206  0.57471494  0.35199417  1
  O  O239  1  0.37140910  0.58186660  0.68383849  1
  O  O240  1  0.86109518  0.07759256  0.01335725  1
  O  O241  1  0.86702216  0.08260017  0.34888130  1
  O  O242  1  0.86264696  0.08310192  0.68050199  1
  O  O243  1  0.87090383  0.58010523  0.00638317  1
  O  O244  1  0.85434931  0.58371748  0.34359098  1
  O  O245  1  0.86804112  0.58307790  0.68466002  1
  O  O246  1  0.07746470  0.36901222  0.17760571  1
  O  O247  1  0.08533931  0.36252186  0.51403355  1
  O  O248  1  0.07691781  0.36402793  0.84969379  1
  O  O249  1  0.07307485  0.87149097  0.18489408  1
  O  O250  1  0.08970206  0.87328862  0.51986089  1
  O  O251  1  0.07815252  0.87336339  0.85029030  1
  O  O252  1  0.58192486  0.36493952  0.17985217  1
  O  O253  1  0.58354007  0.36191467  0.51223025  1
  O  O254  1  0.58232911  0.35891282  0.84294136  1
  O  O255  1  0.58477572  0.86676693  0.17495823  1
  O  O256  1  0.58675997  0.87027555  0.51869872  1
  O  O257  1  0.57339710  0.87150228  0.85533524  1
  O  O258  1  0.12750832  0.41583664  0.31311780  1
  O  O259  1  0.13610951  0.41309055  0.65117095  1
  O  O260  1  0.13254232  0.41818592  0.98540069  1
  O  O261  1  0.12954692  0.92121535  0.32015301  1
  O  O262  1  0.13706201  0.92014608  0.65502772  1
  O  O263  1  0.13556526  0.92640439  0.98464470  1
  O  O264  1  0.62817568  0.41645709  0.31568850  1
  O  O265  1  0.62592529  0.41942226  0.64759197  1
  O  O266  1  0.62679367  0.41183614  0.97826376  1
  O  O267  1  0.62732077  0.92070668  0.31163782  1
  O  O268  1  0.63673860  0.91963761  0.65608345  1
  O  O269  1  0.62681711  0.91995232  0.99082905  1
  O  O270  1  0.02631168  0.19888993  0.10110892  1
  O  O271  1  0.02875113  0.20022980  0.43711869  1
  O  O272  1  0.02908701  0.20051324  0.76931028  1
  O  O273  1  0.04444008  0.70874550  0.11255349  1
  O  O274  1  0.03572629  0.70346179  0.42542614  1
  O  O275  1  0.03034830  0.70267775  0.77124303  1
  O  O276  1  0.53111630  0.19703409  0.10311322  1
  O  O277  1  0.53593985  0.20070526  0.43837708  1
  O  O278  1  0.52994952  0.19635210  0.76930901  1
  O  O279  1  0.52231257  0.70266172  0.10387865  1
  O  O280  1  0.54118391  0.69463600  0.44045116  1
  O  O281  1  0.53109759  0.70199113  0.77183928  1
  O  O282  1  0.30415236  0.47409967  0.06923448  1
  O  O283  1  0.31341767  0.46000530  0.39791485  1
  O  O284  1  0.30591021  0.46162857  0.72549110  1
  O  O285  1  0.30067489  0.97008324  0.05701800  1
  O  O286  1  0.29546128  0.96879581  0.39984080  1
  O  O287  1  0.30155339  0.97128474  0.73136633  1
  O  O288  1  0.81253597  0.46015444  0.06332152  1
  O  O289  1  0.79532721  0.46268941  0.39491065  1
  O  O290  1  0.79445317  0.46949535  0.72906656  1
  O  O291  1  0.79791511  0.96716521  0.06176991  1
  O  O292  1  0.79467729  0.97542432  0.39526977  1
  O  O293  1  0.80479370  0.97276028  0.73824016  1
  O  O294  1  0.47267210  0.30083970  0.22818874  1
  O  O295  1  0.47193231  0.29486890  0.56093076  1
  O  O296  1  0.47392702  0.29027749  0.89477307  1
  O  O297  1  0.47514761  0.79738646  0.22569059  1
  O  O298  1  0.46888768  0.79965206  0.56917929  1
  O  O299  1  0.46202365  0.79712959  0.89282689  1
  O  O300  1  0.96735934  0.29670443  0.23005708  1
  O  O301  1  0.96829938  0.30338545  0.56553477  1
  O  O302  1  0.96197473  0.29517657  0.89348083  1
  O  O303  1  0.96301767  0.79098103  0.22032446  1
  O  O304  1  0.96070189  0.80936429  0.57236080  1
  O  O305  1  0.97113412  0.81312313  0.90039408  1
  O  O306  1  0.19630832  0.04115779  0.27212101  1
  O  O307  1  0.20095862  0.03148965  0.60316315  1
  O  O308  1  0.20513185  0.03915018  0.94130100  1
  O  O309  1  0.19906945  0.53803940  0.26400536  1
  O  O310  1  0.21507017  0.52343332  0.61348715  1
  O  O311  1  0.19824215  0.52791267  0.93383777  1
  O  O312  1  0.70196767  0.03568777  0.27399608  1
  O  O313  1  0.70149695  0.03120441  0.60360604  1
  O  O314  1  0.69077512  0.03117204  0.93872676  1
  O  O315  1  0.69188475  0.52725090  0.27072421  1
  O  O316  1  0.69583456  0.52565642  0.60242891  1
  O  O317  1  0.69851964  0.52695483  0.93127975  1
  O  O318  1  0.08655315  0.08992686  0.03823744  1
  O  O319  1  0.09201321  0.09284220  0.37775797  1
  O  O320  1  0.09068257  0.09340865  0.70708203  1
  O  O321  1  0.09354788  0.59764369  0.03655478  1
  O  O322  1  0.07412817  0.58447139  0.35555330  1
  O  O323  1  0.09162350  0.59576469  0.71341516  1
  O  O324  1  0.58408764  0.08274912  0.03946061  1
  O  O325  1  0.58693326  0.08793391  0.37048245  1
  O  O326  1  0.59054068  0.08814550  0.70906858  1
  O  O327  1  0.54609119  0.57544375  0.03315242  1
  O  O328  1  0.58261402  0.58187815  0.36519570  1
  O  O329  1  0.58396442  0.59096753  0.70351670  1
  O  O330  1  0.41414871  0.41732001  0.13128827  1
  O  O331  1  0.42633911  0.41520299  0.47100482  1
  O  O332  1  0.41580241  0.40658512  0.79428682  1
  O  O333  1  0.41566905  0.91855962  0.12378470  1
  O  O334  1  0.40343227  0.91047471  0.46217972  1
  O  O335  1  0.41301832  0.91647223  0.79691033  1
  O  O336  1  0.91521415  0.40911712  0.14318347  1
  O  O337  1  0.90436781  0.40599313  0.46051567  1
  O  O338  1  0.90598854  0.41381029  0.79389448  1
  O  O339  1  0.91329393  0.91998841  0.12811284  1
  O  O340  1  0.90911935  0.92240012  0.45256779  1
  O  O341  1  0.90896711  0.90696525  0.80169196  1
  O  O342  1  0.42364039  0.41518325  0.29678513  1
  O  O343  1  0.41671067  0.40526946  0.62553007  1
  O  O344  1  0.42899634  0.40823798  0.95889262  1
  O  O345  1  0.42484107  0.91390245  0.28811081  1
  O  O346  1  0.41155028  0.90895909  0.63296425  1
  O  O347  1  0.41776740  0.91441667  0.96122738  1
  O  O348  1  0.90354146  0.40374918  0.29101220  1
  O  O349  1  0.90906881  0.41111599  0.63197451  1
  O  O350  1  0.89952816  0.40226551  0.95287557  1
  O  O351  1  0.90908924  0.90592209  0.28363053  1
  O  O352  1  0.90800306  0.91317172  0.64527521  1
  O  O353  1  0.94438894  0.93981251  0.97495082  1
  O  O354  1  0.08985548  0.09544998  0.20056265  1
  O  O355  1  0.08947378  0.08576635  0.53689961  1
  O  O356  1  0.09057233  0.08753834  0.87495706  1
  O  O357  1  0.09446254  0.59782152  0.19899111  1
  O  O358  1  0.10205886  0.57918222  0.55856698  1
  O  O359  1  0.08085017  0.57091232  0.86478512  1
  O  O360  1  0.58712163  0.08490344  0.20628900  1
  O  O361  1  0.59033214  0.08501786  0.53586061  1
  O  O362  1  0.58090365  0.07930264  0.86454482  1
  O  O363  1  0.57912675  0.58231512  0.20566145  1
  O  O364  1  0.58360337  0.58187693  0.54001454  1
  O  O365  1  0.58565295  0.58179880  0.87344222  1
  O  O366  1  0.13565606  0.22486847  0.05968420  1
  O  O367  1  0.13605316  0.22773490  0.39342315  1
  O  O368  1  0.13872444  0.22828052  0.72821127  1
  O  O369  1  0.14062381  0.73313278  0.05792043  1
  O  O370  1  0.14509435  0.71182372  0.37910128  1
  O  O371  1  0.13692441  0.72864818  0.72703427  1
  O  O372  1  0.63840461  0.21498982  0.05601736  1
  O  O373  1  0.63965319  0.22109606  0.38850466  1
  O  O374  1  0.63840173  0.22179862  0.72567438  1
  O  O375  1  0.62934973  0.69341079  0.05141724  1
  O  O376  1  0.64298658  0.71526895  0.38836341  1
  O  O377  1  0.63574066  0.72458966  0.72335559  1
  O  O378  1  0.28033260  0.36399507  0.11103536  1
  O  O379  1  0.29252771  0.35961308  0.45097300  1
  O  O380  1  0.28117381  0.35935582  0.77445938  1
  O  O381  1  0.28312058  0.87121790  0.11277384  1
  O  O382  1  0.26988839  0.86268599  0.44605389  1
  O  O383  1  0.27953017  0.86383087  0.77702014  1
  O  O384  1  0.77809777  0.35672358  0.10711928  1
  O  O385  1  0.77039054  0.35788785  0.44128793  1
  O  O386  1  0.77184033  0.35899106  0.76932863  1
  O  O387  1  0.78446381  0.86072276  0.11176038  1
  O  O388  1  0.77711054  0.86427701  0.43609832  1
  O  O389  1  0.77178981  0.85919249  0.77104231  1
  O  O390  1  0.36372479  0.28268375  0.27264795  1
  O  O391  1  0.36187464  0.27154895  0.60224816  1
  O  O392  1  0.36418617  0.27907651  0.93963547  1
  O  O393  1  0.36901239  0.78436996  0.27493551  1
  O  O394  1  0.36245830  0.77519599  0.61527113  1
  O  O395  1  0.35543021  0.78396178  0.94221011  1
  O  O396  1  0.85976445  0.26856169  0.27192677  1
  O  O397  1  0.86054182  0.27509650  0.60724922  1
  O  O398  1  0.85667871  0.26740364  0.93824993  1
  O  O399  1  0.86872536  0.77485401  0.28121771  1
  O  O400  1  0.85460601  0.77629719  0.61529627  1
  O  O401  1  0.86367287  0.82258179  0.95258399  1
  O  O402  1  0.22512595  0.14166561  0.22155294  1
  O  O403  1  0.22392325  0.13770210  0.55733527  1
  O  O404  1  0.22183890  0.14514766  0.89266303  1
  O  O405  1  0.22999592  0.64895367  0.22611348  1
  O  O406  1  0.23088004  0.63272818  0.56859443  1
  O  O407  1  0.21182183  0.63810362  0.89119593  1
  O  O408  1  0.71970547  0.14053903  0.22463569  1
  O  O409  1  0.72409848  0.13750508  0.55728862  1
  O  O410  1  0.71638843  0.13477551  0.89035069  1
  O  O411  1  0.71215724  0.63346152  0.22326181  1
  O  O412  1  0.71719702  0.63487550  0.55932807  1
  O  O413  1  0.71539169  0.63467153  0.88258579  1
  O  O414  1  0.49484987  0.32470436  0.02874196  1
  O  O415  1  0.49491872  0.32999505  0.36109569  1
  O  O416  1  0.49137762  0.32380537  0.69286379  1
  O  O417  1  0.48934992  0.83217728  0.02718992  1
  O  O418  1  0.50054034  0.83897865  0.36092243  1
  O  O419  1  0.49259834  0.83570790  0.70300036  1
  O  O420  1  0.98383091  0.33093718  0.02711680  1
  O  O421  1  0.98746817  0.33053568  0.36263139  1
  O  O422  1  0.98910692  0.33209100  0.69812394  1
  O  O423  1  1.00001076  0.84593391  0.03513865  1
  O  O424  1  1.00074207  0.84347435  0.35644532  1
  O  O425  1  0.98456405  0.82789492  0.70488034  1
  O  O426  1  0.16719580  0.01088518  0.13790868  1
  O  O427  1  0.16612262  0.00790760  0.46853527  1
  O  O428  1  0.17168984  0.01290974  0.80711099  1
  O  O429  1  0.17498597  0.51967785  0.13305789  1
  O  O430  1  0.17437553  0.50358932  0.47953347  1
  O  O431  1  0.17024991  0.50739536  0.80133834  1
  O  O432  1  0.66622219  0.00808762  0.13973001  1
  O  O433  1  0.66974109  0.00683147  0.46975344  1
  O  O434  1  0.66485831  0.00322423  0.80437270  1
  O  O435  1  0.65610057  0.50208925  0.13689386  1
  O  O436  1  0.66059101  0.50535982  0.46906643  1
  O  O437  1  0.65821599  0.50445851  0.79736466  1
  O  O438  1  0.00917111  0.16538770  0.30418517  1
  O  O439  1  0.01062975  0.16978791  0.63733756  1
  O  O440  1  0.00653469  0.16530945  0.96848941  1
  O  O441  1  0.01168485  0.67301291  0.29094284  1
  O  O442  1  0.00820647  0.66504133  0.63678389  1
  O  O443  1  0.00594149  0.67578899  0.97750855  1
  O  O444  1  0.50786755  0.16561073  0.30360248  1
  O  O445  1  0.51018551  0.16250425  0.63665556  1
  O  O446  1  0.50771358  0.15931717  0.96883378  1
  O  O447  1  0.50968357  0.66847906  0.30580160  1
  O  O448  1  0.50500506  0.66900182  0.63701694  1
  O  O449  1  0.49547034  0.66748498  0.96826843  1
  O  O450  1  0.33712903  0.49261825  0.20308531  1
  O  O451  1  0.34532777  0.49197998  0.53407200  1
  O  O452  1  0.33979890  0.49099809  0.86004486  1
  O  O453  1  0.34348107  1.00498228  0.19203178  1
  O  O454  1  0.32866217  0.99187223  0.53314215  1
  O  O455  1  0.33566148  0.99497774  0.86471459  1
  O  O456  1  0.82616335  0.48897104  0.19416698  1
  O  O457  1  0.82738386  0.48792843  0.52879608  1
  O  O458  1  0.82618382  0.48846139  0.86166943  1
  O  O459  1  0.83114389  0.99439704  0.19551188  1
  O  O460  1  0.83347626  0.99060037  0.52978148  1
  O  O461  1  0.82807629  0.98414299  0.86758342  1
