# generated using pymatgen
data_Na31Fe20(SO4)36
_symmetry_space_group_name_H-M   'P 1'
_cell_length_a   18.07187229
_cell_length_b   18.07001049
_cell_length_c   19.70459370
_cell_angle_alpha   107.55785942
_cell_angle_beta   107.57205051
_cell_angle_gamma   90.74855338
_symmetry_Int_Tables_number   1
_chemical_formula_structural   Na31Fe20(SO4)36
_chemical_formula_sum   'Na62 Fe40 S72 O288'
_cell_volume   5810.15218382
_cell_formula_units_Z   2
loop_
 _symmetry_equiv_pos_site_id
 _symmetry_equiv_pos_as_xyz
  1  'x, y, z'
loop_
 _atom_site_type_symbol
 _atom_site_label
 _atom_site_symmetry_multiplicity
 _atom_site_fract_x
 _atom_site_fract_y
 _atom_site_fract_z
 _atom_site_occupancy
  Na  Na0  1  0.14818542  0.36746248  0.09264186  1
  Na  Na1  1  0.13825314  0.36790825  0.42206573  1
  Na  Na2  1  0.13380703  0.36513794  0.75090048  1
  Na  Na3  1  0.13698825  0.87211367  0.08634239  1
  Na  Na4  1  0.13715685  0.88194933  0.41746148  1
  Na  Na5  1  0.13440605  0.86596735  0.75007576  1
  Na  Na6  1  0.63666063  0.36564749  0.08456107  1
  Na  Na7  1  0.63723929  0.35347523  0.41974503  1
  Na  Na8  1  0.62782744  0.35996913  0.73664532  1
  Na  Na9  1  0.62503235  0.84993742  0.07023909  1
  Na  Na10  1  0.62690388  0.87637221  0.42179674  1
  Na  Na11  1  0.62717930  0.86241558  0.74664318  1
  Na  Na12  1  0.36320914  0.13828976  0.25022122  1
  Na  Na13  1  0.37997229  0.13283308  0.58164021  1
  Na  Na14  1  0.36427858  0.14048291  0.91909095  1
  Na  Na15  1  0.36185238  0.65256458  0.27024364  1
  Na  Na16  1  0.36364218  0.63371722  0.57831506  1
  Na  Na17  1  0.36920395  0.65812195  0.92650993  1
  Na  Na18  1  0.87799549  0.12542638  0.25583351  1
  Na  Na19  1  0.80211625  0.11418979  0.53612902  1
  Na  Na20  1  0.86774855  0.13203762  0.91608017  1
  Na  Na21  1  0.86888377  0.63293907  0.25221747  1
  Na  Na22  1  0.86663471  0.62698632  0.57781670  1
  Na  Na23  1  0.86380181  0.63588724  0.91623108  1
  Na  Na24  1  0.49067423  0.54674644  0.75657517  1
  Na  Na25  1  0.99090625  0.50294325  0.42973033  1
  Na  Na26  1  0.95269714  0.01914432  0.62675674  1
  Na  Na27  1  0.45810897  0.50218247  0.40964226  1
  Na  Na28  1  0.48401653  0.03350853  0.42964128  1
  Na  Na29  1  0.99307563  0.51009428  0.07987936  1
  Na  Na30  1  0.50556999  -0.01875625  0.10120095  1
  Na  Na31  1  0.48881155  0.52271690  0.08517924  1
  Na  Na32  1  0.99509684  0.50635149  0.73137672  1
  Na  Na33  1  0.48538551  0.51564042  0.25302916  1
  Na  Na34  1  0.50625051  0.95062385  0.56975320  1
  Na  Na35  1  0.50787351  0.98299221  0.91117416  1
  Na  Na36  1  0.50695514  0.48013916  0.58292752  1
  Na  Na37  1  0.01275078  0.49069977  0.90987131  1
  Na  Na38  1  0.02242102  0.49055930  0.25275851  1
  Na  Na39  1  0.49171557  0.51384807  0.90793584  1
  Na  Na40  1  0.51474211  0.96407037  0.26223941  1
  Na  Na41  1  0.00961837  0.99086946  0.91789416  1
  Na  Na42  1  0.23754676  0.23853806  0.33825983  1
  Na  Na43  1  0.75865866  0.75969811  0.66102641  1
  Na  Na44  1  0.74520091  0.75414195  0.33241436  1
  Na  Na45  1  0.74585798  0.24457762  0.00639623  1
  Na  Na46  1  0.25121548  0.74968798  0.67348284  1
  Na  Na47  1  0.74128132  0.22709523  0.35025450  1
  Na  Na48  1  0.24598147  0.24435010  0.67332897  1
  Na  Na49  1  0.74148343  0.24677875  0.65700060  1
  Na  Na50  1  0.26416440  0.76736365  -0.00856449  1
  Na  Na51  1  0.73602289  0.73826750  0.00070894  1
  Na  Na52  1  0.24343162  0.24346273  0.84784410  1
  Na  Na53  1  0.24069638  0.23417866  0.50567658  1
  Na  Na54  1  0.24559716  0.74597546  0.17758713  1
  Na  Na55  1  0.76128791  0.76794484  0.49914685  1
  Na  Na56  1  0.74667440  0.23817883  0.17918749  1
  Na  Na57  1  0.27142132  0.76351293  0.47632176  1
  Na  Na58  1  0.73929512  0.74275267  0.16939046  1
  Na  Na59  1  0.74499945  0.75176005  0.83412611  1
  Na  Na60  1  0.26162887  0.26420698  0.16289273  1
  Na  Na61  1  0.75487543  0.24953858  0.83049700  1
  Fe  Fe62  1  0.47089457  0.30421122  0.78539633  1
  Fe  Fe63  1  0.96337913  0.30691372  0.45253241  1
  Fe  Fe64  1  0.96560533  0.80616549  0.78410654  1
  Fe  Fe65  1  0.96697418  0.30517244  0.11765313  1
  Fe  Fe66  1  0.46507258  0.31314552  0.12108558  1
  Fe  Fe67  1  0.46794468  0.29873975  0.45019533  1
  Fe  Fe68  1  0.96071296  0.30483045  0.77922904  1
  Fe  Fe69  1  0.46573269  0.80174470  0.78841675  1
  Fe  Fe70  1  0.96629111  0.81000683  0.12267369  1
  Fe  Fe71  1  0.96971980  0.80692449  0.45596195  1
  Fe  Fe72  1  0.19006391  0.53619466  0.71467876  1
  Fe  Fe73  1  0.69406904  0.53235111  0.04548306  1
  Fe  Fe74  1  0.69600326  0.03425261  0.04733368  1
  Fe  Fe75  1  0.69252684  0.53291752  0.37881427  1
  Fe  Fe76  1  0.19436660  0.53147588  0.05152724  1
  Fe  Fe77  1  0.69997068  0.02890943  0.71145290  1
  Fe  Fe78  1  0.19447436  0.04138922  0.05000689  1
  Fe  Fe79  1  0.19160406  0.03436380  0.71248903  1
  Fe  Fe80  1  0.69184874  0.53911181  0.71301062  1
  Fe  Fe81  1  0.20213431  0.52956538  0.38042816  1
  Fe  Fe82  1  0.51889813  0.72245395  0.21417932  1
  Fe  Fe83  1  0.53656238  0.18931256  0.21607467  1
  Fe  Fe84  1  0.03629387  0.18971487  0.21685889  1
  Fe  Fe85  1  0.04116443  0.69172631  0.55060824  1
  Fe  Fe86  1  0.53901598  0.18577339  0.87609944  1
  Fe  Fe87  1  0.52943250  0.69929996  0.54102461  1
  Fe  Fe88  1  0.03558806  0.18919645  0.87757838  1
  Fe  Fe89  1  0.03814796  0.69332702  0.88192069  1
  Fe  Fe90  1  0.03886350  0.69658678  0.21930709  1
  Fe  Fe91  1  0.03391714  0.18686008  0.54229068  1
  Fe  Fe92  1  0.30638782  0.46406119  0.62187742  1
  Fe  Fe93  1  0.80189605  0.46391388  0.61313564  1
  Fe  Fe94  1  0.81349589  0.96302771  0.95969939  1
  Fe  Fe95  1  0.31017556  0.96944966  0.61794984  1
  Fe  Fe96  1  0.80894525  0.46370459  0.94940344  1
  Fe  Fe97  1  0.29620233  0.97268670  0.29321626  1
  Fe  Fe98  1  0.30750734  0.46298722  0.95348201  1
  Fe  Fe99  1  0.80710391  0.96511310  0.29393958  1
  Fe  Fe100  1  0.80892956  0.46325447  0.28323967  1
  Fe  Fe101  1  0.30746235  0.96829205  0.95362346  1
  S  S102  1  0.36080868  0.14431057  0.08171534  1
  S  S103  1  0.35402518  0.14614794  0.41080276  1
  S  S104  1  0.36146842  0.14327983  0.75320845  1
  S  S105  1  0.35533983  0.64051456  0.08255562  1
  S  S106  1  0.36098850  0.63554510  0.41561662  1
  S  S107  1  0.35445667  0.63866972  0.75181360  1
  S  S108  1  0.86172917  0.14143586  0.08491555  1
  S  S109  1  0.86207944  0.13745087  0.41347424  1
  S  S110  1  0.86008005  0.14275582  0.75103987  1
  S  S111  1  0.86231377  0.63959620  0.08356902  1
  S  S112  1  0.86333789  0.63659085  0.41728711  1
  S  S113  1  0.86153883  0.63806135  0.74943554  1
  S  S114  1  0.13865448  0.35925442  0.24971518  1
  S  S115  1  0.13658086  0.36208726  0.58663039  1
  S  S116  1  0.13636649  0.36021077  0.91399798  1
  S  S117  1  0.13820176  0.85751610  0.24622863  1
  S  S118  1  0.14544611  0.85791147  0.58236611  1
  S  S119  1  0.13877000  0.86341174  0.91859967  1
  S  S120  1  0.64428926  0.35591838  0.24769460  1
  S  S121  1  0.63613219  0.36551764  0.58309686  1
  S  S122  1  0.64478419  0.35678894  0.91652811  1
  S  S123  1  0.64380805  0.86258269  0.24811854  1
  S  S124  1  0.64572986  0.85474232  0.59222238  1
  S  S125  1  0.64136020  0.86108552  0.91770848  1
  S  S126  1  0.06795983  0.17440692  0.04290952  1
  S  S127  1  0.07039190  0.17695098  0.38240698  1
  S  S128  1  0.06784321  0.17388270  0.71086360  1
  S  S129  1  0.06475672  0.66486687  0.04053501  1
  S  S130  1  0.07035007  0.66617502  0.37762629  1
  S  S131  1  0.06721294  0.66948237  0.70962527  1
  S  S132  1  0.57069552  0.16984008  0.04225959  1
  S  S133  1  0.55854561  0.16218352  0.36821068  1
  S  S134  1  0.57525257  0.16957759  0.71280294  1
  S  S135  1  0.56374603  0.65644590  0.04222386  1
  S  S136  1  0.57536091  0.67265058  0.37357169  1
  S  S137  1  0.56450263  0.66873286  0.70629968  1
  S  S138  1  0.33519998  0.43998598  0.12661777  1
  S  S139  1  0.33151127  0.42675659  0.45988099  1
  S  S140  1  0.33000933  0.43099727  0.79251906  1
  S  S141  1  0.32751432  0.94058157  0.12791134  1
  S  S142  1  0.32877438  0.94163679  0.45582048  1
  S  S143  1  0.32845352  0.93555612  0.78993795  1
  S  S144  1  0.83565917  0.43399036  0.12345621  1
  S  S145  1  0.82817321  0.42984084  0.45237566  1
  S  S146  1  0.83048663  0.43461939  0.78914338  1
  S  S147  1  0.82320035  0.92509677  0.12350919  1
  S  S148  1  0.83616390  0.92989782  0.45812602  1
  S  S149  1  0.83135562  0.93250452  0.79676005  1
  S  S150  1  0.44345967  0.33452707  0.28846747  1
  S  S151  1  0.42998445  0.33797829  0.62847606  1
  S  S152  1  0.43804620  0.33410367  0.95732704  1
  S  S153  1  0.42838765  0.84160308  0.29587130  1
  S  S154  1  0.42737806  0.82640747  0.62536143  1
  S  S155  1  0.43400085  0.84330914  0.95962577  1
  S  S156  1  0.93508830  0.33537550  0.29255232  1
  S  S157  1  0.92570919  0.32833658  0.62317808  1
  S  S158  1  0.93713356  0.33344093  0.95795162  1
  S  S159  1  0.92686450  0.82342311  0.28806523  1
  S  S160  1  0.93537232  0.82158346  0.62168434  1
  S  S161  1  0.93278747  0.82527375  0.95524831  1
  S  S162  1  0.16942948  0.06941693  0.20726131  1
  S  S163  1  0.17672490  0.07146109  0.54988373  1
  S  S164  1  0.16916096  0.06784354  0.87537370  1
  S  S165  1  0.16393437  0.56681434  0.20800360  1
  S  S166  1  0.17260126  0.56536075  0.54393203  1
  S  S167  1  0.16885665  0.56665785  0.87775649  1
  S  S168  1  0.67617930  0.06342366  0.20871806  1
  S  S169  1  0.65516561  0.05391785  0.54854206  1
  S  S170  1  0.67761294  0.06790853  0.87849104  1
  S  S171  1  0.67053341  0.56122443  0.20897160  1
  S  S172  1  0.66654627  0.56958703  0.53908188  1
  S  S173  1  0.66962556  0.56042902  0.87417524  1
  O  O174  1  0.37437307  0.22359048  0.07622639  1
  O  O175  1  0.37144334  0.21866920  0.39204845  1
  O  O176  1  0.37190396  0.22326101  0.74656239  1
  O  O177  1  0.36023746  0.71050671  0.06129233  1
  O  O178  1  0.36573344  0.71351037  0.40928673  1
  O  O179  1  0.36616110  0.71811490  0.74600133  1
  O  O180  1  0.87084354  0.21919328  0.07294926  1
  O  O181  1  0.87586540  0.21205932  0.39718101  1
  O  O182  1  0.86214203  0.22751647  0.75408600  1
  O  O183  1  0.86895410  0.71726498  0.07267587  1
  O  O184  1  0.87152298  0.71604787  0.41048836  1
  O  O185  1  0.86927961  0.71669561  0.74083943  1
  O  O186  1  0.28209435  0.13881264  0.09151843  1
  O  O187  1  0.27427055  0.14664912  0.41373010  1
  O  O188  1  0.28193375  0.13593808  0.76120544  1
  O  O189  1  0.27608190  0.62744469  0.09004649  1
  O  O190  1  0.28564191  0.62284236  0.43228635  1
  O  O191  1  0.27256444  0.62898446  0.75259347  1
  O  O192  1  0.78070162  0.13392096  0.08946237  1
  O  O193  1  0.78440282  0.13322948  0.42072863  1
  O  O194  1  0.78166813  0.12674595  0.76076231  1
  O  O195  1  0.78263679  0.62916571  0.09046444  1
  O  O196  1  0.78598176  0.62723366  0.42824781  1
  O  O197  1  0.78402318  0.63015272  0.76139627  1
  O  O198  1  0.12614018  0.28122142  0.25931740  1
  O  O199  1  0.12697699  0.28403287  0.59652155  1
  O  O200  1  0.12789855  0.27988688  0.91733838  1
  O  O201  1  0.13466462  0.77380773  0.24519396  1
  O  O202  1  0.13751230  0.77913619  0.59228940  1
  O  O203  1  0.12965481  0.78528332  0.92922744  1
  O  O204  1  0.63895275  0.27474742  0.25191105  1
  O  O205  1  0.62809739  0.29355957  0.59954832  1
  O  O206  1  0.63524839  0.27833853  0.92547986  1
  O  O207  1  0.63165935  0.77810011  0.24456710  1
  O  O208  1  0.62440740  0.78094663  0.60675413  1
  O  O209  1  0.63348220  0.78661251  0.93099619  1
  O  O210  1  0.21294777  0.36679966  0.23706425  1
  O  O211  1  0.21482535  0.36885478  0.57597404  1
  O  O212  1  0.21387390  0.37115669  0.90334914  1
  O  O213  1  0.21867936  0.87379728  0.23976672  1
  O  O214  1  0.22442811  0.86920021  0.57569641  1
  O  O215  1  0.21866517  0.87358144  0.91470034  1
  O  O216  1  0.72143041  0.36776374  0.23577208  1
  O  O217  1  0.71318271  0.37595402  0.57115828  1
  O  O218  1  0.72491503  0.36557823  0.91013202  1
  O  O219  1  0.72843629  0.86898348  0.24716600  1
  O  O220  1  0.72678666  0.85380419  0.59260367  1
  O  O221  1  0.72182521  0.87290933  0.91192763  1
  O  O222  1  0.41972073  0.13093539  0.14690365  1
  O  O223  1  0.41126662  0.14053870  0.47905953  1
  O  O224  1  0.41944728  0.13659134  0.82257014  1
  O  O225  1  0.41361876  0.64518134  0.15666110  1
  O  O226  1  0.42441813  0.62647793  0.48313093  1
  O  O227  1  0.40988045  0.62684879  0.81847443  1
  O  O228  1  0.91720358  0.13890918  0.15652195  1
  O  O229  1  0.92177706  0.13168690  0.48175618  1
  O  O230  1  0.91979105  0.13442927  0.81918256  1
  O  O231  1  0.92102622  0.63289310  0.15232681  1
  O  O232  1  0.92498508  0.62504132  0.48235270  1
  O  O233  1  0.92275314  0.62882140  0.81560854  1
  O  O234  1  0.36358264  0.08578800  0.01122570  1
  O  O235  1  0.36074117  0.07941827  0.34418636  1
  O  O236  1  0.36984222  0.08547016  0.68565460  1
  O  O237  1  0.37025766  0.57219786  0.02362102  1
  O  O238  1  0.36690821  0.57483242  0.34881638  1
  O  O239  1  0.36487790  0.58098259  0.68255688  1
  O  O240  1  0.87213430  0.08032930  0.02004936  1
  O  O241  1  0.86863420  0.07299808  0.34584042  1
  O  O242  1  0.86855029  0.09345508  0.68148186  1
  O  O243  1  0.87235820  0.57901727  0.01681156  1
  O  O244  1  0.86941132  0.57847776  0.34743308  1
  O  O245  1  0.86723652  0.57821650  0.68047950  1
  O  O246  1  0.07459682  0.36966803  0.18414408  1
  O  O247  1  0.07658447  0.37193779  0.52046772  1
  O  O248  1  0.07532035  0.37308246  0.84868302  1
  O  O249  1  0.08098840  0.86208598  0.17467753  1
  O  O250  1  0.08660852  0.86114631  0.51236306  1
  O  O251  1  0.08080914  0.86811166  0.84817838  1
  O  O252  1  0.58340172  0.36557100  0.18133839  1
  O  O253  1  0.57509402  0.37156296  0.51449144  1
  O  O254  1  0.58728477  0.36525821  0.84816475  1
  O  O255  1  0.59215075  0.87703454  0.18103535  1
  O  O256  1  0.59151015  0.86346191  0.52420809  1
  O  O257  1  0.58409388  0.86509932  0.84647565  1
  O  O258  1  0.13168422  0.41947287  0.31878953  1
  O  O259  1  0.13240907  0.42173537  0.65641879  1
  O  O260  1  0.12962215  0.41713571  0.98411320  1
  O  O261  1  0.12559376  0.90998821  0.31174952  1
  O  O262  1  0.13487222  0.91693499  0.64922362  1
  O  O263  1  0.12540605  0.92425720  0.98308452  1
  O  O264  1  0.63878008  0.41185189  0.31801127  1
  O  O265  1  0.62750488  0.43208560  0.64793871  1
  O  O266  1  0.63751211  0.41584545  0.98482661  1
  O  O267  1  0.63468784  0.91399963  0.31709192  1
  O  O268  1  0.63798667  0.91989532  0.66014814  1
  O  O269  1  0.62895250  0.92585467  0.98074076  1
  O  O270  1  0.02979177  0.19933517  0.10338606  1
  O  O271  1  0.03322564  0.21301897  0.44395875  1
  O  O272  1  0.02805104  0.20373130  0.77011415  1
  O  O273  1  0.02658259  0.69364178  0.09964677  1
  O  O274  1  0.03266646  0.69718482  0.43773829  1
  O  O275  1  0.03133218  0.70233187  0.77141582  1
  O  O276  1  0.53405293  0.19665226  0.10250228  1
  O  O277  1  0.53076789  0.20307544  0.43189911  1
  O  O278  1  0.53935859  0.19930226  0.77680820  1
  O  O279  1  0.53629020  0.67387575  0.10823951  1
  O  O280  1  0.54282373  0.69450267  0.43571378  1
  O  O281  1  0.52666085  0.69491524  0.76501858  1
  O  O282  1  0.29304179  0.46007123  0.05557746  1
  O  O283  1  0.30032935  0.46129908  0.39965043  1
  O  O284  1  0.29939584  0.46733825  0.73170921  1
  O  O285  1  0.29505670  0.97835507  0.06683282  1
  O  O286  1  0.29413966  0.97771378  0.39497273  1
  O  O287  1  0.30071280  0.97373278  0.72968517  1
  O  O288  1  0.80445494  0.46875895  0.06153482  1
  O  O289  1  0.79882037  0.46747871  0.39183888  1
  O  O290  1  0.79887519  0.46990195  0.72803660  1
  O  O291  1  0.79786362  0.96886510  0.06702749  1
  O  O292  1  0.81256016  0.96083973  0.39262013  1
  O  O293  1  0.80100567  0.97196060  0.73989929  1
  O  O294  1  0.47939826  0.29499175  0.22738172  1
  O  O295  1  0.45910210  0.31697405  0.56416166  1
  O  O296  1  0.47577598  0.30534743  0.89754750  1
  O  O297  1  0.46181108  0.82248639  0.23146936  1
  O  O298  1  0.46462528  0.79875431  0.56629359  1
  O  O299  1  0.46529843  0.81973227  0.89571300  1
  O  O300  1  0.96771836  0.30209992  0.22978695  1
  O  O301  1  0.95805981  0.29730676  0.56005638  1
  O  O302  1  0.97164397  0.30268730  0.89649358  1
  O  O303  1  0.96613838  0.79616076  0.22822698  1
  O  O304  1  0.97581083  0.78944710  0.56279556  1
  O  O305  1  0.96859570  0.79462186  0.89330760  1
  O  O306  1  0.19957472  0.02931052  0.26407501  1
  O  O307  1  0.20866198  0.03510515  0.61316392  1
  O  O308  1  0.20127392  0.03142874  0.93638180  1
  O  O309  1  0.18595661  0.53415108  0.27005849  1
  O  O310  1  0.19870917  0.52624240  0.60333191  1
  O  O311  1  0.19702039  0.53013955  0.93865840  1
  O  O312  1  0.70744814  0.02452124  0.26600900  1
  O  O313  1  0.70104829  0.02735767  0.61504893  1
  O  O314  1  0.70967405  0.03215985  0.93966058  1
  O  O315  1  0.70651451  0.52702908  0.27146536  1
  O  O316  1  0.70154466  0.53753461  0.60314189  1
  O  O317  1  0.70779709  0.52660075  0.93671418  1
  O  O318  1  0.08694009  0.09257934  0.03311230  1
  O  O319  1  0.09105260  0.10135736  0.38496599  1
  O  O320  1  0.08562422  0.09294983  0.70776808  1
  O  O321  1  0.08064260  0.58142779  0.03470633  1
  O  O322  1  0.08644381  0.58401417  0.37433468  1
  O  O323  1  0.08484653  0.58902877  0.71091133  1
  O  O324  1  0.58812560  0.08730706  0.03310207  1
  O  O325  1  0.56406014  0.07999365  0.36429854  1
  O  O326  1  0.60571461  0.09336273  0.71704852  1
  O  O327  1  0.58630511  0.57270897  0.02904524  1
  O  O328  1  0.59194526  0.58800097  0.35919764  1
  O  O329  1  0.58080138  0.58455958  0.69964881  1
  O  O330  1  0.41603412  0.42070166  0.12314887  1
  O  O331  1  0.41377149  0.40984772  0.46229943  1
  O  O332  1  0.41140016  0.41226923  0.79727669  1
  O  O333  1  0.41101760  0.93607488  0.13901045  1
  O  O334  1  0.40959774  0.92908181  0.45964661  1
  O  O335  1  0.40877398  0.91421881  0.79558374  1
  O  O336  1  0.91848311  0.41871139  0.12871240  1
  O  O337  1  0.90994228  0.41326968  0.45665491  1
  O  O338  1  0.91252177  0.41733720  0.79287050  1
  O  O339  1  0.90196731  0.90374158  0.12542919  1
  O  O340  1  0.91583798  0.90433488  0.46596090  1
  O  O341  1  0.91178567  0.91146062  0.79826921  1
  O  O342  1  0.43859849  0.41638381  0.29027986  1
  O  O343  1  0.41826253  0.42426032  0.64756569  1
  O  O344  1  0.42148821  0.41705205  0.96371154  1
  O  O345  1  0.39880292  0.92189003  0.30032564  1
  O  O346  1  0.40942201  0.90798871  0.62945719  1
  O  O347  1  0.41607627  0.92832926  0.97017735  1
  O  O348  1  0.92077182  0.41884554  0.29626410  1
  O  O349  1  0.90597973  0.40987469  0.62696332  1
  O  O350  1  0.92005320  0.41621518  0.96133897  1
  O  O351  1  0.90106544  0.90116000  0.28873250  1
  O  O352  1  0.91287073  0.89783905  0.62100590  1
  O  O353  1  0.91770850  0.90725101  0.96058467  1
  O  O354  1  0.09113395  0.09147838  0.20858467  1
  O  O355  1  0.10209079  0.10041775  0.55821470  1
  O  O356  1  0.08789963  0.08427443  0.87430788  1
  O  O357  1  0.07941425  0.58421344  0.19586987  1
  O  O358  1  0.09046653  0.58377614  0.53688919  1
  O  O359  1  0.08449116  0.58091546  0.86932446  1
  O  O360  1  0.59618721  0.08507132  0.20807165  1
  O  O361  1  0.57189550  0.04675720  0.54294847  1
  O  O362  1  0.59589385  0.08258062  0.87519093  1
  O  O363  1  0.58807329  0.56970665  0.20277791  1
  O  O364  1  0.58407576  0.58220832  0.53381560  1
  O  O365  1  0.58815699  0.56896424  0.87071489  1
  O  O366  1  0.13758673  0.22880975  0.06157596  1
  O  O367  1  0.13802195  0.23463980  0.39707264  1
  O  O368  1  0.14036775  0.22688952  0.73200482  1
  O  O369  1  0.13657677  0.71515662  0.05660383  1
  O  O370  1  0.14039888  0.71717014  0.39146248  1
  O  O371  1  0.13667159  0.72033586  0.72138138  1
  O  O372  1  0.64322394  0.22245588  0.06127415  1
  O  O373  1  0.63180639  0.20584949  0.37524510  1
  O  O374  1  0.64234649  0.22800251  0.72925886  1
  O  O375  1  0.63414970  0.71043589  0.05761598  1
  O  O376  1  0.64742744  0.72398989  0.38973022  1
  O  O377  1  0.63902382  0.71739450  0.72562735  1
  O  O378  1  0.28967193  0.37180244  0.12551584  1
  O  O379  1  0.28194008  0.35582417  0.44903208  1
  O  O380  1  0.27717427  0.36094749  0.77811899  1
  O  O381  1  0.28060463  0.86422701  0.10521556  1
  O  O382  1  0.27747954  0.87075694  0.44123247  1
  O  O383  1  0.27307963  0.86690995  0.77325656  1
  O  O384  1  0.78601400  0.36185571  0.10883406  1
  O  O385  1  0.77716881  0.35856847  0.43597110  1
  O  O386  1  0.77938596  0.36412755  0.77602686  1
  O  O387  1  0.76656579  0.85557255  0.10223614  1
  O  O388  1  0.77878244  0.86202425  0.44194261  1
  O  O389  1  0.77881601  0.86147821  0.78178711  1
  O  O390  1  0.36737982  0.29017839  0.27075061  1
  O  O391  1  0.35696841  0.28959032  0.61438062  1
  O  O392  1  0.36580002  0.28354455  0.93977995  1
  O  O393  1  0.36191880  0.78320810  0.27766462  1
  O  O394  1  0.35567540  0.77405175  0.60878496  1
  O  O395  1  0.36226676  0.79274522  0.94367757  1
  O  O396  1  0.86277144  0.28776213  0.28022584  1
  O  O397  1  0.85836631  0.27733471  0.61629394  1
  O  O398  1  0.86524024  0.28382818  0.94462179  1
  O  O399  1  0.85854281  0.76599571  0.27041586  1
  O  O400  1  0.86730017  0.76402663  0.60496452  1
  O  O401  1  0.85963420  0.77465227  0.93748092  1
  O  O402  1  0.22320894  0.13970363  0.22199973  1
  O  O403  1  0.23421335  0.13985477  0.56619436  1
  O  O404  1  0.21960278  0.13899476  0.88975480  1
  O  O405  1  0.21554451  0.63583873  0.22019641  1
  O  O406  1  0.22526335  0.63640258  0.56341714  1
  O  O407  1  0.21805788  0.63893848  0.89427007  1
  O  O408  1  0.73008137  0.13381492  0.22422333  1
  O  O409  1  0.68793022  0.13526892  0.56558040  1
  O  O410  1  0.72766969  0.14122643  0.89545635  1
  O  O411  1  0.71848396  0.63557947  0.22536371  1
  O  O412  1  0.71555318  0.64187593  0.55223117  1
  O  O413  1  0.71660806  0.63541797  0.88992653  1
  O  O414  1  0.49585095  0.33473287  0.03029782  1
  O  O415  1  0.49770865  0.33290804  0.36207314  1
  O  O416  1  0.49151218  0.33008381  0.69633082  1
  O  O417  1  0.49476025  0.84522569  0.02920887  1
  O  O418  1  0.49131685  0.84867582  0.36483394  1
  O  O419  1  0.48510806  0.82860071  0.69944014  1
  O  O420  1  0.99640107  0.33864208  0.03131611  1
  O  O421  1  0.99510488  0.34043920  0.36559084  1
  O  O422  1  0.99095487  0.33743596  0.69575073  1
  O  O423  1  0.99063137  0.82382594  0.02644754  1
  O  O424  1  0.98673793  0.82758939  0.36003323  1
  O  O425  1  0.99406653  0.82567887  0.69584318  1
  O  O426  1  0.16089425  0.01270483  0.13116849  1
  O  O427  1  0.16541888  0.01205236  0.47886232  1
  O  O428  1  0.16501695  0.00877759  0.80193612  1
  O  O429  1  0.16206931  0.50396264  0.13628463  1
  O  O430  1  0.17157416  0.50683355  0.47146357  1
  O  O431  1  0.16765336  0.50723999  0.80547205  1
  O  O432  1  0.66589872  0.00666015  0.13209555  1
  O  O433  1  0.66947723  0.00305181  0.48158315  1
  O  O434  1  0.67813138  0.01030922  0.80611343  1
  O  O435  1  0.67471283  0.50376640  0.13746103  1
  O  O436  1  0.66707012  0.50832181  0.46822977  1
  O  O437  1  0.67225205  0.50401482  0.80190096  1
  O  O438  1  0.01000446  0.17531040  0.30957037  1
  O  O439  1  0.01067824  0.17298329  0.63883122  1
  O  O440  1  0.00783308  0.17409859  0.97098224  1
  O  O441  1  0.01022932  0.66138817  0.30371214  1
  O  O442  1  0.00678882  0.66168543  0.63607914  1
  O  O443  1  0.00648547  0.66111469  0.96630083  1
  O  O444  1  0.49836882  0.16334829  0.29501462  1
  O  O445  1  0.51357501  0.16093833  0.64339006  1
  O  O446  1  0.51333970  0.17095142  0.96978587  1
  O  O447  1  0.51501475  0.67482779  0.30248572  1
  O  O448  1  0.50898952  0.66695833  0.63239856  1
  O  O449  1  0.50115202  0.65468784  0.97420250  1
  O  O450  1  0.34596973  0.50946211  0.19184210  1
  O  O451  1  0.33859082  0.48686890  0.53468370  1
  O  O452  1  0.33453843  0.49161336  0.86566518  1
  O  O453  1  0.31707229  0.99334397  0.19888002  1
  O  O454  1  0.33008068  0.99988147  0.53007072  1
  O  O455  1  0.33154911  0.99590485  0.86271674  1
  O  O456  1  0.83753148  0.49347545  0.19558454  1
  O  O457  1  0.82978060  0.48942813  0.52456132  1
  O  O458  1  0.83642594  0.49483766  0.86285664  1
  O  O459  1  0.82558706  0.98138120  0.19790518  1
  O  O460  1  0.84047180  0.99356982  0.52604455  1
  O  O461  1  0.84030807  0.99046294  0.87281956  1
