# generated using pymatgen
data_Na31Fe20(SO4)36
_symmetry_space_group_name_H-M   'P 1'
_cell_length_a   18.10283021
_cell_length_b   18.09252150
_cell_length_c   19.74061246
_cell_angle_alpha   107.56585827
_cell_angle_beta   107.59099162
_cell_angle_gamma   90.70705389
_symmetry_Int_Tables_number   1
_chemical_formula_structural   Na31Fe20(SO4)36
_chemical_formula_sum   'Na62 Fe40 S72 O288'
_cell_volume   5837.56477459
_cell_formula_units_Z   2
loop_
 _symmetry_equiv_pos_site_id
 _symmetry_equiv_pos_as_xyz
  1  'x, y, z'
loop_
 _atom_site_type_symbol
 _atom_site_label
 _atom_site_symmetry_multiplicity
 _atom_site_fract_x
 _atom_site_fract_y
 _atom_site_fract_z
 _atom_site_occupancy
  Na  Na0  1  0.13870399  0.36758990  0.08388099  1
  Na  Na1  1  0.11822484  0.36814391  0.41225090  1
  Na  Na2  1  0.12692009  0.37243876  0.74929781  1
  Na  Na3  1  0.13033128  0.86662146  0.08058830  1
  Na  Na4  1  0.13032636  0.86979520  0.41629166  1
  Na  Na5  1  0.13075687  0.86554117  0.74889047  1
  Na  Na6  1  0.66005875  0.38801104  0.11749813  1
  Na  Na7  1  0.65936011  0.36139309  0.40987706  1
  Na  Na8  1  0.64162247  0.37194154  0.75468566  1
  Na  Na9  1  0.63566676  0.86293233  0.08011188  1
  Na  Na10  1  0.64237433  0.85353863  0.42129563  1
  Na  Na11  1  0.70525187  0.77511908  0.70854253  1
  Na  Na12  1  0.37017898  0.13040607  0.24979393  1
  Na  Na13  1  0.37273176  0.12843483  0.58302849  1
  Na  Na14  1  0.37127557  0.13189798  0.91894834  1
  Na  Na15  1  0.36032922  0.63167353  0.24487343  1
  Na  Na16  1  0.36218234  0.64147955  0.58393683  1
  Na  Na17  1  0.36956872  0.63851965  0.92589534  1
  Na  Na18  1  0.86158355  0.13557171  0.25548541  1
  Na  Na19  1  0.87071790  0.12761463  0.57982119  1
  Na  Na20  1  0.86573998  0.14548343  0.93157267  1
  Na  Na21  1  0.85472956  0.64015839  0.24945120  1
  Na  Na22  1  0.82502269  0.63424874  0.54812271  1
  Na  Na23  1  0.85781567  0.63265497  0.90483059  1
  Na  Na24  1  0.48625167  0.50185516  0.75841336  1
  Na  Na25  1  0.50477598  0.54176278  0.21591378  1
  Na  Na26  1  0.50852901  -0.02411846  0.45361229  1
  Na  Na27  1  0.54068549  -0.02790136  0.72282118  1
  Na  Na28  1  1.01247012  0.48520983  0.09327544  1
  Na  Na29  1  0.54155511  0.48208874  0.38775745  1
  Na  Na30  1  0.99032169  0.00894310  0.74571593  1
  Na  Na31  1  0.50032642  0.00299041  0.07947176  1
  Na  Na32  1  0.98428995  0.00922850  0.42777686  1
  Na  Na33  1  -0.00339757  1.01803393  0.22093457  1
  Na  Na34  1  0.50810865  0.97644175  0.25884483  1
  Na  Na35  1  0.48055630  0.51387545  0.56864544  1
  Na  Na36  1  0.03581472  0.49743062  0.91959369  1
  Na  Na37  1  0.52689332  0.99626139  0.90509716  1
  Na  Na38  1  0.01233082  0.49027410  0.56839529  1
  Na  Na39  1  -0.03977115  1.01607346  0.96665454  1
  Na  Na40  1  -0.04750063  0.50865384  0.29674659  1
  Na  Na41  1  0.50039678  0.48737215  0.94945195  1
  Na  Na42  1  0.76115387  0.25715267  0.65861071  1
  Na  Na43  1  0.24506183  0.74314746  0.33231912  1
  Na  Na44  1  0.24553419  0.25102067  0.66717846  1
  Na  Na45  1  0.24939577  0.25140196  0.33370583  1
  Na  Na46  1  0.24221566  0.73412183  0.00906514  1
  Na  Na47  1  0.71876850  0.70376432  0.34316750  1
  Na  Na48  1  0.25220393  0.25125562  0.00000484  1
  Na  Na49  1  0.75944914  0.25977462  0.01500558  1
  Na  Na50  1  0.76007160  0.77224916  -0.02149765  1
  Na  Na51  1  0.24612953  0.74935652  0.66983381  1
  Na  Na52  1  0.24765934  0.75163375  0.49786336  1
  Na  Na53  1  0.24582260  0.24947952  0.83384504  1
  Na  Na54  1  0.74075000  0.74859242  0.16889892  1
  Na  Na55  1  0.24362583  0.74225532  0.83977501  1
  Na  Na56  1  0.76825805  0.25328330  0.48466811  1
  Na  Na57  1  0.75586299  0.25337405  0.83660824  1
  Na  Na58  1  0.23937494  0.73511116  0.16764817  1
  Na  Na59  1  0.75193448  0.25554963  0.19050529  1
  Na  Na60  1  0.24839866  0.24780023  0.50057020  1
  Na  Na61  1  0.25068231  0.24886896  0.16858654  1
  Fe  Fe62  1  0.46524006  0.30672543  0.78688316  1
  Fe  Fe63  1  0.46474619  0.30687958  0.12188521  1
  Fe  Fe64  1  0.96547769  0.30924539  0.78597662  1
  Fe  Fe65  1  0.96348536  0.81161726  0.45336654  1
  Fe  Fe66  1  0.47080189  0.79738963  0.12390767  1
  Fe  Fe67  1  0.95791146  0.81278127  0.78541676  1
  Fe  Fe68  1  0.47099829  0.30657448  0.45440468  1
  Fe  Fe69  1  0.96461790  0.81063968  0.11468130  1
  Fe  Fe70  1  0.46693288  0.80415425  0.78313287  1
  Fe  Fe71  1  0.46628730  0.79508773  0.45852357  1
  Fe  Fe72  1  0.19296745  0.03266841  0.04381560  1
  Fe  Fe73  1  0.18884906  0.03698717  0.70964284  1
  Fe  Fe74  1  0.70122553  0.03645137  0.71634339  1
  Fe  Fe75  1  0.70167524  0.03016887  0.04710689  1
  Fe  Fe76  1  0.18446032  0.53348404  0.37434392  1
  Fe  Fe77  1  0.69487078  0.03390845  0.38356012  1
  Fe  Fe78  1  0.19355251  0.03436043  0.37742527  1
  Fe  Fe79  1  0.69566279  0.53959781  0.04739567  1
  Fe  Fe80  1  0.19270058  0.53602359  0.71257733  1
  Fe  Fe81  1  0.67897660  0.55198725  0.71169530  1
  Fe  Fe82  1  0.54022973  0.19317879  0.54947805  1
  Fe  Fe83  1  0.53696193  0.69396850  0.88142046  1
  Fe  Fe84  1  0.02854403  0.20215651  0.20644689  1
  Fe  Fe85  1  0.03254448  0.69420923  0.54366903  1
  Fe  Fe86  1  0.03549163  0.19789778  0.88280106  1
  Fe  Fe87  1  0.02770171  0.20316182  0.53926181  1
  Fe  Fe88  1  0.03172794  0.69416530  0.20965101  1
  Fe  Fe89  1  0.53572500  0.19400422  0.88023604  1
  Fe  Fe90  1  0.53892635  0.19119806  0.21673099  1
  Fe  Fe91  1  0.03219969  0.69051683  0.87605769  1
  Fe  Fe92  1  0.80628377  0.95826259  0.61507630  1
  Fe  Fe93  1  0.30683901  0.96178670  0.95045558  1
  Fe  Fe94  1  0.30267574  0.47059217  0.96150338  1
  Fe  Fe95  1  0.30727782  0.96662020  0.62107022  1
  Fe  Fe96  1  0.30901757  0.96539610  0.28783600  1
  Fe  Fe97  1  0.80557348  0.96190577  0.28441038  1
  Fe  Fe98  1  0.30502903  0.46409799  0.61761483  1
  Fe  Fe99  1  0.81201693  0.46855016  0.95401483  1
  Fe  Fe100  1  0.80751571  0.47001469  0.62112648  1
  Fe  Fe101  1  0.30655755  0.46615560  0.28749982  1
  S  S102  1  0.36390029  0.13541025  0.08287857  1
  S  S103  1  0.36345722  0.13931684  0.41964062  1
  S  S104  1  0.35870816  0.14144542  0.74946208  1
  S  S105  1  0.36000020  0.64035706  0.08325587  1
  S  S106  1  0.35227675  0.63739152  0.41753130  1
  S  S107  1  0.35945991  0.63828961  0.74869516  1
  S  S108  1  0.86282941  0.13361229  0.08423867  1
  S  S109  1  0.86233632  0.13463247  0.41592018  1
  S  S110  1  0.86448201  0.13999820  0.74917435  1
  S  S111  1  0.85783243  0.64823658  0.07892219  1
  S  S112  1  0.86498872  0.64487933  0.41379632  1
  S  S113  1  0.85915366  0.64146388  0.75037733  1
  S  S114  1  0.14378370  0.35902315  0.24890370  1
  S  S115  1  0.14359485  0.36163018  0.58386175  1
  S  S116  1  0.14136745  0.35972227  0.91625223  1
  S  S117  1  0.14056421  0.86220758  0.24615334  1
  S  S118  1  0.13893946  0.86236160  0.58266937  1
  S  S119  1  0.14038801  0.85781136  0.91444039  1
  S  S120  1  0.63207831  0.35983799  0.24955803  1
  S  S121  1  0.64328323  0.35966791  0.58698026  1
  S  S122  1  0.63832410  0.36151050  0.91699758  1
  S  S123  1  0.63811007  0.86177926  0.25353474  1
  S  S124  1  0.63184795  0.86943891  0.58513990  1
  S  S125  1  0.63526543  0.86472784  0.91358768  1
  S  S126  1  0.07319972  0.16898236  0.04230658  1
  S  S127  1  0.07272117  0.16569111  0.36946594  1
  S  S128  1  0.06860841  0.17431033  0.70657781  1
  S  S129  1  0.06154788  0.66961754  0.04137244  1
  S  S130  1  0.06774388  0.67526284  0.37330173  1
  S  S131  1  0.07038047  0.67180935  0.70694240  1
  S  S132  1  0.57110250  0.16576360  0.04291519  1
  S  S133  1  0.56858378  0.16633167  0.37745378  1
  S  S134  1  0.57103783  0.17413497  0.71277064  1
  S  S135  1  0.56951353  0.67380629  0.03712999  1
  S  S136  1  0.55291366  0.66824563  0.37587514  1
  S  S137  1  0.55155790  0.65117114  0.70649055  1
  S  S138  1  0.33164709  0.42823927  0.12670314  1
  S  S139  1  0.32661639  0.42915746  0.45592751  1
  S  S140  1  0.33195747  0.43437181  0.79518893  1
  S  S141  1  0.33246571  0.92848214  0.12336349  1
  S  S142  1  0.32541436  0.92636488  0.45617285  1
  S  S143  1  0.33050113  0.93302727  0.79036155  1
  S  S144  1  0.83762748  0.44545673  0.11947660  1
  S  S145  1  0.83168955  0.43497982  0.46576800  1
  S  S146  1  0.83351566  0.43274717  0.79114857  1
  S  S147  1  0.82684927  0.92845764  0.12570602  1
  S  S148  1  0.82845937  0.92926524  0.45536022  1
  S  S149  1  0.84142096  0.94454198  0.79333007  1
  S  S150  1  0.42928150  0.32477038  0.29166499  1
  S  S151  1  0.43350571  0.32978793  0.62431487  1
  S  S152  1  0.42727625  0.32494805  0.95550809  1
  S  S153  1  0.42663386  0.83275230  0.29641908  1
  S  S154  1  0.42454387  0.83051409  0.62324821  1
  S  S155  1  0.43105842  0.83000624  0.95789415  1
  S  S156  1  0.93389099  0.32162390  0.28651121  1
  S  S157  1  0.92920895  0.32826312  0.62410012  1
  S  S158  1  0.93849939  0.33442621  0.95643145  1
  S  S159  1  0.93541806  0.83527011  0.28990422  1
  S  S160  1  0.93261388  0.83053708  0.62357394  1
  S  S161  1  0.93316124  0.82485861  0.95188179  1
  S  S162  1  0.17490966  0.07219729  0.20848178  1
  S  S163  1  0.17123450  0.07264978  0.54153139  1
  S  S164  1  0.17211857  0.06943419  0.87467420  1
  S  S165  1  0.16675319  0.56538848  0.20784073  1
  S  S166  1  0.17077225  0.56887382  0.54238758  1
  S  S167  1  0.17243278  0.56788010  0.87469610  1
  S  S168  1  0.66710617  0.06526775  0.20735094  1
  S  S169  1  0.67375842  0.07062777  0.54438011  1
  S  S170  1  0.67071098  0.07619127  0.87695330  1
  S  S171  1  0.66389930  0.57977660  0.19936027  1
  S  S172  1  0.66128445  0.55273898  0.54607888  1
  S  S173  1  0.66905001  0.57002282  0.87592858  1
  O  O174  1  0.37184179  0.21311394  0.07208024  1
  O  O175  1  0.37109362  0.21977692  0.41455815  1
  O  O176  1  0.36747266  0.22085337  0.74144153  1
  O  O177  1  0.37689807  0.71666435  0.06921436  1
  O  O178  1  0.36315141  0.71960954  0.41303162  1
  O  O179  1  0.36998894  0.71680976  0.74009176  1
  O  O180  1  0.86651108  0.21074757  0.07498990  1
  O  O181  1  0.86940609  0.21053949  0.40794357  1
  O  O182  1  0.87095954  0.21754797  0.73790409  1
  O  O183  1  0.86715972  0.72707297  0.07079960  1
  O  O184  1  0.87712268  0.72529305  0.40574487  1
  O  O185  1  0.86927886  0.72027466  0.74303685  1
  O  O186  1  0.28522454  0.12676186  0.09139888  1
  O  O187  1  0.28534612  0.12834157  0.42922216  1
  O  O188  1  0.27871072  0.13230311  0.75577696  1
  O  O189  1  0.27866932  0.63901687  0.08315215  1
  O  O190  1  0.26961827  0.63143024  0.41988835  1
  O  O191  1  0.28001246  0.63197548  0.75645646  1
  O  O192  1  0.78913540  0.12087391  0.10244994  1
  O  O193  1  0.78572917  0.12112594  0.42873787  1
  O  O194  1  0.78693739  0.13266225  0.76064898  1
  O  O195  1  0.77882178  0.63937217  0.08571480  1
  O  O196  1  0.78878758  0.63858671  0.42354564  1
  O  O197  1  0.78353308  0.63120975  0.76324972  1
  O  O198  1  0.13279476  0.27713321  0.25376396  1
  O  O199  1  0.13072956  0.28066074  0.58688154  1
  O  O200  1  0.13385849  0.27698167  0.91871237  1
  O  O201  1  0.13244064  0.78088947  0.24931869  1
  O  O202  1  0.13168748  0.78277978  0.59004939  1
  O  O203  1  0.13560335  0.77866421  0.92298337  1
  O  O204  1  0.62464165  0.27745245  0.25459275  1
  O  O205  1  0.63403709  0.28042156  0.59606489  1
  O  O206  1  0.62974522  0.28326843  0.92676190  1
  O  O207  1  0.63137188  0.78775916  0.26593805  1
  O  O208  1  0.62560923  0.79775067  0.60204137  1
  O  O209  1  0.62220435  0.78807545  0.92632752  1
  O  O210  1  0.22770649  0.36566419  0.24984320  1
  O  O211  1  0.22638813  0.36647162  0.58108359  1
  O  O212  1  0.22089601  0.36890815  0.90899897  1
  O  O213  1  0.21836554  0.87255220  0.23585555  1
  O  O214  1  0.21752410  0.87244165  0.57369657  1
  O  O215  1  0.21850620  0.86936711  0.90406331  1
  O  O216  1  0.70792000  0.37296292  0.24097720  1
  O  O217  1  0.72494469  0.36827740  0.58387171  1
  O  O218  1  0.71667515  0.37027724  0.90783444  1
  O  O219  1  0.71479410  0.87396264  0.24083776  1
  O  O220  1  0.70500258  0.88098225  0.56749639  1
  O  O221  1  0.71092343  0.87157695  0.90509781  1
  O  O222  1  0.42359839  0.12826343  0.15077030  1
  O  O223  1  0.42405276  0.12943276  0.48568459  1
  O  O224  1  0.41652266  0.13460758  0.81805654  1
  O  O225  1  0.41372670  0.63377667  0.15213583  1
  O  O226  1  0.40605822  0.62598165  0.48371204  1
  O  O227  1  0.41768908  0.62823569  0.81564000  1
  O  O228  1  0.92872532  0.12851363  0.15281134  1
  O  O229  1  0.92443384  0.12475934  0.48316805  1
  O  O230  1  0.92560908  0.13430767  0.81697574  1
  O  O231  1  0.91606113  0.64222297  0.14841828  1
  O  O232  1  0.92529704  0.63919537  0.48379413  1
  O  O233  1  0.92134507  0.63175320  0.81586520  1
  O  O234  1  0.37195261  0.07473620  0.01562563  1
  O  O235  1  0.36815940  0.08230943  0.34933249  1
  O  O236  1  0.36636747  0.08300166  0.68139628  1
  O  O237  1  0.36894574  0.57812464  0.01585259  1
  O  O238  1  0.35816862  0.58248942  0.34658774  1
  O  O239  1  0.36524290  0.57835609  0.68003160  1
  O  O240  1  0.86785669  0.07298329  0.01777093  1
  O  O241  1  0.86986059  0.07154076  0.34909213  1
  O  O242  1  0.87213087  0.07890317  0.68238799  1
  O  O243  1  0.86678152  0.58903040  0.01165977  1
  O  O244  1  0.87473035  0.58793379  0.34745785  1
  O  O245  1  0.86382113  0.58219599  0.68089819  1
  O  O246  1  0.09172558  0.36915401  0.18154380  1
  O  O247  1  0.08929248  0.37704053  0.52006935  1
  O  O248  1  0.08340537  0.36808278  0.84734208  1
  O  O249  1  0.08021882  0.87523824  0.18190354  1
  O  O250  1  0.07965882  0.87096785  0.51568710  1
  O  O251  1  0.08015470  0.86471500  0.84740394  1
  O  O252  1  0.57163584  0.36297618  0.17794574  1
  O  O253  1  0.58687640  0.36160105  0.51525760  1
  O  O254  1  0.57873948  0.36627520  0.84691587  1
  O  O255  1  0.57667844  0.86950929  0.18515389  1
  O  O256  1  0.56614626  0.87101423  0.51496837  1
  O  O257  1  0.57093841  0.87278499  0.84742498  1
  O  O258  1  0.13633684  0.41487872  0.31908437  1
  O  O259  1  0.13990692  0.41778768  0.65561100  1
  O  O260  1  0.13095901  0.41496104  0.98263407  1
  O  O261  1  0.13676981  0.91748271  0.31772315  1
  O  O262  1  0.13369389  0.92033053  0.65228245  1
  O  O263  1  0.13580165  0.91660307  0.98392646  1
  O  O264  1  0.61643254  0.41384402  0.31396004  1
  O  O265  1  0.63163485  0.41840759  0.65247258  1
  O  O266  1  0.62715471  0.42188163  0.98199085  1
  O  O267  1  0.62925094  0.92653588  0.31914483  1
  O  O268  1  0.62473872  0.93769204  0.64812890  1
  O  O269  1  0.62506842  0.92646557  0.98116443  1
  O  O270  1  0.04166744  0.19285593  0.10549063  1
  O  O271  1  0.03763780  0.18754827  0.42956094  1
  O  O272  1  0.03257412  0.20433254  0.76762994  1
  O  O273  1  0.02625184  0.70831772  0.10251933  1
  O  O274  1  0.03803121  0.70872165  0.43790898  1
  O  O275  1  0.03560923  0.69853766  0.76857510  1
  O  O276  1  0.53121787  0.19314685  0.10091940  1
  O  O277  1  0.53172106  0.19779651  0.43838792  1
  O  O278  1  0.52943480  0.20211616  0.77047355  1
  O  O279  1  0.53711330  0.70314176  0.09850920  1
  O  O280  1  0.52040140  0.70498090  0.44076325  1
  O  O281  1  0.53198261  0.70018528  0.77529870  1
  O  O282  1  0.30415855  0.45931711  0.06405687  1
  O  O283  1  0.29889830  0.46726935  0.39700380  1
  O  O284  1  0.30521991  0.47102508  0.73417425  1
  O  O285  1  0.30234772  0.96570944  0.06287243  1
  O  O286  1  0.29966019  0.96505043  0.39635995  1
  O  O287  1  0.29995080  0.97059868  0.73037083  1
  O  O288  1  0.79559758  0.47721235  0.05366870  1
  O  O289  1  0.79086587  0.46559587  0.40712049  1
  O  O290  1  0.80760484  0.46665957  0.72902678  1
  O  O291  1  0.79320153  0.95677100  0.06195066  1
  O  O292  1  0.79563772  0.96427388  0.39342879  1
  O  O293  1  0.80056717  0.96810963  0.72338976  1
  O  O294  1  0.46092996  0.29181754  0.22813482  1
  O  O295  1  0.47129250  0.30048937  0.56469378  1
  O  O296  1  0.46553179  0.29720100  0.89505061  1
  O  O297  1  0.46157564  0.81282249  0.23621148  1
  O  O298  1  0.45276451  0.80324050  0.55813957  1
  O  O299  1  0.46192484  0.79800136  0.89368298  1
  O  O300  1  0.97685328  0.29217146  0.22726497  1
  O  O301  1  0.96856492  0.30459560  0.56672044  1
  O  O302  1  0.96777626  0.29843366  0.88938454  1
  O  O303  1  0.97411571  0.80634160  0.23053129  1
  O  O304  1  0.97284858  0.80417149  0.56493435  1
  O  O305  1  0.97395320  0.79390633  0.89270821  1
  O  O306  1  0.20336158  0.03518229  0.26951405  1
  O  O307  1  0.19854693  0.03437699  0.60167773  1
  O  O308  1  0.20156703  0.03161835  0.93470957  1
  O  O309  1  0.19771700  0.53138397  0.27147187  1
  O  O310  1  0.20175252  0.52998645  0.60210554  1
  O  O311  1  0.19896753  0.52827286  0.93150740  1
  O  O312  1  0.70031136  0.03342383  0.27089499  1
  O  O313  1  0.70924580  0.04160787  0.60883985  1
  O  O314  1  0.69104872  0.04500501  0.93979349  1
  O  O315  1  0.68144467  0.55239301  0.26404967  1
  O  O316  1  0.70732355  0.52361647  0.61439860  1
  O  O317  1  0.69890423  0.52931628  0.93308920  1
  O  O318  1  0.09032736  0.08569841  0.02914549  1
  O  O319  1  0.08747205  0.08075454  0.35368125  1
  O  O320  1  0.08650370  0.09313628  0.70411501  1
  O  O321  1  0.07330179  0.58978312  0.04161229  1
  O  O322  1  0.08341687  0.59335937  0.36845109  1
  O  O323  1  0.08935115  0.58963443  0.69717736  1
  O  O324  1  0.58600357  0.08256806  0.03588090  1
  O  O325  1  0.58399470  0.08400505  0.37260703  1
  O  O326  1  0.59274108  0.09500323  0.70992760  1
  O  O327  1  0.58941770  0.59222100  0.02738261  1
  O  O328  1  0.57918907  0.59407905  0.38221308  1
  O  O329  1  0.54887612  0.56674651  0.70367153  1
  O  O330  1  0.41522160  0.41334401  0.13974408  1
  O  O331  1  0.40651647  0.40627419  0.45984105  1
  O  O332  1  0.41528504  0.41760002  0.80275615  1
  O  O333  1  0.41414663  0.91132047  0.12833189  1
  O  O334  1  0.40367428  0.90021354  0.45955667  1
  O  O335  1  0.41143546  0.91405059  0.79506994  1
  O  O336  1  0.91312218  0.42562736  0.11141115  1
  O  O337  1  0.91344522  0.42579663  0.47316573  1
  O  O338  1  0.91644093  0.41692994  0.80412822  1
  O  O339  1  0.90951209  0.91231262  0.13106823  1
  O  O340  1  0.91109658  0.91730374  0.45892624  1
  O  O341  1  0.92204529  0.92566637  0.79017922  1
  O  O342  1  0.40963944  0.40521488  0.29606436  1
  O  O343  1  0.41329673  0.41071184  0.62823826  1
  O  O344  1  0.40535209  0.40436956  0.95765979  1
  O  O345  1  0.41572419  0.91937777  0.31434857  1
  O  O346  1  0.41002468  0.91447755  0.63606529  1
  O  O347  1  0.41519907  0.91303894  0.96319744  1
  O  O348  1  0.90207540  0.39185546  0.27467944  1
  O  O349  1  0.90260386  0.40698624  0.62951197  1
  O  O350  1  0.91746889  0.41425451  0.95519199  1
  O  O351  1  0.91922441  0.91805609  0.29690053  1
  O  O352  1  0.91507088  0.91301084  0.62915595  1
  O  O353  1  0.90919894  0.90019396  0.94959269  1
  O  O354  1  0.09607164  0.09611370  0.20533851  1
  O  O355  1  0.09194179  0.09526720  0.53619259  1
  O  O356  1  0.09214818  0.09081175  0.87017299  1
  O  O357  1  0.08872130  0.59237097  0.20896109  1
  O  O358  1  0.09102383  0.58784714  0.54091545  1
  O  O359  1  0.09272849  0.59002181  0.87298612  1
  O  O360  1  0.58337009  0.07855591  0.20268642  1
  O  O361  1  0.59239307  0.08839222  0.54190473  1
  O  O362  1  0.58464962  0.08879447  0.85899066  1
  O  O363  1  0.58369225  0.59842458  0.17569247  1
  O  O364  1  0.58208483  0.56021446  0.55036407  1
  O  O365  1  0.58581416  0.58331128  0.86956357  1
  O  O366  1  0.14437795  0.22072465  0.05702006  1
  O  O367  1  0.14582912  0.21663347  0.38859694  1
  O  O368  1  0.14101308  0.22600994  0.72369665  1
  O  O369  1  0.13475572  0.71978718  0.05747067  1
  O  O370  1  0.13934869  0.72531576  0.38543910  1
  O  O371  1  0.14289850  0.72480340  0.72573177  1
  O  O372  1  0.64322158  0.21673913  0.06141837  1
  O  O373  1  0.63999053  0.21619990  0.39305376  1
  O  O374  1  0.64058969  0.22959784  0.73174495  1
  O  O375  1  0.63887426  0.72567251  0.04777855  1
  O  O376  1  0.61737449  0.72440466  0.38454437  1
  O  O377  1  0.63346466  0.67474129  0.71559007  1
  O  O378  1  0.28197880  0.35486776  0.11187308  1
  O  O379  1  0.27170300  0.36108999  0.44236283  1
  O  O380  1  0.28083087  0.36188082  0.77662382  1
  O  O381  1  0.27978685  0.85821217  0.10773752  1
  O  O382  1  0.26786561  0.85913060  0.43948064  1
  O  O383  1  0.27772596  0.86239489  0.77459502  1
  O  O384  1  0.78528409  0.37622437  0.10885613  1
  O  O385  1  0.78881366  0.36265467  0.46283595  1
  O  O386  1  0.78182615  0.36001632  0.77342374  1
  O  O387  1  0.77897774  0.85733823  0.11751379  1
  O  O388  1  0.78068793  0.85728091  0.44131753  1
  O  O389  1  0.79656525  0.87562991  0.79005523  1
  O  O390  1  0.36038244  0.27167718  0.28039514  1
  O  O391  1  0.36384615  0.27571375  0.60819133  1
  O  O392  1  0.35716039  0.26979574  0.93713483  1
  O  O393  1  0.35213279  0.78433649  0.27699117  1
  O  O394  1  0.35236502  0.78099304  0.61045207  1
  O  O395  1  0.35866746  0.78140994  0.94483936  1
  O  O396  1  0.87033888  0.25994317  0.26926080  1
  O  O397  1  0.86192725  0.26974917  0.60676151  1
  O  O398  1  0.86811961  0.28316705  0.94487799  1
  O  O399  1  0.86354705  0.78456427  0.27141221  1
  O  O400  1  0.86270236  0.77912883  0.60700788  1
  O  O401  1  0.86765839  0.76742186  0.93786644  1
  O  O402  1  0.23105372  0.14043800  0.22432848  1
  O  O403  1  0.22829672  0.14093054  0.55911367  1
  O  O404  1  0.22738752  0.13857399  0.89124133  1
  O  O405  1  0.22228173  0.63407973  0.22219576  1
  O  O406  1  0.22361604  0.64040332  0.56058087  1
  O  O407  1  0.22674754  0.63844005  0.89132716  1
  O  O408  1  0.71374795  0.13696561  0.21858932  1
  O  O409  1  0.72263869  0.14030745  0.55179456  1
  O  O410  1  0.72012555  0.15004158  0.89452993  1
  O  O411  1  0.72101074  0.64924106  0.21507452  1
  O  O412  1  0.70380288  0.62680888  0.55795648  1
  O  O413  1  0.71798505  0.64333267  0.89573001  1
  O  O414  1  0.48551041  0.32723560  0.02728142  1
  O  O415  1  0.49220550  0.32985176  0.36332550  1
  O  O416  1  0.49187820  0.33550427  0.69841029  1
  O  O417  1  0.49169769  0.83321482  0.02945867  1
  O  O418  1  0.48310760  0.82635973  0.36790360  1
  O  O419  1  0.48708713  0.82840964  0.69177371  1
  O  O420  1  1.00266482  0.34147142  0.02439002  1
  O  O421  1  0.99173055  0.33479099  0.36009802  1
  O  O422  1  0.98795213  0.33431829  0.69873030  1
  O  O423  1  0.99393502  0.83263932  0.02651349  1
  O  O424  1  0.99325294  0.83752951  0.36347630  1
  O  O425  1  0.99245927  0.83439520  0.69712691  1
  O  O426  1  0.17100746  0.01141267  0.13638878  1
  O  O427  1  0.16788280  0.01258109  0.46879371  1
  O  O428  1  0.16754581  0.01009477  0.80133113  1
  O  O429  1  0.15679195  0.50376119  0.13731475  1
  O  O430  1  0.16859667  0.51142684  0.46954373  1
  O  O431  1  0.16715165  0.51145279  0.79950077  1
  O  O432  1  0.66334327  0.00355241  0.13536431  1
  O  O433  1  0.66612034  0.00650147  0.47295984  1
  O  O434  1  0.67666578  0.01680036  0.80794348  1
  O  O435  1  0.67547709  0.51551545  0.13313731  1
  O  O436  1  0.66011453  0.48959015  0.47856793  1
  O  O437  1  0.66893740  0.51511175  0.80159684  1
  O  O438  1  0.01532829  0.16903972  0.29724529  1
  O  O439  1  0.01140778  0.17287060  0.63415324  1
  O  O440  1  0.01125744  0.17102847  0.97273948  1
  O  O441  1  0.00661542  0.67404480  0.30250057  1
  O  O442  1  0.01221611  0.67309530  0.63623023  1
  O  O443  1  0.00570633  0.66788830  0.96743606  1
  O  O444  1  0.50887935  0.16383166  0.30491435  1
  O  O445  1  0.51303907  0.17153082  0.63934436  1
  O  O446  1  0.51356058  0.16390033  0.96879136  1
  O  O447  1  0.48896725  0.65522316  0.30457679  1
  O  O448  1  0.49378481  0.65833200  0.63983973  1
  O  O449  1  0.50625194  0.66949636  0.96447406  1
  O  O450  1  0.32762722  0.48838225  0.19661996  1
  O  O451  1  0.33430281  0.48983062  0.53013876  1
  O  O452  1  0.33252721  0.49222041  0.86717042  1
  O  O453  1  0.33622650  0.98793032  0.19688220  1
  O  O454  1  0.33072565  0.98705105  0.52873325  1
  O  O455  1  0.33326978  0.99205289  0.86332172  1
  O  O456  1  0.84594334  0.50815117  0.18956780  1
  O  O457  1  0.83232905  0.49722815  0.54273401  1
  O  O458  1  0.82813473  0.49164882  0.86091183  1
  O  O459  1  0.83232624  0.99160972  0.19786181  1
  O  O460  1  0.82989606  0.98934120  0.52743011  1
  O  O461  1  0.85145653  1.01282995  0.85951777  1
