# generated using pymatgen
data_Na31Fe20(SO4)36
_symmetry_space_group_name_H-M   'P 1'
_cell_length_a   18.07721038
_cell_length_b   18.07353817
_cell_length_c   19.71935984
_cell_angle_alpha   107.56009012
_cell_angle_beta   107.58471404
_cell_angle_gamma   90.75040545
_symmetry_Int_Tables_number   1
_chemical_formula_structural   Na31Fe20(SO4)36
_chemical_formula_sum   'Na62 Fe40 S72 O288'
_cell_volume   5816.79414406
_cell_formula_units_Z   2
loop_
 _symmetry_equiv_pos_site_id
 _symmetry_equiv_pos_as_xyz
  1  'x, y, z'
loop_
 _atom_site_type_symbol
 _atom_site_label
 _atom_site_symmetry_multiplicity
 _atom_site_fract_x
 _atom_site_fract_y
 _atom_site_fract_z
 _atom_site_occupancy
  Na  Na0  1  0.13042294  0.36396572  0.07834646  1
  Na  Na1  1  0.13374399  0.36701022  0.42190908  1
  Na  Na2  1  0.12501251  0.36199537  0.74524497  1
  Na  Na3  1  0.12983450  0.86401665  0.07985110  1
  Na  Na4  1  0.13624774  0.86879211  0.41689763  1
  Na  Na5  1  0.12596193  0.87662586  0.74827356  1
  Na  Na6  1  0.63166044  0.36934579  0.08476447  1
  Na  Na7  1  0.65787813  0.34873431  0.42246486  1
  Na  Na8  1  0.62962088  0.37363172  0.74393874  1
  Na  Na9  1  0.63117906  0.85819155  0.07389849  1
  Na  Na10  1  0.64249334  0.85707181  0.41861680  1
  Na  Na11  1  0.63231086  0.86494444  0.75041941  1
  Na  Na12  1  0.36163281  0.13438162  0.24780990  1
  Na  Na13  1  0.36536126  0.13508388  0.58550983  1
  Na  Na14  1  0.33791877  0.12835268  0.88673913  1
  Na  Na15  1  0.37345977  0.64048029  0.26062797  1
  Na  Na16  1  0.37618146  0.62927554  0.58324764  1
  Na  Na17  1  0.37195418  0.63495081  0.91486395  1
  Na  Na18  1  0.86632550  0.13804570  0.25947296  1
  Na  Na19  1  0.86258496  0.13756373  0.57960815  1
  Na  Na20  1  0.86124296  0.12196335  0.91177469  1
  Na  Na21  1  0.86861740  0.63774503  0.25579984  1
  Na  Na22  1  0.87414690  0.64243951  0.59618516  1
  Na  Na23  1  0.84304100  0.63249002  0.89662017  1
  Na  Na24  1  0.50957043  -0.01669540  0.41958592  1
  Na  Na25  1  0.94588684  0.00612920  0.07156702  1
  Na  Na26  1  0.50505357  0.49906861  0.43929354  1
  Na  Na27  1  0.49367682  0.01235078  0.07919639  1
  Na  Na28  1  0.99011430  0.51179954  0.41437326  1
  Na  Na29  1  0.48215385  0.01518773  0.74161980  1
  Na  Na30  1  0.99216376  0.04411862  0.43098699  1
  Na  Na31  1  0.98602302  0.50977947  0.09177670  1
  Na  Na32  1  0.50910361  0.54134839  0.75778173  1
  Na  Na33  1  0.50211035  0.50096269  0.92842081  1
  Na  Na34  1  -0.00685825  1.01446754  0.61784802  1
  Na  Na35  1  -0.01443152  0.93913956  0.87704236  1
  Na  Na36  1  -0.00185706  0.47735139  0.60499743  1
  Na  Na37  1  -0.00165386  0.51323805  0.88783896  1
  Na  Na38  1  0.52873840  0.99056803  0.91187247  1
  Na  Na39  1  0.51165585  0.49494891  0.23679109  1
  Na  Na40  1  0.50036611  0.93338111  0.56509096  1
  Na  Na41  1  0.51423937  0.98822404  0.24930336  1
  Na  Na42  1  0.26205408  0.75512488  0.33428348  1
  Na  Na43  1  0.25300859  0.75082620  0.66525320  1
  Na  Na44  1  0.74692560  0.75426450  -0.00841655  1
  Na  Na45  1  0.78959864  0.78353530  0.66899024  1
  Na  Na46  1  0.25350386  0.25935075  -0.01791004  1
  Na  Na47  1  0.75392797  0.25803002  0.65241351  1
  Na  Na48  1  0.75025094  0.25180981  0.00187876  1
  Na  Na49  1  0.24175514  0.24408608  0.33855479  1
  Na  Na50  1  0.22117923  0.22047988  0.68194513  1
  Na  Na51  1  0.25578883  0.75321581  -0.00261077  1
  Na  Na52  1  0.25407644  0.74633731  0.49735947  1
  Na  Na53  1  0.25070908  0.25202916  0.16177205  1
  Na  Na54  1  0.76627841  0.76398292  0.49173511  1
  Na  Na55  1  0.25510958  0.75075745  0.16527420  1
  Na  Na56  1  0.75874110  0.76601151  0.82426914  1
  Na  Na57  1  0.74159060  0.24139206  0.18079818  1
  Na  Na58  1  0.75438891  0.25654783  0.82781858  1
  Na  Na59  1  0.25223536  0.75364298  0.82890268  1
  Na  Na60  1  0.74252319  0.74467539  0.17816749  1
  Na  Na61  1  0.23422823  0.23948206  0.51324537  1
  Fe  Fe62  1  0.96387399  0.31409189  0.12431251  1
  Fe  Fe63  1  0.96324002  0.30308299  0.45725244  1
  Fe  Fe64  1  0.47105706  0.79945722  0.79350503  1
  Fe  Fe65  1  0.96608884  0.81347649  0.45330864  1
  Fe  Fe66  1  0.46678230  0.80370594  0.11843223  1
  Fe  Fe67  1  0.95915857  0.30662471  0.78535087  1
  Fe  Fe68  1  0.46808796  0.30769233  0.45268203  1
  Fe  Fe69  1  0.96447903  0.81252367  0.12295836  1
  Fe  Fe70  1  0.46512168  0.30582633  0.78236694  1
  Fe  Fe71  1  0.46610639  0.30380011  0.11585455  1
  Fe  Fe72  1  0.70102209  0.03168101  0.04537180  1
  Fe  Fe73  1  0.69609130  0.02817964  0.70755814  1
  Fe  Fe74  1  0.18552399  0.03674835  0.04583099  1
  Fe  Fe75  1  0.69774212  0.53571946  0.38503758  1
  Fe  Fe76  1  0.19214342  0.53434974  0.04483671  1
  Fe  Fe77  1  0.18743775  0.03691899  0.37876267  1
  Fe  Fe78  1  0.69669843  0.03737121  0.38694322  1
  Fe  Fe79  1  0.69143437  0.53857231  0.05166153  1
  Fe  Fe80  1  0.19766243  0.53252753  0.71406931  1
  Fe  Fe81  1  0.19206729  0.53253555  0.37758413  1
  Fe  Fe82  1  0.03070150  0.18162905  0.87442305  1
  Fe  Fe83  1  0.03336851  0.69557664  0.87313985  1
  Fe  Fe84  1  0.03805222  0.69405958  0.54831981  1
  Fe  Fe85  1  0.53675979  0.19133655  0.21855672  1
  Fe  Fe86  1  0.53613115  0.19347612  0.54599926  1
  Fe  Fe87  1  0.53561575  0.69724305  0.54705666  1
  Fe  Fe88  1  0.03334235  0.19406428  0.21238249  1
  Fe  Fe89  1  0.53710388  0.69132789  0.21793982  1
  Fe  Fe90  1  0.03761515  0.69580863  0.21470945  1
  Fe  Fe91  1  0.53398058  0.19450291  0.87911033  1
  Fe  Fe92  1  0.30907417  0.46407697  0.61715881  1
  Fe  Fe93  1  0.80300668  0.46889086  0.95193603  1
  Fe  Fe94  1  0.81003916  0.96488638  0.29113711  1
  Fe  Fe95  1  0.30943755  0.46281543  0.28510153  1
  Fe  Fe96  1  0.30662662  0.46106278  0.94969051  1
  Fe  Fe97  1  0.79815012  0.47229184  0.62689344  1
  Fe  Fe98  1  0.30262498  0.96776605  0.95073238  1
  Fe  Fe99  1  0.80672179  0.46475105  0.28744940  1
  Fe  Fe100  1  0.30939650  0.96649134  0.28877670  1
  Fe  Fe101  1  0.30236382  0.96635015  0.62025534  1
  S  S102  1  0.35942817  0.14037278  0.08294875  1
  S  S103  1  0.35816135  0.14417373  0.41615280  1
  S  S104  1  0.36258095  0.13974007  0.74622782  1
  S  S105  1  0.36079831  0.63622419  0.08357858  1
  S  S106  1  0.36126209  0.63492235  0.41554494  1
  S  S107  1  0.36119682  0.63704588  0.75098985  1
  S  S108  1  0.85714665  0.14892628  0.08763980  1
  S  S109  1  0.85708559  0.14280932  0.41706640  1
  S  S110  1  0.85222138  0.14388507  0.74965011  1
  S  S111  1  0.86097609  0.64304758  0.08544401  1
  S  S112  1  0.86433674  0.63925001  0.41607165  1
  S  S113  1  0.86339409  0.64002829  0.75191702  1
  S  S114  1  0.14175489  0.35908009  0.24793510  1
  S  S115  1  0.14140541  0.35989103  0.58468175  1
  S  S116  1  0.13542729  0.36200864  0.91727351  1
  S  S117  1  0.14409475  0.85874069  0.24932479  1
  S  S118  1  0.14465309  0.85445128  0.57859384  1
  S  S119  1  0.14334894  0.85859125  0.91884927  1
  S  S120  1  0.63929636  0.36002297  0.25003943  1
  S  S121  1  0.63704143  0.36087353  0.57856467  1
  S  S122  1  0.63710757  0.36041402  0.91836984  1
  S  S123  1  0.63903588  0.86291677  0.25279189  1
  S  S124  1  0.64468934  0.85664026  0.58369191  1
  S  S125  1  0.63871151  0.86067413  0.92080920  1
  S  S126  1  0.06358366  0.17348301  0.04437543  1
  S  S127  1  0.06699046  0.17470678  0.37539842  1
  S  S128  1  0.05763160  0.17298692  0.71696195  1
  S  S129  1  0.06711835  0.66683477  0.04083433  1
  S  S130  1  0.07045230  0.66674334  0.37368943  1
  S  S131  1  0.07675716  0.66451348  0.70553018  1
  S  S132  1  0.56730203  0.16923452  0.04171068  1
  S  S133  1  0.56167337  0.16229870  0.37097095  1
  S  S134  1  0.57135058  0.16939298  0.70664728  1
  S  S135  1  0.56509735  0.66942529  0.04908392  1
  S  S136  1  0.57085751  0.66357285  0.37650401  1
  S  S137  1  0.56739584  0.67384810  0.70906978  1
  S  S138  1  0.32953810  0.42938120  0.12176850  1
  S  S139  1  0.33047167  0.42969668  0.45407644  1
  S  S140  1  0.33142601  0.42973005  0.78970330  1
  S  S141  1  0.33214875  0.93421860  0.12571653  1
  S  S142  1  0.33025285  0.93929776  0.45460538  1
  S  S143  1  0.33815114  0.92909392  0.79462067  1
  S  S144  1  0.82758159  0.43619207  0.12503448  1
  S  S145  1  0.83508104  0.43574564  0.46320405  1
  S  S146  1  0.82446948  0.43176208  0.79026278  1
  S  S147  1  0.82802575  0.93347497  0.12733930  1
  S  S148  1  0.83482596  0.93806785  0.45857942  1
  S  S149  1  0.82464454  0.93354707  0.78540340  1
  S  S150  1  0.43393020  0.32843372  0.28780622  1
  S  S151  1  0.43164820  0.32958951  0.62068308  1
  S  S152  1  0.43127754  0.32752930  0.95548258  1
  S  S153  1  0.43708794  0.83269423  0.29055146  1
  S  S154  1  0.42946353  0.82729297  0.62832651  1
  S  S155  1  0.42862310  0.83245814  0.95994871  1
  S  S156  1  0.93370501  0.33155864  0.29326427  1
  S  S157  1  0.92199799  0.33539669  0.62597033  1
  S  S158  1  0.92839323  0.33481952  0.96121238  1
  S  S159  1  0.93553690  0.82955192  0.28948363  1
  S  S160  1  0.94325517  0.82857593  0.61689929  1
  S  S161  1  0.93630367  0.82619066  0.95897013  1
  S  S162  1  0.16869811  0.06847382  0.20835930  1
  S  S163  1  0.16918494  0.06345654  0.54234727  1
  S  S164  1  0.16606521  0.06428262  0.88069832  1
  S  S165  1  0.17368398  0.56900101  0.20879087  1
  S  S166  1  0.17342415  0.56695999  0.54015132  1
  S  S167  1  0.17554458  0.56933790  0.87747312  1
  S  S168  1  0.66823396  0.06488586  0.20684422  1
  S  S169  1  0.66522258  0.06661487  0.54286409  1
  S  S170  1  0.66629471  0.07204800  0.87217479  1
  S  S171  1  0.67235693  0.56735497  0.21214133  1
  S  S172  1  0.67634559  0.57160891  0.54334373  1
  S  S173  1  0.66295874  0.56080242  0.88301989  1
  O  O174  1  0.36669849  0.22061071  0.07706587  1
  O  O175  1  0.36973010  0.22129681  0.40459572  1
  O  O176  1  0.37576609  0.21631038  0.73369736  1
  O  O177  1  0.36902974  0.71558231  0.07511771  1
  O  O178  1  0.36796610  0.71146847  0.40616802  1
  O  O179  1  0.36901009  0.71854559  0.74673633  1
  O  O180  1  0.86584886  0.23179201  0.08796441  1
  O  O181  1  0.86775323  0.21882994  0.40406921  1
  O  O182  1  0.85487163  0.22794744  0.75044818  1
  O  O183  1  0.86961566  0.72244285  0.07903691  1
  O  O184  1  0.87496480  0.71618763  0.40601317  1
  O  O185  1  0.87830213  0.71230600  0.73699932  1
  O  O186  1  0.28285317  0.13048065  0.09538094  1
  O  O187  1  0.27795175  0.13817929  0.42235629  1
  O  O188  1  0.28578434  0.13286049  0.75420323  1
  O  O189  1  0.28058133  0.62806391  0.09058861  1
  O  O190  1  0.28288685  0.62263226  0.42567643  1
  O  O191  1  0.28165717  0.62855107  0.75948095  1
  O  O192  1  0.77672749  0.13668065  0.09249757  1
  O  O193  1  0.77612541  0.13236082  0.41993321  1
  O  O194  1  0.77102677  0.12891846  0.75569616  1
  O  O195  1  0.78405963  0.63401034  0.09738445  1
  O  O196  1  0.78554499  0.63121431  0.42414638  1
  O  O197  1  0.79127426  0.63657167  0.77073143  1
  O  O198  1  0.13397378  0.27839649  0.25260436  1
  O  O199  1  0.13884373  0.28389742  0.59563670  1
  O  O200  1  0.12302187  0.28455137  0.92674472  1
  O  O201  1  0.13754403  0.77858563  0.25672095  1
  O  O202  1  0.13904981  0.77124083  0.57990853  1
  O  O203  1  0.13484713  0.77942913  0.92762625  1
  O  O204  1  0.62887301  0.27844913  0.25069266  1
  O  O205  1  0.63127192  0.27782538  0.57984601  1
  O  O206  1  0.62794954  0.28261482  0.92986784  1
  O  O207  1  0.62862342  0.78582265  0.26274118  1
  O  O208  1  0.62915140  0.78209386  0.59799756  1
  O  O209  1  0.62330941  0.78978166  0.93770346  1
  O  O210  1  0.22061098  0.36952207  0.23894338  1
  O  O211  1  0.21767788  0.37481970  0.57141372  1
  O  O212  1  0.21539569  0.36931024  0.91095927  1
  O  O213  1  0.22446329  0.86921781  0.24315224  1
  O  O214  1  0.22430093  0.86460642  0.56978166  1
  O  O215  1  0.22520294  0.86700923  0.91517753  1
  O  O216  1  0.71702889  0.37005376  0.23944476  1
  O  O217  1  0.71856374  0.37558452  0.57495615  1
  O  O218  1  0.71733949  0.36834792  0.91330963  1
  O  O219  1  0.71720744  0.87073047  0.24341263  1
  O  O220  1  0.72486808  0.86241152  0.58261841  1
  O  O221  1  0.71518181  0.86717701  0.91138811  1
  O  O222  1  0.42172070  0.13041243  0.14868988  1
  O  O223  1  0.41573823  0.13811764  0.48549106  1
  O  O224  1  0.42349081  0.13255645  0.81508669  1
  O  O225  1  0.41802391  0.62996519  0.15304622  1
  O  O226  1  0.42182115  0.62541414  0.48212419  1
  O  O227  1  0.42026667  0.62402983  0.81402133  1
  O  O228  1  0.91468549  0.13809665  0.15585627  1
  O  O229  1  0.91479238  0.13705038  0.48493279  1
  O  O230  1  0.90902055  0.13841581  0.82038373  1
  O  O231  1  0.92284745  0.63232090  0.15131536  1
  O  O232  1  0.92367872  0.62858960  0.48308810  1
  O  O233  1  0.92836595  0.62623643  0.81495791  1
  O  O234  1  0.36594140  0.08292303  0.01365606  1
  O  O235  1  0.36563680  0.08265995  0.34912404  1
  O  O236  1  0.37416370  0.07754284  0.68087418  1
  O  O237  1  0.36826388  0.57724189  0.01575178  1
  O  O238  1  0.36779819  0.57358088  0.34686413  1
  O  O239  1  0.36454002  0.58134219  0.67852815  1
  O  O240  1  0.86741984  0.09475547  0.02027404  1
  O  O241  1  0.86754970  0.08045977  0.35010240  1
  O  O242  1  0.86265292  0.09213508  0.68235615  1
  O  O243  1  0.86742078  0.58451762  0.01629177  1
  O  O244  1  0.87201448  0.57735284  0.34853570  1
  O  O245  1  0.86275583  0.57388746  0.68153710  1
  O  O246  1  0.08258591  0.36881258  0.18121688  1
  O  O247  1  0.07852981  0.36597666  0.51753113  1
  O  O248  1  0.07701387  0.37431110  0.85122145  1
  O  O249  1  0.08667492  0.86410129  0.18004410  1
  O  O250  1  0.08665230  0.86209124  0.50949140  1
  O  O251  1  0.08719661  0.86713089  0.85186230  1
  O  O252  1  0.57807892  0.37338358  0.18498845  1
  O  O253  1  0.58196780  0.36528446  0.50580361  1
  O  O254  1  0.57979794  0.36391821  0.84751546  1
  O  O255  1  0.57927854  0.87167380  0.18450499  1
  O  O256  1  0.58800721  0.86376714  0.51497704  1
  O  O257  1  0.57699150  0.86809858  0.85123271  1
  O  O258  1  0.13585348  0.41513915  0.31799832  1
  O  O259  1  0.13355840  0.42200902  0.65213093  1
  O  O260  1  0.13008042  0.42258448  0.98673307  1
  O  O261  1  0.13479993  0.91612741  0.31663454  1
  O  O262  1  0.13745014  0.90874776  0.64659302  1
  O  O263  1  0.13553542  0.91669510  0.98807527  1
  O  O264  1  0.63504270  0.41566417  0.32093898  1
  O  O265  1  0.62324725  0.41423838  0.64326984  1
  O  O266  1  0.62533695  0.42098185  0.98345015  1
  O  O267  1  0.63025572  0.92476065  0.31947864  1
  O  O268  1  0.63079663  0.92072836  0.64991550  1
  O  O269  1  0.62846300  0.92920475  0.98419446  1
  O  O270  1  0.02489360  0.20483845  0.10421927  1
  O  O271  1  0.02993208  0.20324593  0.43394522  1
  O  O272  1  0.02102676  0.21127525  0.78047882  1
  O  O273  1  0.03131609  0.69729529  0.10206118  1
  O  O274  1  0.03404552  0.69684038  0.43359024  1
  O  O275  1  0.05010728  0.69236368  0.77079465  1
  O  O276  1  0.52902277  0.19884416  0.10156270  1
  O  O277  1  0.52671219  0.19527764  0.43245207  1
  O  O278  1  0.53649472  0.19904326  0.76887845  1
  O  O279  1  0.53358790  0.70245328  0.11501617  1
  O  O280  1  0.53512814  0.68405626  0.43629661  1
  O  O281  1  0.52507380  0.70389776  0.76617689  1
  O  O282  1  0.30068271  0.46589697  0.06114863  1
  O  O283  1  0.29748762  0.46392640  0.39177826  1
  O  O284  1  0.30345864  0.46765309  0.72928088  1
  O  O285  1  0.30233826  0.97012766  0.06528682  1
  O  O286  1  0.29269134  0.97730131  0.39512365  1
  O  O287  1  0.32164813  0.96310574  0.73350607  1
  O  O288  1  0.79699815  0.47361863  0.06485995  1
  O  O289  1  0.80338236  0.47303558  0.40219836  1
  O  O290  1  0.79768148  0.46491332  0.72824890  1
  O  O291  1  0.80276790  0.97422467  0.07036817  1
  O  O292  1  0.79560887  0.96840533  0.39249773  1
  O  O293  1  0.78785322  0.97519521  0.72873907  1
  O  O294  1  0.46910228  0.29612460  0.22609954  1
  O  O295  1  0.47057964  0.30141429  0.56099678  1
  O  O296  1  0.46662319  0.29696496  0.89354078  1
  O  O297  1  0.46516628  0.79747857  0.22375502  1
  O  O298  1  0.46687401  0.80011073  0.56954794  1
  O  O299  1  0.46035327  0.80599322  0.89775179  1
  O  O300  1  0.97566960  0.30652746  0.23565645  1
  O  O301  1  0.95970530  0.32229232  0.56706487  1
  O  O302  1  0.96290786  0.30683809  0.90013376  1
  O  O303  1  0.97573583  0.80217569  0.22989365  1
  O  O304  1  0.97759809  0.79119221  0.55169017  1
  O  O305  1  0.97393270  0.79328935  0.90075390  1
  O  O306  1  0.19710253  0.03165681  0.26926708  1
  O  O307  1  0.20574539  0.02491887  0.59875139  1
  O  O308  1  0.20141558  0.03148691  0.94663571  1
  O  O309  1  0.20073109  0.53177517  0.26932301  1
  O  O310  1  0.20256298  0.53201546  0.60184811  1
  O  O311  1  0.20478714  0.53159675  0.93814629  1
  O  O312  1  0.69732145  0.03027330  0.26851683  1
  O  O313  1  0.68582954  0.03156825  0.60402511  1
  O  O314  1  0.68911620  0.03841654  0.93345360  1
  O  O315  1  0.70360672  0.53066730  0.27332466  1
  O  O316  1  0.70565678  0.53321781  0.60206671  1
  O  O317  1  0.70564767  0.53016827  0.94908623  1
  O  O318  1  0.08166153  0.09314264  0.04303375  1
  O  O319  1  0.08626966  0.09360853  0.37191482  1
  O  O320  1  0.08349457  0.10009317  0.72793051  1
  O  O321  1  0.08368124  0.58431153  0.03669799  1
  O  O322  1  0.08669969  0.58466598  0.36961181  1
  O  O323  1  0.09380572  0.58083992  0.69413530  1
  O  O324  1  0.58551660  0.08780314  0.03856883  1
  O  O325  1  0.58003903  0.08073357  0.36960174  1
  O  O326  1  0.59157710  0.08822694  0.70362815  1
  O  O327  1  0.58642294  0.58914327  0.04835477  1
  O  O328  1  0.58715704  0.57905395  0.36043531  1
  O  O329  1  0.58277271  0.59457652  0.70664340  1
  O  O330  1  0.41042026  0.40900212  0.12702082  1
  O  O331  1  0.41127891  0.41203649  0.45504908  1
  O  O332  1  0.41400987  0.41313758  0.79689394  1
  O  O333  1  0.41490287  0.91798995  0.13193729  1
  O  O334  1  0.41051147  0.92845855  0.45354676  1
  O  O335  1  0.42087784  0.90796649  0.81097301  1
  O  O336  1  0.90872363  0.41861187  0.12733381  1
  O  O337  1  0.91962838  0.42683024  0.47083435  1
  O  O338  1  0.90588566  0.41017064  0.79916202  1
  O  O339  1  0.90959008  0.91529446  0.13125687  1
  O  O340  1  0.91269068  0.91584215  0.45081092  1
  O  O341  1  0.88975957  0.89665300  0.76428733  1
  O  O342  1  0.42040917  0.41155209  0.29399641  1
  O  O343  1  0.41395238  0.41123070  0.62813663  1
  O  O344  1  0.41337155  0.40866717  0.95876321  1
  O  O345  1  0.41704067  0.91411034  0.29091995  1
  O  O346  1  0.40992722  0.90908084  0.63012532  1
  O  O347  1  0.41002197  0.91537890  0.97101637  1
  O  O348  1  0.91346171  0.41284464  0.29880248  1
  O  O349  1  0.89621029  0.41675687  0.63767312  1
  O  O350  1  0.90909014  0.41730139  0.96848225  1
  O  O351  1  0.91715765  0.91045425  0.29628472  1
  O  O352  1  0.92582821  0.90579662  0.61294955  1
  O  O353  1  0.92622371  0.90801001  0.96376969  1
  O  O354  1  0.08783569  0.08778550  0.20080785  1
  O  O355  1  0.09016150  0.07845819  0.54344344  1
  O  O356  1  0.08552804  0.08086092  0.88176034  1
  O  O357  1  0.09257148  0.58912109  0.20131071  1
  O  O358  1  0.09210054  0.58644891  0.53351901  1
  O  O359  1  0.09653022  0.59147976  0.87644620  1
  O  O360  1  0.58423331  0.08085947  0.20114603  1
  O  O361  1  0.58180552  0.08526081  0.52925037  1
  O  O362  1  0.58041265  0.08460082  0.85742002  1
  O  O363  1  0.59121632  0.58446402  0.20956955  1
  O  O364  1  0.59660249  0.59280976  0.54096335  1
  O  O365  1  0.58313195  0.57035426  0.88643821  1
  O  O366  1  0.13549835  0.22570385  0.06234536  1
  O  O367  1  0.13925173  0.22680294  0.39149759  1
  O  O368  1  0.12232369  0.23094005  0.72860496  1
  O  O369  1  0.14000330  0.71765219  0.05801283  1
  O  O370  1  0.14302546  0.71691214  0.38851310  1
  O  O371  1  0.14722603  0.71500846  0.71515635  1
  O  O372  1  0.63861026  0.22231603  0.06012929  1
  O  O373  1  0.62958195  0.21219567  0.37901730  1
  O  O374  1  0.64002843  0.22313935  0.71983377  1
  O  O375  1  0.63599761  0.72149096  0.06375523  1
  O  O376  1  0.64164464  0.71565877  0.39341917  1
  O  O377  1  0.63758061  0.72842080  0.72878021  1
  O  O378  1  0.27556033  0.35898758  0.10518370  1
  O  O379  1  0.27967947  0.35875836  0.44093420  1
  O  O380  1  0.27888083  0.35990879  0.77351493  1
  O  O381  1  0.28194051  0.86137072  0.10990928  1
  O  O382  1  0.28210906  0.86476782  0.43707173  1
  O  O383  1  0.28236043  0.85980723  0.77688453  1
  O  O384  1  0.77530953  0.36492885  0.10829014  1
  O  O385  1  0.78929498  0.36177049  0.44525404  1
  O  O386  1  0.76985780  0.36319023  0.77662117  1
  O  O387  1  0.77538508  0.86150905  0.10827025  1
  O  O388  1  0.78398256  0.86930414  0.44948976  1
  O  O389  1  0.76420247  0.87138242  0.77722631  1
  O  O390  1  0.36023969  0.27965985  0.27126361  1
  O  O391  1  0.36083647  0.27625550  0.60174340  1
  O  O392  1  0.36156223  0.27574015  0.94221049  1
  O  O393  1  0.36575288  0.78258535  0.27936581  1
  O  O394  1  0.35839360  0.77459953  0.61225251  1
  O  O395  1  0.35840714  0.77948205  0.94616997  1
  O  O396  1  0.86365371  0.27686602  0.27189710  1
  O  O397  1  0.85573771  0.27720221  0.60731022  1
  O  O398  1  0.85802556  0.28253999  0.94783409  1
  O  O399  1  0.86537995  0.77499399  0.26902811  1
  O  O400  1  0.87114008  0.77499825  0.59800353  1
  O  O401  1  0.86174623  0.77784920  0.94225855  1
  O  O402  1  0.22295981  0.13922697  0.22593925  1
  O  O403  1  0.22068564  0.13641765  0.55825992  1
  O  O404  1  0.21557026  0.13749545  0.89796428  1
  O  O405  1  0.22824450  0.63916587  0.22614800  1
  O  O406  1  0.22727118  0.63617103  0.55444885  1
  O  O407  1  0.23043512  0.63865439  0.89366319  1
  O  O408  1  0.71735508  0.13651415  0.22083953  1
  O  O409  1  0.71892490  0.13577765  0.55949773  1
  O  O410  1  0.71488267  0.14605680  0.88983644  1
  O  O411  1  0.72334823  0.63771527  0.22592528  1
  O  O412  1  0.73056879  0.63951559  0.55561716  1
  O  O413  1  0.70911994  0.63509048  0.89688439  1
  O  O414  1  0.49250281  0.33078299  0.02780518  1
  O  O415  1  0.49242462  0.32759187  0.35911801  1
  O  O416  1  0.49036998  0.32938456  0.69286668  1
  O  O417  1  0.48996947  0.83362455  0.03179215  1
  O  O418  1  0.50036951  0.84024777  0.35966259  1
  O  O419  1  0.48608253  0.83468027  0.70398954  1
  O  O420  1  0.98917998  0.33911840  0.03422999  1
  O  O421  1  0.99019566  0.33447462  0.36735831  1
  O  O422  1  0.98340795  0.33756384  0.69740340  1
  O  O423  1  0.99182394  0.82555937  0.03393074  1
  O  O424  1  0.99451069  0.82781930  0.36062013  1
  O  O425  1  1.00172524  0.82749559  0.68575547  1
  O  O426  1  0.16938740  0.00902961  0.13680149  1
  O  O427  1  0.16445604  0.00884129  0.46503909  1
  O  O428  1  0.16695736  0.00451298  0.81313164  1
  O  O429  1  0.17202334  0.50898188  0.13695205  1
  O  O430  1  0.16954520  0.50548595  0.46794478  1
  O  O431  1  0.17112469  0.50943787  0.80511317  1
  O  O432  1  0.66410321  0.00535069  0.13379468  1
  O  O433  1  0.66545393  0.00505063  0.47176973  1
  O  O434  1  0.67124059  0.01410459  0.80100824  1
  O  O435  1  0.66893033  0.50668984  0.13971317  1
  O  O436  1  0.66692244  0.50969959  0.46844827  1
  O  O437  1  0.66152616  0.50155239  0.81317173  1
  O  O438  1  0.01024602  0.17104557  0.30080294  1
  O  O439  1  -0.00493375  0.15966716  0.64542294  1
  O  O440  1  0.00620719  0.17205283  0.97167780  1
  O  O441  1  0.01234864  0.66510304  0.30056898  1
  O  O442  1  0.01338303  0.66257007  0.63512567  1
  O  O443  1  0.00957361  0.66281703  0.96739725  1
  O  O444  1  0.49887860  0.15374417  0.29727872  1
  O  O445  1  0.50985111  0.16487447  0.63468637  1
  O  O446  1  0.50955158  0.16506519  0.96811337  1
  O  O447  1  0.51044469  0.66661701  0.30496429  1
  O  O448  1  0.51042934  0.67369099  0.63458535  1
  O  O449  1  0.50237573  0.66392510  0.98058954  1
  O  O450  1  0.33363608  0.48892754  0.19473288  1
  O  O451  1  0.33430793  0.48966246  0.52634928  1
  O  O452  1  0.33450414  0.49019644  0.86277217  1
  O  O453  1  0.33303625  0.99283697  0.19828612  1
  O  O454  1  0.33232326  0.99343237  0.52921001  1
  O  O455  1  0.33560934  0.99080291  0.86457477  1
  O  O456  1  0.83111178  0.49391180  0.19828985  1
  O  O457  1  0.83266485  0.49297095  0.53619785  1
  O  O458  1  0.82977702  0.49375097  0.86275411  1
  O  O459  1  0.83019097  0.98956128  0.20160615  1
  O  O460  1  0.84728169  1.00245227  0.52782300  1
  O  O461  1  0.85143234  0.99126648  0.86103962  1
