# generated using pymatgen
data_Na31Fe20(SO4)36
_symmetry_space_group_name_H-M   'P 1'
_cell_length_a   18.06389528
_cell_length_b   18.06701738
_cell_length_c   19.68895172
_cell_angle_alpha   107.57307011
_cell_angle_beta   107.57894624
_cell_angle_gamma   90.72615026
_symmetry_Int_Tables_number   1
_chemical_formula_structural   Na31Fe20(SO4)36
_chemical_formula_sum   'Na62 Fe40 S72 O288'
_cell_volume   5801.50518684
_cell_formula_units_Z   2
loop_
 _symmetry_equiv_pos_site_id
 _symmetry_equiv_pos_as_xyz
  1  'x, y, z'
loop_
 _atom_site_type_symbol
 _atom_site_label
 _atom_site_symmetry_multiplicity
 _atom_site_fract_x
 _atom_site_fract_y
 _atom_site_fract_z
 _atom_site_occupancy
  Na  Na0  1  0.13285617  0.35870937  0.07713045  1
  Na  Na1  1  0.13521601  0.35938025  0.41340840  1
  Na  Na2  1  0.13305690  0.36683568  0.74927702  1
  Na  Na3  1  0.12020645  0.86779249  0.08026589  1
  Na  Na4  1  0.14289055  0.86941969  0.42429686  1
  Na  Na5  1  0.13479738  0.85990157  0.74074435  1
  Na  Na6  1  0.63290788  0.36888422  0.08786472  1
  Na  Na7  1  0.65861362  0.36749020  0.44445344  1
  Na  Na8  1  0.63481453  0.36301352  0.74998043  1
  Na  Na9  1  0.64505027  0.88301633  0.09230302  1
  Na  Na10  1  0.62421016  0.83901223  0.38456947  1
  Na  Na11  1  0.63109844  0.86862541  0.74599654  1
  Na  Na12  1  0.36763813  0.12686871  0.24899145  1
  Na  Na13  1  0.35728951  0.11700152  0.57297848  1
  Na  Na14  1  0.36757613  0.13638683  0.92425880  1
  Na  Na15  1  0.36907623  0.63544862  0.24773910  1
  Na  Na16  1  0.35951743  0.63500021  0.58096630  1
  Na  Na17  1  0.37077565  0.63139611  0.91379247  1
  Na  Na18  1  0.86744614  0.12956296  0.24475990  1
  Na  Na19  1  0.86223279  0.13378380  0.57629417  1
  Na  Na20  1  0.86433482  0.14045404  0.91667134  1
  Na  Na21  1  0.86813714  0.65783922  0.27422010  1
  Na  Na22  1  0.86132228  0.63362779  0.58022701  1
  Na  Na23  1  0.87019996  0.64374251  0.93156869  1
  Na  Na24  1  0.99389396  0.04424028  0.75578988  1
  Na  Na25  1  0.99110879  0.51993178  0.41664218  1
  Na  Na26  1  0.48959647  -0.00099142  0.42809220  1
  Na  Na27  1  0.98945743  0.52686325  0.08436104  1
  Na  Na28  1  0.94669549  0.50629841  0.73499591  1
  Na  Na29  1  0.44782880  0.00669100  0.71897764  1
  Na  Na30  1  0.49680250  0.54192149  0.08238615  1
  Na  Na31  1  0.49047141  0.50327490  0.76436117  1
  Na  Na32  1  0.49473325  0.50496913  0.41278296  1
  Na  Na33  1  0.51607520  0.49168222  0.58656005  1
  Na  Na34  1  0.53777067  0.99186539  0.93869708  1
  Na  Na35  1  0.00968690  0.48739850  0.24474329  1
  Na  Na36  1  0.02349005  0.97000252  0.25333047  1
  Na  Na37  1  0.01199910  0.47608639  0.91062649  1
  Na  Na38  1  0.00023881  0.49274233  0.58197598  1
  Na  Na39  1  0.01566500  0.95858552  0.47928523  1
  Na  Na40  1  -0.00816563  1.00406033  0.93362387  1
  Na  Na41  1  0.50720059  0.50446268  0.24338693  1
  Na  Na42  1  0.75750647  0.75824156  0.00566041  1
  Na  Na43  1  0.25350196  0.24533573  0.32509386  1
  Na  Na44  1  0.23500611  0.23596455  0.01284615  1
  Na  Na45  1  0.25707605  0.75409708  -0.00736503  1
  Na  Na46  1  0.25271993  0.75117312  0.33227975  1
  Na  Na47  1  0.73848104  0.23641721  0.00704864  1
  Na  Na48  1  0.74143751  0.24233302  0.34786947  1
  Na  Na49  1  0.75882235  0.75741015  0.66026572  1
  Na  Na50  1  0.76168363  0.26768485  0.64438249  1
  Na  Na51  1  0.24152029  0.24023861  0.66995748  1
  Na  Na52  1  0.74120927  0.23739082  0.17423147  1
  Na  Na53  1  0.23856231  0.23275559  0.49996324  1
  Na  Na54  1  0.74098638  0.74680130  0.18729751  1
  Na  Na55  1  0.76777765  0.76263701  0.47429262  1
  Na  Na56  1  0.25215688  0.75612781  0.50870102  1
  Na  Na57  1  0.74958594  0.24970519  0.82897463  1
  Na  Na58  1  0.26065592  0.76104992  0.81882762  1
  Na  Na59  1  0.24803922  0.75332347  0.16204519  1
  Na  Na60  1  0.75346830  0.75849017  0.83008089  1
  Na  Na61  1  0.23563703  0.23814097  0.84563546  1
  Fe  Fe62  1  0.46451398  0.80875013  0.78455643  1
  Fe  Fe63  1  0.96452234  0.30556144  0.44734174  1
  Fe  Fe64  1  0.46830476  0.80440221  0.45532407  1
  Fe  Fe65  1  0.96959633  0.29629022  0.78289646  1
  Fe  Fe66  1  0.46230216  0.30846910  0.11987854  1
  Fe  Fe67  1  0.96416961  0.81520751  0.79154407  1
  Fe  Fe68  1  0.46459269  0.30658291  0.44930342  1
  Fe  Fe69  1  0.47243513  0.80402182  0.12547198  1
  Fe  Fe70  1  0.96971941  0.30334409  0.11501010  1
  Fe  Fe71  1  0.46158743  0.31140815  0.78934974  1
  Fe  Fe72  1  0.18987960  0.53859872  0.71272802  1
  Fe  Fe73  1  0.19969722  0.02963945  0.71148593  1
  Fe  Fe74  1  0.70216351  0.53180188  0.71643541  1
  Fe  Fe75  1  0.68088010  0.03680547  0.70626171  1
  Fe  Fe76  1  0.19185044  0.53397906  0.37998976  1
  Fe  Fe77  1  0.69215016  0.53366900  0.04949398  1
  Fe  Fe78  1  0.69711354  0.53200708  0.38484513  1
  Fe  Fe79  1  0.19311448  0.53484354  0.04620847  1
  Fe  Fe80  1  0.19485053  0.03391886  0.04907399  1
  Fe  Fe81  1  0.68691439  0.03907657  0.37904372  1
  Fe  Fe82  1  0.53193989  0.19444331  0.54969550  1
  Fe  Fe83  1  0.53413050  0.19096637  0.21504714  1
  Fe  Fe84  1  0.02506176  0.71136148  0.21518731  1
  Fe  Fe85  1  0.03550272  0.18707509  0.53940311  1
  Fe  Fe86  1  0.03852065  0.18112158  0.20798793  1
  Fe  Fe87  1  0.53328784  0.19355212  0.88196834  1
  Fe  Fe88  1  0.03081725  0.69551401  0.88270968  1
  Fe  Fe89  1  0.03285922  0.70665499  0.54920322  1
  Fe  Fe90  1  0.53918983  0.69219363  0.88036737  1
  Fe  Fe91  1  0.53990437  0.68775494  0.54862838  1
  Fe  Fe92  1  0.30411720  0.46738513  0.61593324  1
  Fe  Fe93  1  0.30670574  0.46755594  0.94921356  1
  Fe  Fe94  1  0.80362942  0.96701784  0.61483276  1
  Fe  Fe95  1  0.80794032  0.46304329  0.95485198  1
  Fe  Fe96  1  0.80782938  0.97026256  0.28770945  1
  Fe  Fe97  1  0.30240397  0.96346362  0.29486346  1
  Fe  Fe98  1  0.30511708  0.46139280  0.28017708  1
  Fe  Fe99  1  0.31492581  0.96372717  0.95942311  1
  Fe  Fe100  1  0.80812506  0.46391645  0.28424377  1
  Fe  Fe101  1  0.80252282  0.97178783  0.96291681  1
  S  S102  1  0.35931977  0.14161677  0.08556267  1
  S  S103  1  0.36197708  0.13761192  0.41467606  1
  S  S104  1  0.35642150  0.14894864  0.75737048  1
  S  S105  1  0.35833690  0.63964617  0.08157844  1
  S  S106  1  0.36186703  0.63366986  0.41548188  1
  S  S107  1  0.36131713  0.63887405  0.74985019  1
  S  S108  1  0.85975033  0.14591847  0.08009674  1
  S  S109  1  0.85804563  0.14130413  0.41582137  1
  S  S110  1  0.85181989  0.14099516  0.74468471  1
  S  S111  1  0.85779485  0.63948460  0.08695636  1
  S  S112  1  0.86308134  0.63730896  0.42004498  1
  S  S113  1  0.85771467  0.64659228  0.75241214  1
  S  S114  1  0.14094809  0.35775784  0.24907143  1
  S  S115  1  0.14006786  0.36194872  0.57953324  1
  S  S116  1  0.14346696  0.36043108  0.91430519  1
  S  S117  1  0.14447576  0.85591381  0.25246146  1
  S  S118  1  0.14610432  0.86093632  0.58760724  1
  S  S119  1  0.14224752  0.85739376  0.91754072  1
  S  S120  1  0.63941314  0.36101937  0.25208005  1
  S  S121  1  0.63371742  0.36219540  0.58946060  1
  S  S122  1  0.63938906  0.35950692  0.91559742  1
  S  S123  1  0.64199010  0.86538929  0.24810086  1
  S  S124  1  0.64316650  0.85619109  0.58057584  1
  S  S125  1  0.64132448  0.85590441  0.91394997  1
  S  S126  1  0.06447159  0.16585545  0.03966956  1
  S  S127  1  0.06498197  0.16874826  0.37153687  1
  S  S128  1  0.07115116  0.16838613  0.70751522  1
  S  S129  1  0.06517898  0.66112901  0.04048113  1
  S  S130  1  0.07163776  0.66837389  0.37544744  1
  S  S131  1  0.06444240  0.66986006  0.71040698  1
  S  S132  1  0.56548578  0.17668108  0.04670303  1
  S  S133  1  0.56823505  0.17770577  0.37997330  1
  S  S134  1  0.55860693  0.17233693  0.71075643  1
  S  S135  1  0.57078180  0.67213229  0.04158084  1
  S  S136  1  0.56494649  0.65828074  0.37566375  1
  S  S137  1  0.56782606  0.66395246  0.70925598  1
  S  S138  1  0.32876537  0.43386295  0.12151087  1
  S  S139  1  0.33050049  0.43175198  0.45478427  1
  S  S140  1  0.32580049  0.43435687  0.78555166  1
  S  S141  1  0.32315284  0.92289839  0.12434721  1
  S  S142  1  0.33850898  0.92928549  0.46037662  1
  S  S143  1  0.33718668  0.93842135  0.79873402  1
  S  S144  1  0.83300374  0.42928653  0.12407400  1
  S  S145  1  0.83881006  0.43497220  0.45787888  1
  S  S146  1  0.83308849  0.43093273  0.79245753  1
  S  S147  1  0.83322443  0.93700347  0.12807631  1
  S  S148  1  0.81770469  0.93445578  0.45189523  1
  S  S149  1  0.82572704  0.93778930  0.79273998  1
  S  S150  1  0.43502225  0.33495413  0.29383084  1
  S  S151  1  0.42668104  0.33357485  0.62506574  1
  S  S152  1  0.43290100  0.33636567  0.96069595  1
  S  S153  1  0.42743335  0.82664180  0.28967660  1
  S  S154  1  0.43753836  0.82043374  0.62024102  1
  S  S155  1  0.43445801  0.82390645  0.95619466  1
  S  S156  1  0.93587282  0.33468731  0.28888665  1
  S  S157  1  0.94171177  0.32726543  0.62154430  1
  S  S158  1  0.93442253  0.33464068  0.95624480  1
  S  S159  1  0.93439714  0.84022963  0.29768810  1
  S  S160  1  0.92868616  0.83244101  0.62778160  1
  S  S161  1  0.93086974  0.83314925  0.95757184  1
  S  S162  1  0.17567240  0.06055808  0.21077630  1
  S  S163  1  0.17090863  0.06801966  0.54370921  1
  S  S164  1  0.17394866  0.05916653  0.87792532  1
  S  S165  1  0.16764697  0.56409070  0.20753701  1
  S  S166  1  0.16576612  0.56871966  0.53999765  1
  S  S167  1  0.16438437  0.56818751  0.87213406  1
  S  S168  1  0.67383149  0.07399898  0.21486448  1
  S  S169  1  0.66527449  0.06893350  0.54199269  1
  S  S170  1  0.66546208  0.06695907  0.87131461  1
  S  S171  1  0.67125987  0.56221382  0.21043594  1
  S  S172  1  0.66975836  0.56439104  0.54610764  1
  S  S173  1  0.67628482  0.56713400  0.87871237  1
  O  O174  1  0.36769424  0.21915779  0.07321001  1
  O  O175  1  0.37572861  0.21367884  0.40111353  1
  O  O176  1  0.36181967  0.23218850  0.75791674  1
  O  O177  1  0.36810175  0.71935481  0.07562255  1
  O  O178  1  0.37194634  0.71234459  0.40782383  1
  O  O179  1  0.37159092  0.71973641  0.74814400  1
  O  O180  1  0.87540738  0.22157970  0.06551295  1
  O  O181  1  0.86962801  0.21886044  0.40512511  1
  O  O182  1  0.86329253  0.22058208  0.73731469  1
  O  O183  1  0.86490292  0.71205927  0.07081103  1
  O  O184  1  0.86529475  0.71322157  0.40944275  1
  O  O185  1  0.86544974  0.72871647  0.75074257  1
  O  O186  1  0.27867922  0.13181311  0.08887975  1
  O  O187  1  0.28731471  0.13380120  0.42743078  1
  O  O188  1  0.27761351  0.13421981  0.76535378  1
  O  O189  1  0.27754253  0.63073300  0.08751546  1
  O  O190  1  0.28318087  0.62582642  0.42499453  1
  O  O191  1  0.28382443  0.62947130  0.76106254  1
  O  O192  1  0.78133502  0.14478052  0.08668003  1
  O  O193  1  0.77949129  0.13499343  0.42407977  1
  O  O194  1  0.76950857  0.13230628  0.74607061  1
  O  O195  1  0.77906781  0.62665509  0.09511416  1
  O  O196  1  0.78717750  0.62186582  0.43366017  1
  O  O197  1  0.77833180  0.63511969  0.75955139  1
  O  O198  1  0.13035692  0.28005331  0.25823819  1
  O  O199  1  0.13506323  0.28222785  0.58625806  1
  O  O200  1  0.14015681  0.28313308  0.92246374  1
  O  O201  1  0.13492785  0.77229376  0.25221581  1
  O  O202  1  0.12879857  0.78547103  0.60167786  1
  O  O203  1  0.12883215  0.77979218  0.92794520  1
  O  O204  1  0.63069030  0.28048257  0.25616242  1
  O  O205  1  0.61866803  0.28584158  0.60196381  1
  O  O206  1  0.63124039  0.27965736  0.92252218  1
  O  O207  1  0.63935389  0.78856362  0.25725111  1
  O  O208  1  0.63532925  0.77904685  0.59331005  1
  O  O209  1  0.63725317  0.77295495  0.91502131  1
  O  O210  1  0.21996821  0.36704755  0.24231938  1
  O  O211  1  0.21671375  0.37307553  0.56669347  1
  O  O212  1  0.22028518  0.37567925  0.90242240  1
  O  O213  1  0.22972625  0.86434643  0.25239709  1
  O  O214  1  0.22526928  0.86591775  0.58405534  1
  O  O215  1  0.22453265  0.86285498  0.91569731  1
  O  O216  1  0.71536183  0.36910457  0.23736732  1
  O  O217  1  0.70960340  0.36513771  0.57863605  1
  O  O218  1  0.71744329  0.36856611  0.90478934  1
  O  O219  1  0.72176432  0.88166898  0.23911986  1
  O  O220  1  0.72437643  0.86608373  0.57723663  1
  O  O221  1  0.72064566  0.87074859  0.90830557  1
  O  O222  1  0.41605300  0.13985413  0.15730817  1
  O  O223  1  0.42597552  0.12828181  0.47992032  1
  O  O224  1  0.41590463  0.13854969  0.82463145  1
  O  O225  1  0.41619698  0.62628293  0.14554668  1
  O  O226  1  0.42115255  0.62216357  0.48178583  1
  O  O227  1  0.42265147  0.62369704  0.81343704  1
  O  O228  1  0.91789181  0.14081557  0.15008628  1
  O  O229  1  0.91712288  0.13285450  0.48310212  1
  O  O230  1  0.90715452  0.13222577  0.81262702  1
  O  O231  1  0.91730311  0.63690562  0.15827871  1
  O  O232  1  0.92668449  0.63110063  0.48736349  1
  O  O233  1  0.91573165  0.63559705  0.82077698  1
  O  O234  1  0.37225064  0.08050657  0.02163025  1
  O  O235  1  0.36611821  0.07432165  0.34565995  1
  O  O236  1  0.36567472  0.09705908  0.68837984  1
  O  O237  1  0.36372889  0.58236000  0.00989091  1
  O  O238  1  0.36786043  0.57425788  0.34621746  1
  O  O239  1  0.36530291  0.58267352  0.67820465  1
  O  O240  1  0.86681969  0.08291442  0.01376851  1
  O  O241  1  0.86562086  0.08109431  0.34725429  1
  O  O242  1  0.86281754  0.08241062  0.67681621  1
  O  O243  1  0.87007017  0.57373658  0.02362833  1
  O  O244  1  0.87253591  0.57560997  0.35281206  1
  O  O245  1  0.86737756  0.59170160  0.68470548  1
  O  O246  1  0.08242282  0.36755609  0.18083667  1
  O  O247  1  0.07768444  0.37220742  0.51451410  1
  O  O248  1  0.08120253  0.36854084  0.84746580  1
  O  O249  1  0.09279093  0.86600602  0.18383120  1
  O  O250  1  0.08789404  0.86739135  0.52001524  1
  O  O251  1  0.08813690  0.86205158  0.84570968  1
  O  O252  1  0.57625728  0.37471458  0.18902373  1
  O  O253  1  0.57168220  0.37342771  0.52340946  1
  O  O254  1  0.57928864  0.36803346  0.84833018  1
  O  O255  1  0.58346000  0.86949897  0.17769011  1
  O  O256  1  0.58733183  0.85829465  0.50879832  1
  O  O257  1  0.58244066  0.86333523  0.84456225  1
  O  O258  1  0.13129754  0.41831013  0.31640355  1
  O  O259  1  0.13472927  0.41996770  0.64959600  1
  O  O260  1  0.13502566  0.42053805  0.98262284  1
  O  O261  1  0.13517187  0.90964650  0.32041464  1
  O  O262  1  0.13887265  0.92380611  0.65656379  1
  O  O263  1  0.13052302  0.91929691  0.98172256  1
  O  O264  1  0.63758678  0.41730581  0.32420542  1
  O  O265  1  0.62749889  0.42411029  0.65778579  1
  O  O266  1  0.63437261  0.41711630  0.98535980  1
  O  O267  1  0.63068573  0.92559794  0.31379876  1
  O  O268  1  0.63167051  0.91696806  0.64585688  1
  O  O269  1  0.62822147  0.90904260  0.98043682  1
  O  O270  1  0.03696470  0.20004690  0.10801248  1
  O  O271  1  0.02932524  0.20575121  0.43367359  1
  O  O272  1  0.02976934  0.19555861  0.76402891  1
  O  O273  1  0.03078004  0.67903711  0.10147839  1
  O  O274  1  0.03980671  0.68890001  0.43815785  1
  O  O275  1  0.02641497  0.69578439  0.77059979  1
  O  O276  1  0.52779585  0.20904702  0.10753482  1
  O  O277  1  0.53614346  0.21133503  0.44443143  1
  O  O278  1  0.52081835  0.20335678  0.77158010  1
  O  O279  1  0.53039695  0.69957440  0.09818160  1
  O  O280  1  0.53374760  0.69352022  0.44064031  1
  O  O281  1  0.52945745  0.69586352  0.76828884  1
  O  O282  1  0.30070063  0.47083597  0.06060042  1
  O  O283  1  0.29881937  0.46571932  0.39250585  1
  O  O284  1  0.29682169  0.47166446  0.72469938  1
  O  O285  1  0.29847382  0.96853927  0.06950042  1
  O  O286  1  0.31283648  0.96555848  0.39804990  1
  O  O287  1  0.30793980  0.97812321  0.74113982  1
  O  O288  1  0.79799584  0.46256514  0.06164050  1
  O  O289  1  0.80143228  0.46196570  0.39054517  1
  O  O290  1  0.80658240  0.47134627  0.73557153  1
  O  O291  1  0.80261064  0.97326456  0.06813783  1
  O  O292  1  0.79102591  0.97491183  0.39112191  1
  O  O293  1  0.79814667  0.97378752  0.73140259  1
  O  O294  1  0.46817465  0.30061858  0.23134816  1
  O  O295  1  0.45694864  0.29917254  0.56073742  1
  O  O296  1  0.47175747  0.30710889  0.90139951  1
  O  O297  1  0.46374410  0.80962220  0.23030639  1
  O  O298  1  0.47691478  0.78613442  0.56049870  1
  O  O299  1  0.47378848  0.79601552  0.89631421  1
  O  O300  1  0.96910792  0.30522761  0.22621029  1
  O  O301  1  0.97689227  0.29087704  0.55975167  1
  O  O302  1  0.96783930  0.31453416  0.89443405  1
  O  O303  1  0.96823892  0.81285583  0.23492556  1
  O  O304  1  0.96554992  0.80471677  0.56908508  1
  O  O305  1  0.96823367  0.80297391  0.89438583  1
  O  O306  1  0.20565025  0.01956294  0.26775368  1
  O  O307  1  0.19419076  0.04949595  0.61564919  1
  O  O308  1  0.21066968  0.02209835  0.93827454  1
  O  O309  1  0.20008017  0.52695483  0.26826495  1
  O  O310  1  0.19909430  0.53466709  0.60302766  1
  O  O311  1  0.19659841  0.53309329  0.93387390  1
  O  O312  1  0.70855343  0.03760311  0.27746700  1
  O  O313  1  0.69474969  0.02752611  0.59983558  1
  O  O314  1  0.69501293  0.02942060  0.92950069  1
  O  O315  1  0.70668430  0.52858277  0.27383444  1
  O  O316  1  0.69184125  0.53090708  0.60765996  1
  O  O317  1  0.70211290  0.53005676  0.93977064  1
  O  O318  1  0.09274285  0.08867697  0.04234774  1
  O  O319  1  0.07590658  0.08837514  0.36678428  1
  O  O320  1  0.09650763  0.09076190  0.71196468  1
  O  O321  1  0.08146680  0.57600277  0.02454115  1
  O  O322  1  0.08436306  0.58187413  0.35858348  1
  O  O323  1  0.07978938  0.58566458  0.70037955  1
  O  O324  1  0.58328717  0.09804879  0.04338722  1
  O  O325  1  0.58509017  0.09726570  0.37817274  1
  O  O326  1  0.57451874  0.09084442  0.70629491  1
  O  O327  1  0.59090383  0.59126628  0.04057845  1
  O  O328  1  0.58540131  0.57679917  0.37676397  1
  O  O329  1  0.58817431  0.58392029  0.71000178  1
  O  O330  1  0.41134351  0.41697745  0.12921188  1
  O  O331  1  0.41459384  0.41959264  0.46303536  1
  O  O332  1  0.40739353  0.41665801  0.78995915  1
  O  O333  1  0.40005772  0.89810051  0.12379097  1
  O  O334  1  0.41959252  0.90672688  0.46234817  1
  O  O335  1  0.41827206  0.91831184  0.79838745  1
  O  O336  1  0.91524388  0.41402212  0.12608203  1
  O  O337  1  0.92029560  0.41583775  0.45613171  1
  O  O338  1  0.91369003  0.40924939  0.79327518  1
  O  O339  1  0.91597591  0.92919352  0.14334064  1
  O  O340  1  0.89381772  0.90938871  0.45493204  1
  O  O341  1  0.90919250  0.92194689  0.80233342  1
  O  O342  1  0.41678357  0.41646158  0.29307911  1
  O  O343  1  0.41473707  0.41776638  0.63026683  1
  O  O344  1  0.41452061  0.41787309  0.96537860  1
  O  O345  1  0.40433041  0.90873607  0.30546209  1
  O  O346  1  0.42168145  0.89886194  0.62088636  1
  O  O347  1  0.41585408  0.90477420  0.96010385  1
  O  O348  1  0.92151606  0.41888757  0.29642096  1
  O  O349  1  0.93554193  0.40978700  0.62602882  1
  O  O350  1  0.92029559  0.41995598  0.97377108  1
  O  O351  1  0.90665503  0.92038333  0.29739965  1
  O  O352  1  0.90839717  0.91395406  0.63541862  1
  O  O353  1  0.90760118  0.91202777  0.95581024  1
  O  O354  1  0.09659626  0.08180986  0.21251705  1
  O  O355  1  0.08744745  0.08794064  0.52866153  1
  O  O356  1  0.09143550  0.06443676  0.87190848  1
  O  O357  1  0.08642385  0.58049858  0.20492970  1
  O  O358  1  0.08473737  0.58622521  0.53844484  1
  O  O359  1  0.08156668  0.58251659  0.86674258  1
  O  O360  1  0.59945111  0.10207663  0.22536771  1
  O  O361  1  0.58529466  0.08943722  0.54201482  1
  O  O362  1  0.58386438  0.08611901  0.86927294  1
  O  O363  1  0.58860668  0.56990904  0.20367588  1
  O  O364  1  0.58397676  0.57808708  0.53165182  1
  O  O365  1  0.59393345  0.58466528  0.86831061  1
  O  O366  1  0.12802075  0.22158332  0.04623527  1
  O  O367  1  0.13837126  0.21969304  0.38879204  1
  O  O368  1  0.14040723  0.22506947  0.72523952  1
  O  O369  1  0.13677356  0.71258794  0.05765741  1
  O  O370  1  0.14604556  0.71626600  0.39249083  1
  O  O371  1  0.13758908  0.71991386  0.73081504  1
  O  O372  1  0.63592154  0.23181320  0.06396277  1
  O  O373  1  0.63800880  0.22906221  0.39200758  1
  O  O374  1  0.63082547  0.22392895  0.72942676  1
  O  O375  1  0.64154717  0.72463287  0.05716245  1
  O  O376  1  0.63546991  0.70736672  0.38618666  1
  O  O377  1  0.63699204  0.71719365  0.72230618  1
  O  O378  1  0.27672458  0.36345021  0.10530643  1
  O  O379  1  0.28312961  0.35791300  0.43932345  1
  O  O380  1  0.27332823  0.36391513  0.76890292  1
  O  O381  1  0.26332782  0.85527121  0.10233833  1
  O  O382  1  0.28477340  0.85759609  0.44081210  1
  O  O383  1  0.28498836  0.86833652  0.78419268  1
  O  O384  1  0.78417461  0.35755750  0.11217736  1
  O  O385  1  0.79096852  0.36450895  0.44978357  1
  O  O386  1  0.77852398  0.36070980  0.77474208  1
  O  O387  1  0.78288663  0.86344345  0.10993147  1
  O  O388  1  0.75783462  0.86967212  0.43528742  1
  O  O389  1  0.77435623  0.86434612  0.77307193  1
  O  O390  1  0.36561789  0.28619794  0.28563491  1
  O  O391  1  0.35388120  0.28740025  0.61437996  1
  O  O392  1  0.36197834  0.28356638  0.94390811  1
  O  O393  1  0.35792022  0.76986710  0.26956962  1
  O  O394  1  0.36778310  0.76660328  0.60365392  1
  O  O395  1  0.36214140  0.76990744  0.93432979  1
  O  O396  1  0.86309163  0.28672727  0.27529226  1
  O  O397  1  0.86707945  0.28158050  0.60547382  1
  O  O398  1  0.86087387  0.28484432  0.93770044  1
  O  O399  1  0.86558784  0.78605777  0.28354280  1
  O  O400  1  0.85774492  0.77806986  0.61061243  1
  O  O401  1  0.85986781  0.77813569  0.93784175  1
  O  O402  1  0.22964778  0.13057056  0.22766025  1
  O  O403  1  0.22300113  0.13914469  0.55617480  1
  O  O404  1  0.22040389  0.13600221  0.89918045  1
  O  O405  1  0.22013596  0.63456938  0.22275419  1
  O  O406  1  0.21713040  0.63715491  0.55007686  1
  O  O407  1  0.21428323  0.64020863  0.88660020  1
  O  O408  1  0.73031694  0.14304561  0.23067408  1
  O  O409  1  0.71940541  0.13876272  0.56022261  1
  O  O410  1  0.71672505  0.13938574  0.88640349  1
  O  O411  1  0.71858767  0.63492318  0.22436674  1
  O  O412  1  0.71854307  0.63751085  0.56276664  1
  O  O413  1  0.72934078  0.63828206  0.89747499  1
  O  O414  1  0.49153373  0.33937313  0.03409599  1
  O  O415  1  0.49772698  0.34547846  0.36749113  1
  O  O416  1  0.48802247  0.33644752  0.69713882  1
  O  O417  1  0.49024181  0.82408211  0.02866493  1
  O  O418  1  0.48754567  0.82312085  0.35985525  1
  O  O419  1  0.49572182  0.82167429  0.69417144  1
  O  O420  1  0.99390391  0.32763929  0.02529161  1
  O  O421  1  0.99599781  0.33540725  0.36034667  1
  O  O422  1  0.99787576  0.32469520  0.69477745  1
  O  O423  1  0.98915671  0.83570271  0.02740765  1
  O  O424  1  0.99591163  0.85190537  0.36945256  1
  O  O425  1  0.98681787  0.83531834  0.70250102  1
  O  O426  1  0.16809582  0.00448699  0.13497311  1
  O  O427  1  0.17315616  0.00171520  0.48127812  1
  O  O428  1  0.18060210  0.00715295  0.80491776  1
  O  O429  1  0.16402944  0.50505317  0.13383453  1
  O  O430  1  0.15962336  0.50559274  0.46724936  1
  O  O431  1  0.16404152  0.50867785  0.80003179  1
  O  O432  1  0.66089526  0.01572597  0.14263970  1
  O  O433  1  0.65728359  0.01140758  0.46715521  1
  O  O434  1  0.65993284  0.01031045  0.79565288  1
  O  O435  1  0.67381042  0.50227972  0.13859489  1
  O  O436  1  0.67438175  0.50484960  0.47616665  1
  O  O437  1  0.67830650  0.50738794  0.80789495  1
  O  O438  1  0.00733450  0.17367739  0.29977237  1
  O  O439  1  0.01512102  0.15939102  0.63165504  1
  O  O440  1  -0.00266662  0.15078616  0.97130612  1
  O  O441  1  0.01218455  0.67536819  0.30659010  1
  O  O442  1  0.00746453  0.67170175  0.63841800  1
  O  O443  1  0.00579772  0.66538794  0.96998700  1
  O  O444  1  0.50546440  0.17561434  0.30944893  1
  O  O445  1  0.50053025  0.17263450  0.63868442  1
  O  O446  1  0.50691381  0.17740808  0.97390449  1
  O  O447  1  0.50190663  0.64770351  0.30509965  1
  O  O448  1  0.50868373  0.65422259  0.63396427  1
  O  O449  1  0.51336775  0.66405631  0.96529797  1
  O  O450  1  0.33058280  0.49401891  0.19386396  1
  O  O451  1  0.32890331  0.49142890  0.52588657  1
  O  O452  1  0.32810241  0.49383155  0.85787663  1
  O  O453  1  0.32762119  0.97755517  0.20054945  1
  O  O454  1  0.34245572  0.98744103  0.53075377  1
  O  O455  1  0.34624548  0.99568805  0.87485596  1
  O  O456  1  0.83823617  0.49030672  0.19663795  1
  O  O457  1  0.84894215  0.49914024  0.52739241  1
  O  O458  1  0.84126453  0.48765455  0.86870103  1
  O  O459  1  0.82153504  0.99405878  0.19946856  1
  O  O460  1  0.82075887  0.99619375  0.52448543  1
  O  O461  1  0.82421543  0.99491756  0.86478555  1
