# generated using pymatgen
data_Na31Fe20(SO4)36
_symmetry_space_group_name_H-M   'P 1'
_cell_length_a   18.07268810
_cell_length_b   18.07176287
_cell_length_c   19.71176516
_cell_angle_alpha   107.58546160
_cell_angle_beta   107.60055861
_cell_angle_gamma   90.74440909
_symmetry_Int_Tables_number   1
_chemical_formula_structural   Na31Fe20(SO4)36
_chemical_formula_sum   'Na62 Fe40 S72 O288'
_cell_volume   5811.10968971
_cell_formula_units_Z   2
loop_
 _symmetry_equiv_pos_site_id
 _symmetry_equiv_pos_as_xyz
  1  'x, y, z'
loop_
 _atom_site_type_symbol
 _atom_site_label
 _atom_site_symmetry_multiplicity
 _atom_site_fract_x
 _atom_site_fract_y
 _atom_site_fract_z
 _atom_site_occupancy
  Na  Na0  1  0.13673705  0.36185592  0.08181098  1
  Na  Na1  1  0.12412195  0.34603195  0.40267534  1
  Na  Na2  1  0.13724144  0.37072753  0.75659424  1
  Na  Na3  1  0.12973427  0.86538958  0.07935203  1
  Na  Na4  1  0.12493818  0.87208966  0.41353737  1
  Na  Na5  1  0.13469058  0.87227364  0.75179152  1
  Na  Na6  1  0.61640236  0.35663498  0.07612352  1
  Na  Na7  1  0.63914078  0.36630879  0.42444083  1
  Na  Na8  1  0.63909491  0.36692126  0.75303652  1
  Na  Na9  1  0.64463858  0.86947878  0.09271705  1
  Na  Na10  1  0.64827106  0.87125838  0.43406844  1
  Na  Na11  1  0.64929998  0.86757350  0.75285132  1
  Na  Na12  1  0.36425561  0.13711715  0.25037257  1
  Na  Na13  1  0.36710089  0.13195016  0.57936539  1
  Na  Na14  1  0.38024403  0.13889695  0.92473344  1
  Na  Na15  1  0.36650938  0.63061209  0.24719661  1
  Na  Na16  1  0.36958832  0.62775760  0.58282306  1
  Na  Na17  1  0.36520120  0.62953766  0.92034862  1
  Na  Na18  1  0.88805726  0.12735740  0.25146805  1
  Na  Na19  1  0.84694799  0.13614609  0.57082229  1
  Na  Na20  1  0.86841706  0.13639621  0.91808947  1
  Na  Na21  1  0.85387818  0.63080493  0.24038659  1
  Na  Na22  1  0.86666148  0.64202018  0.58848487  1
  Na  Na23  1  0.86480193  0.63227401  0.91728814  1
  Na  Na24  1  0.93297834  0.00181250  0.73051386  1
  Na  Na25  1  1.00151965  0.48860544  0.42200133  1
  Na  Na26  1  0.99048313  0.50533941  0.08575970  1
  Na  Na27  1  0.48817004  0.00488712  0.41746609  1
  Na  Na28  1  0.49918049  0.01775245  0.07850271  1
  Na  Na29  1  0.98565369  0.51212004  0.74511231  1
  Na  Na30  1  0.49149646  0.50401612  0.75440980  1
  Na  Na31  1  0.50086753  0.05836521  0.77672028  1
  Na  Na32  1  0.44573264  0.48906893  0.05403734  1
  Na  Na33  1  0.00275685  0.44574334  0.57105329  1
  Na  Na34  1  0.00519013  0.47573340  0.25108407  1
  Na  Na35  1  -0.01653803  1.01915321  0.57005758  1
  Na  Na36  1  0.51018509  0.46154683  0.24682927  1
  Na  Na37  1  0.01920744  0.48999519  0.91701169  1
  Na  Na38  1  0.51440101  0.99346151  0.24539075  1
  Na  Na39  1  0.57617949  1.00564672  0.94367475  1
  Na  Na40  1  -0.01058135  0.99573821  0.94976389  1
  Na  Na41  1  0.57309264  0.99718619  0.62017999  1
  Na  Na42  1  0.75483174  0.75721714  0.32566878  1
  Na  Na43  1  0.75327238  0.24569432  0.34779428  1
  Na  Na44  1  0.74551049  0.74257906  0.00872680  1
  Na  Na45  1  0.24602166  0.25110188  0.66617775  1
  Na  Na46  1  0.25644693  0.75454948  0.32543262  1
  Na  Na47  1  0.26997149  0.26610354  -0.00416292  1
  Na  Na48  1  0.25265468  0.75019084  0.66937686  1
  Na  Na49  1  0.74831791  0.24484510  0.66699059  1
  Na  Na50  1  0.72210069  0.22206244  0.00157088  1
  Na  Na51  1  0.23446097  0.23808487  0.32795313  1
  Na  Na52  1  0.25787861  0.25547307  0.16182309  1
  Na  Na53  1  0.74825114  0.23397898  0.17377995  1
  Na  Na54  1  0.24396205  0.24253166  0.50147629  1
  Na  Na55  1  0.75467251  0.75322941  0.82700467  1
  Na  Na56  1  0.25389763  0.75674890  0.49554558  1
  Na  Na57  1  0.73204752  0.22795395  0.83764227  1
  Na  Na58  1  0.24296531  0.74100510  0.84825202  1
  Na  Na59  1  0.74661906  0.74476391  0.51143984  1
  Na  Na60  1  0.25750752  0.75718593  0.15101674  1
  Na  Na61  1  0.26620881  0.27221050  0.83530934  1
  Fe  Fe62  1  0.46614933  0.80645273  0.45480128  1
  Fe  Fe63  1  0.96553206  0.31082370  0.78467939  1
  Fe  Fe64  1  0.46436360  0.80389790  0.11495972  1
  Fe  Fe65  1  0.46418232  0.30934843  0.45640029  1
  Fe  Fe66  1  0.96486743  0.80783869  0.78350623  1
  Fe  Fe67  1  0.46968656  0.81160823  0.78920176  1
  Fe  Fe68  1  0.96905059  0.29836134  0.11801724  1
  Fe  Fe69  1  0.96207123  0.80961253  0.12535644  1
  Fe  Fe70  1  0.96374440  0.81249677  0.45460695  1
  Fe  Fe71  1  0.46675448  0.31042739  0.79493045  1
  Fe  Fe72  1  0.18678757  0.03358807  0.37228881  1
  Fe  Fe73  1  0.19526247  0.53344525  0.71754657  1
  Fe  Fe74  1  0.69351853  0.03694933  0.38340892  1
  Fe  Fe75  1  0.19281635  0.03455691  0.04791245  1
  Fe  Fe76  1  0.19097760  0.03777457  0.71146779  1
  Fe  Fe77  1  0.19813218  0.53215307  0.04728144  1
  Fe  Fe78  1  0.69056185  0.53636212  0.38256780  1
  Fe  Fe79  1  0.19359407  0.53503003  0.38239215  1
  Fe  Fe80  1  0.68818569  0.53785884  0.71020914  1
  Fe  Fe81  1  0.68810238  0.53053874  0.04510359  1
  Fe  Fe82  1  0.02761403  0.19735911  0.53874160  1
  Fe  Fe83  1  0.03295275  0.69078145  0.21590990  1
  Fe  Fe84  1  0.53518230  0.68794617  0.54688139  1
  Fe  Fe85  1  0.53696957  0.68855514  0.21046681  1
  Fe  Fe86  1  0.53230338  0.20037742  0.21359974  1
  Fe  Fe87  1  0.53589070  0.69358613  0.88267743  1
  Fe  Fe88  1  0.03366929  0.19124123  0.87585491  1
  Fe  Fe89  1  0.03420700  0.69605449  0.88469597  1
  Fe  Fe90  1  0.03485226  0.69135439  0.54633979  1
  Fe  Fe91  1  0.53727033  0.19479780  0.54728217  1
  Fe  Fe92  1  0.30589069  0.96306783  0.28036666  1
  Fe  Fe93  1  0.80820006  0.96363615  0.28487604  1
  Fe  Fe94  1  0.80468191  0.46425495  0.61388653  1
  Fe  Fe95  1  0.30685992  0.46444078  0.61892990  1
  Fe  Fe96  1  0.80370079  0.46586775  0.28385294  1
  Fe  Fe97  1  0.31242980  0.46438639  0.29164315  1
  Fe  Fe98  1  0.80556221  0.97141411  0.96313506  1
  Fe  Fe99  1  0.30682895  0.96591299  0.95092730  1
  Fe  Fe100  1  0.80647970  0.46212726  0.94918138  1
  Fe  Fe101  1  0.30877538  0.96919385  0.62013340  1
  S  S102  1  0.35980717  0.13801817  0.08568652  1
  S  S103  1  0.36112805  0.13793547  0.41556110  1
  S  S104  1  0.35367792  0.14495654  0.74740432  1
  S  S105  1  0.35995425  0.64190408  0.08415444  1
  S  S106  1  0.35869194  0.64188914  0.41900831  1
  S  S107  1  0.36064160  0.64174896  0.75257299  1
  S  S108  1  0.86159431  0.14425104  0.07904949  1
  S  S109  1  0.86073509  0.13686210  0.41529714  1
  S  S110  1  0.85910958  0.14773718  0.74685044  1
  S  S111  1  0.85988323  0.63388110  0.08309063  1
  S  S112  1  0.85778393  0.64263533  0.41501587  1
  S  S113  1  0.86183264  0.63955167  0.74913275  1
  S  S114  1  0.14014208  0.36358419  0.24976015  1
  S  S115  1  0.14208704  0.36018882  0.58377194  1
  S  S116  1  0.13753238  0.36038497  0.91756396  1
  S  S117  1  0.14089909  0.85356887  0.24875950  1
  S  S118  1  0.14374888  0.85936056  0.58326591  1
  S  S119  1  0.13902636  0.85996221  0.91615988  1
  S  S120  1  0.64368679  0.35922883  0.25464869  1
  S  S121  1  0.64076565  0.36124435  0.58528735  1
  S  S122  1  0.64211816  0.35847771  0.91231520  1
  S  S123  1  0.63590564  0.86116055  0.24950382  1
  S  S124  1  0.64004834  0.84983152  0.57867348  1
  S  S125  1  0.64634765  0.85343473  0.91850389  1
  S  S126  1  0.07391905  0.17251058  0.04015416  1
  S  S127  1  0.07382919  0.16792128  0.37552286  1
  S  S128  1  0.06989971  0.17602520  0.70715835  1
  S  S129  1  0.06529964  0.66590244  0.04404472  1
  S  S130  1  0.06541102  0.66595623  0.37592512  1
  S  S131  1  0.06872942  0.66855707  0.70941949  1
  S  S132  1  0.56536360  0.17212227  0.05180666  1
  S  S133  1  0.56635184  0.17234533  0.37524329  1
  S  S134  1  0.56011498  0.17871134  0.71048191  1
  S  S135  1  0.56967585  0.67088802  0.04251618  1
  S  S136  1  0.56532089  0.66991252  0.37374196  1
  S  S137  1  0.56491187  0.66983509  0.71181063  1
  S  S138  1  0.32950838  0.43733654  0.12938983  1
  S  S139  1  0.32399556  0.42847193  0.45607825  1
  S  S140  1  0.32993982  0.43556580  0.78906916  1
  S  S141  1  0.33350424  0.93259504  0.12444534  1
  S  S142  1  0.32733450  0.93136684  0.45405817  1
  S  S143  1  0.33128996  0.93569013  0.79035343  1
  S  S144  1  0.82945389  0.42896866  0.11959442  1
  S  S145  1  0.83061228  0.44262726  0.45675264  1
  S  S146  1  0.83209878  0.43696040  0.78924306  1
  S  S147  1  0.83054897  0.93021303  0.12278021  1
  S  S148  1  0.83004466  0.93394810  0.45483825  1
  S  S149  1  0.83899036  0.92879530  0.80268478  1
  S  S150  1  0.43404623  0.33003632  0.29514493  1
  S  S151  1  0.43079642  0.32921379  0.62607706  1
  S  S152  1  0.42688338  0.33292872  0.94924833  1
  S  S153  1  0.43309894  0.82990521  0.29081191  1
  S  S154  1  0.42985570  0.82793729  0.62459569  1
  S  S155  1  0.43529423  0.83074279  0.95667357  1
  S  S156  1  0.93266900  0.34156703  0.29006397  1
  S  S157  1  0.93269417  0.33212449  0.62672029  1
  S  S158  1  0.93239033  0.33388354  0.95599415  1
  S  S159  1  0.92808823  0.82298402  0.28911101  1
  S  S160  1  0.94096896  0.83298277  0.62079362  1
  S  S161  1  0.92822539  0.82379544  0.95944592  1
  S  S162  1  0.17166146  0.06195877  0.20783123  1
  S  S163  1  0.16918020  0.06773254  0.54163722  1
  S  S164  1  0.17340268  0.07124338  0.87563188  1
  S  S165  1  0.16872965  0.56741031  0.20943863  1
  S  S166  1  0.16941396  0.56645870  0.54362860  1
  S  S167  1  0.16299937  0.56926443  0.87534155  1
  S  S168  1  0.66243706  0.06743203  0.21065359  1
  S  S169  1  0.66218309  0.06737126  0.53930038  1
  S  S170  1  0.67738767  0.05890132  0.87159189  1
  S  S171  1  0.66540924  0.56275968  0.20813046  1
  S  S172  1  0.67308567  0.56972634  0.54456206  1
  S  S173  1  0.67103192  0.56823558  0.87503803  1
  O  O174  1  0.36213089  0.21428534  0.07574035  1
  O  O175  1  0.36823117  0.21682982  0.40686156  1
  O  O176  1  0.36544257  0.22647866  0.74302333  1
  O  O177  1  0.36835384  0.72349752  0.08093095  1
  O  O178  1  0.36547900  0.72215965  0.41198797  1
  O  O179  1  0.36932328  0.72188253  0.74738384  1
  O  O180  1  0.87761510  0.21416166  0.05554836  1
  O  O181  1  0.87314546  0.21307022  0.40738031  1
  O  O182  1  0.87363846  0.23001952  0.74502289  1
  O  O183  1  0.86942815  0.71265504  0.07567781  1
  O  O184  1  0.86989367  0.72263906  0.41019677  1
  O  O185  1  0.87335280  0.71700493  0.74005304  1
  O  O186  1  0.28309155  0.12235796  0.09722954  1
  O  O187  1  0.28302257  0.12694689  0.42431335  1
  O  O188  1  0.27095939  0.13765521  0.74752645  1
  O  O189  1  0.28178346  0.63244293  0.09454792  1
  O  O190  1  0.27985208  0.63189891  0.42823737  1
  O  O191  1  0.28151308  0.63139356  0.76070273  1
  O  O192  1  0.77965090  0.14193025  0.07719972  1
  O  O193  1  0.78290868  0.12763832  0.42700218  1
  O  O194  1  0.78178734  0.14084129  0.75422421  1
  O  O195  1  0.78174974  0.62263076  0.09068189  1
  O  O196  1  0.77835245  0.63553156  0.42285843  1
  O  O197  1  0.78258534  0.63069207  0.75606151  1
  O  O198  1  0.13149873  0.28910430  0.26191592  1
  O  O199  1  0.13007890  0.28297663  0.59415279  1
  O  O200  1  0.12468694  0.28170267  0.92553664  1
  O  O201  1  0.13003271  0.77556691  0.25934797  1
  O  O202  1  0.13628233  0.78026716  0.59193509  1
  O  O203  1  0.13003837  0.78270543  0.92717302  1
  O  O204  1  0.63240758  0.27958242  0.26285348  1
  O  O205  1  0.63191041  0.28317716  0.59573208  1
  O  O206  1  0.63960557  0.27930043  0.91628273  1
  O  O207  1  0.62819823  0.78125547  0.25620223  1
  O  O208  1  0.62816955  0.76585120  0.57498668  1
  O  O209  1  0.63724075  0.77051183  0.91789878  1
  O  O210  1  0.21960615  0.37517582  0.24205453  1
  O  O211  1  0.22369854  0.36568307  0.58000404  1
  O  O212  1  0.21412677  0.36816821  0.90912689  1
  O  O213  1  0.22133220  0.85966006  0.24222604  1
  O  O214  1  0.22323743  0.86946422  0.57593455  1
  O  O215  1  0.21885740  0.86977626  0.90980702  1
  O  O216  1  0.72501965  0.36539638  0.25080049  1
  O  O217  1  0.71828743  0.37020047  0.57512804  1
  O  O218  1  0.71609487  0.37492400  0.89590968  1
  O  O219  1  0.71273433  0.87269046  0.23946073  1
  O  O220  1  0.71228834  0.86237496  0.56325515  1
  O  O221  1  0.72826228  0.86585396  0.91614109  1
  O  O222  1  0.42154293  0.13216924  0.15446360  1
  O  O223  1  0.42145923  0.13108230  0.48355222  1
  O  O224  1  0.40770077  0.13270300  0.81365422  1
  O  O225  1  0.42000000  0.63358802  0.15259713  1
  O  O226  1  0.41783627  0.63475929  0.48680251  1
  O  O227  1  0.42029135  0.63114109  0.81904825  1
  O  O228  1  0.91596888  0.14598004  0.15047093  1
  O  O229  1  0.92024050  0.12623950  0.48321987  1
  O  O230  1  0.91956817  0.13628746  0.81507989  1
  O  O231  1  0.92026455  0.62410598  0.15025478  1
  O  O232  1  0.91666423  0.63130977  0.48178791  1
  O  O233  1  0.92025005  0.63175816  0.81849216  1
  O  O234  1  0.37024760  0.07589466  0.01962024  1
  O  O235  1  0.37137621  0.07820739  0.34865602  1
  O  O236  1  0.36337909  0.08819940  0.67805451  1
  O  O237  1  0.36728685  0.58491162  0.01701118  1
  O  O238  1  0.36500949  0.58459349  0.35010152  1
  O  O239  1  0.36768787  0.58392789  0.68327734  1
  O  O240  1  0.87255518  0.07511823  0.01556980  1
  O  O241  1  0.86453385  0.07487817  0.34632418  1
  O  O242  1  0.86945560  0.09284388  0.67908743  1
  O  O243  1  0.87003265  0.57501161  0.01507616  1
  O  O244  1  0.86322156  0.58514170  0.34499937  1
  O  O245  1  0.87247192  0.57857172  0.68314943  1
  O  O246  1  0.08170524  0.37101070  0.18015785  1
  O  O247  1  0.08688406  0.37030926  0.51645866  1
  O  O248  1  0.07649917  0.37184009  0.85091879  1
  O  O249  1  0.08354528  0.85817891  0.17893912  1
  O  O250  1  0.08488040  0.86549854  0.51445612  1
  O  O251  1  0.08171082  0.86374674  0.84549741  1
  O  O252  1  0.58739704  0.37039009  0.18891554  1
  O  O253  1  0.57978938  0.36706982  0.51791201  1
  O  O254  1  0.57749750  0.36896203  0.84713242  1
  O  O255  1  0.57393903  0.86994131  0.18258639  1
  O  O256  1  0.57385109  0.86608945  0.51638277  1
  O  O257  1  0.59057537  0.86356545  0.84901205  1
  O  O258  1  0.12926661  0.42769082  0.31493409  1
  O  O259  1  0.13348582  0.42097473  0.65212259  1
  O  O260  1  0.12819879  0.42009403  0.98569001  1
  O  O261  1  0.13415749  0.91389868  0.31584719  1
  O  O262  1  0.13614572  0.91877637  0.65110938  1
  O  O263  1  0.12765736  0.92145002  0.98119009  1
  O  O264  1  0.63557371  0.41750707  0.32414896  1
  O  O265  1  0.63458822  0.42086012  0.65411496  1
  O  O266  1  0.63753253  0.41554227  0.98291209  1
  O  O267  1  0.62644032  0.91884806  0.31781074  1
  O  O268  1  0.63583072  0.90041209  0.65049470  1
  O  O269  1  0.63403012  0.90692370  0.98522963  1
  O  O270  1  0.04211423  0.20550807  0.10152488  1
  O  O271  1  0.05372427  0.19329995  0.44629370  1
  O  O272  1  0.03390521  0.20430271  0.76857690  1
  O  O273  1  0.02784267  0.69432236  0.10412158  1
  O  O274  1  0.03119174  0.69817979  0.43782608  1
  O  O275  1  0.03293265  0.69969209  0.77061173  1
  O  O276  1  0.52954960  0.20308026  0.11355514  1
  O  O277  1  0.53054238  0.20314748  0.43695627  1
  O  O278  1  0.51844538  0.21309477  0.76581586  1
  O  O279  1  0.53172236  0.70176245  0.10320011  1
  O  O280  1  0.52360870  0.69542465  0.43103829  1
  O  O281  1  0.52615133  0.70129427  0.77136972  1
  O  O282  1  0.29584982  0.47284081  0.06941351  1
  O  O283  1  0.29741358  0.46943555  0.39745770  1
  O  O284  1  0.30058688  0.46851262  0.72356873  1
  O  O285  1  0.29936592  0.96319711  0.06030335  1
  O  O286  1  0.29662503  0.96711839  0.39292269  1
  O  O287  1  0.30250148  0.97491890  0.73089900  1
  O  O288  1  0.79703627  0.46342011  0.05705582  1
  O  O289  1  0.79498395  0.47965773  0.39646443  1
  O  O290  1  0.80209991  0.47349289  0.72877415  1
  O  O291  1  0.80951763  0.96941553  0.06387072  1
  O  O292  1  0.79467172  0.96226762  0.38814364  1
  O  O293  1  0.81736712  0.96302973  0.74308867  1
  O  O294  1  0.47254610  0.29986143  0.23712244  1
  O  O295  1  0.46870335  0.30008897  0.56619931  1
  O  O296  1  0.46579535  0.30134107  0.88883821  1
  O  O297  1  0.46850746  0.80070470  0.22992577  1
  O  O298  1  0.46559249  0.79685062  0.56341615  1
  O  O299  1  0.47401811  0.80275984  0.89657626  1
  O  O300  1  0.96109789  0.32148424  0.22424140  1
  O  O301  1  0.96739776  0.30331588  0.56612603  1
  O  O302  1  0.96873013  0.30379905  0.89544310  1
  O  O303  1  0.96720368  0.79179328  0.22905475  1
  O  O304  1  0.97859697  0.79449663  0.56076208  1
  O  O305  1  0.96769776  0.79909917  0.89985629  1
  O  O306  1  0.20854806  0.02258610  0.26828064  1
  O  O307  1  0.20156326  0.02871878  0.60128920  1
  O  O308  1  0.20194943  0.03198198  0.93525059  1
  O  O309  1  0.20098597  0.53613578  0.27325727  1
  O  O310  1  0.19941822  0.53106066  0.60511955  1
  O  O311  1  0.18313660  0.53594271  0.93699158  1
  O  O312  1  0.69086347  0.03626268  0.27620432  1
  O  O313  1  0.68289160  0.03165612  0.59785414  1
  O  O314  1  0.70852516  0.01868289  0.93175329  1
  O  O315  1  0.69660189  0.52565554  0.26912935  1
  O  O316  1  0.70421813  0.53173384  0.60529356  1
  O  O317  1  0.70001731  0.53349291  0.93704481  1
  O  O318  1  0.09050443  0.08986903  0.03467319  1
  O  O319  1  0.08955453  0.08400678  0.36113591  1
  O  O320  1  0.08645004  0.09339132  0.69911790  1
  O  O321  1  0.08401947  0.58404276  0.03992959  1
  O  O322  1  0.08193926  0.58357266  0.37197185  1
  O  O323  1  0.08353412  0.58573051  0.70332784  1
  O  O324  1  0.58564773  0.09295078  0.05234685  1
  O  O325  1  0.57836301  0.08843172  0.36770550  1
  O  O326  1  0.57536948  0.10062838  0.71541517  1
  O  O327  1  0.58919755  0.59130950  0.04156765  1
  O  O328  1  0.58427027  0.58820395  0.36654466  1
  O  O329  1  0.58216758  0.58879447  0.71101332  1
  O  O330  1  0.41120328  0.42678669  0.13472226  1
  O  O331  1  0.40305170  0.40722176  0.46048737  1
  O  O332  1  0.40913771  0.40911270  0.78764944  1
  O  O333  1  0.41503185  0.91430129  0.12636720  1
  O  O334  1  0.40802619  0.91233246  0.45659289  1
  O  O335  1  0.41164170  0.91551984  0.79391767  1
  O  O336  1  0.91331516  0.41818137  0.12552965  1
  O  O337  1  0.91201307  0.43285049  0.46005849  1
  O  O338  1  0.91607941  0.42395261  0.79668563  1
  O  O339  1  0.91164167  0.90940315  0.13357650  1
  O  O340  1  0.91177772  0.91470433  0.45687946  1
  O  O341  1  0.92511606  0.91390193  0.81774771  1
  O  O342  1  0.41638248  0.41110194  0.29641450  1
  O  O343  1  0.41308492  0.41077357  0.63154563  1
  O  O344  1  0.38822444  0.40053790  0.93684204  1
  O  O345  1  0.41439854  0.91222975  0.29512595  1
  O  O346  1  0.40963838  0.90819354  0.62740338  1
  O  O347  1  0.41552934  0.91194551  0.96206556  1
  O  O348  1  0.91036313  0.42571043  0.29976596  1
  O  O349  1  0.91307203  0.41462573  0.62897916  1
  O  O350  1  0.92004282  0.41853995  0.96271708  1
  O  O351  1  0.90714351  0.90109294  0.28929145  1
  O  O352  1  0.93241963  0.91327980  0.62006488  1
  O  O353  1  0.90535996  0.90396717  0.96546005  1
  O  O354  1  0.09442428  0.07798187  0.20777498  1
  O  O355  1  0.09024208  0.08735765  0.54255397  1
  O  O356  1  0.09193668  0.08828641  0.86930359  1
  O  O357  1  0.08551005  0.58248694  0.20458135  1
  O  O358  1  0.08743686  0.58459419  0.53864706  1
  O  O359  1  0.07829802  0.58652169  0.86147993  1
  O  O360  1  0.58111178  0.09221464  0.20877535  1
  O  O361  1  0.57750718  0.08590621  0.52574696  1
  O  O362  1  0.60232283  0.08371616  0.88127670  1
  O  O363  1  0.58337894  0.57839610  0.20362632  1
  O  O364  1  0.59486211  0.59074063  0.54551951  1
  O  O365  1  0.58941773  0.58704523  0.86846322  1
  O  O366  1  0.14648271  0.22051382  0.05082562  1
  O  O367  1  0.14846612  0.21678007  0.38998120  1
  O  O368  1  0.14130549  0.22882574  0.72537388  1
  O  O369  1  0.13477795  0.71884423  0.05898877  1
  O  O370  1  0.13719711  0.71598066  0.38947544  1
  O  O371  1  0.14188115  0.71849445  0.72611111  1
  O  O372  1  0.63727151  0.22616902  0.07062395  1
  O  O373  1  0.63888900  0.22074877  0.39115666  1
  O  O374  1  0.63278917  0.22933236  0.72705573  1
  O  O375  1  0.63828760  0.72451720  0.05649034  1
  O  O376  1  0.63653546  0.72371872  0.39404340  1
  O  O377  1  0.63634968  0.72091759  0.72844174  1
  O  O378  1  0.28081122  0.36296143  0.11307130  1
  O  O379  1  0.26769692  0.35979361  0.43770041  1
  O  O380  1  0.27449775  0.36623502  0.77253044  1
  O  O381  1  0.28265581  0.86447992  0.11653343  1
  O  O382  1  0.27466333  0.86021511  0.43873099  1
  O  O383  1  0.27666419  0.86541995  0.77249895  1
  O  O384  1  0.78248551  0.35586694  0.10563328  1
  O  O385  1  0.78254029  0.36957773  0.44141528  1
  O  O386  1  0.78302415  0.36406559  0.77218773  1
  O  O387  1  0.77526323  0.86008544  0.10124875  1
  O  O388  1  0.78094878  0.86188254  0.44278284  1
  O  O389  1  0.78970207  0.85700558  0.78899632  1
  O  O390  1  0.36106945  0.27932083  0.27805191  1
  O  O391  1  0.35984550  0.27588502  0.60817065  1
  O  O392  1  0.36726027  0.26881309  0.93901674  1
  O  O393  1  0.36138039  0.77804034  0.27484422  1
  O  O394  1  0.35928478  0.77435892  0.60947679  1
  O  O395  1  0.36584435  0.77636242  0.93901272  1
  O  O396  1  0.86480578  0.28744858  0.27748715  1
  O  O397  1  0.86374877  0.28248475  0.61807785  1
  O  O398  1  0.85825494  0.28703737  0.93854465  1
  O  O399  1  0.86014848  0.76784882  0.27440031  1
  O  O400  1  0.86807184  0.78442543  0.60478024  1
  O  O401  1  0.85929060  0.76759387  0.94039616  1
  O  O402  1  0.22685121  0.13222028  0.22471964  1
  O  O403  1  0.22309218  0.13872330  0.55883777  1
  O  O404  1  0.22665799  0.14179721  0.89319102  1
  O  O405  1  0.21759365  0.63951365  0.22178328  1
  O  O406  1  0.22141619  0.63741956  0.55879320  1
  O  O407  1  0.21525229  0.63929948  0.89053499  1
  O  O408  1  0.71677054  0.13588348  0.22417263  1
  O  O409  1  0.71291824  0.13919970  0.55501847  1
  O  O410  1  0.73355791  0.12882859  0.89082317  1
  O  O411  1  0.71597847  0.63508370  0.22578638  1
  O  O412  1  0.72856705  0.63674070  0.55799210  1
  O  O413  1  0.72455058  0.63825660  0.89063094  1
  O  O414  1  0.48790273  0.35426294  0.02264200  1
  O  O415  1  0.49055283  0.33445133  0.36968696  1
  O  O416  1  0.48890963  0.33220396  0.69988282  1
  O  O417  1  0.49486630  0.83360656  0.02922385  1
  O  O418  1  0.49154269  0.83448739  0.36415746  1
  O  O419  1  0.48991388  0.83144331  0.69698194  1
  O  O420  1  0.99075949  0.33456406  0.02852303  1
  O  O421  1  0.99663632  0.34930627  0.35921858  1
  O  O422  1  0.99552756  0.34329176  0.70109548  1
  O  O423  1  0.98777892  0.82548353  0.03144965  1
  O  O424  1  0.98957716  0.82752883  0.36180184  1
  O  O425  1  0.99657066  0.83438018  0.69563867  1
  O  O426  1  0.17298616  0.00294951  0.13520440  1
  O  O427  1  0.16635688  0.01014050  0.46837338  1
  O  O428  1  0.17229453  0.01238213  0.80259704  1
  O  O429  1  0.16542597  0.50697887  0.13743820  1
  O  O430  1  0.16503651  0.50671611  0.47072797  1
  O  O431  1  0.16374609  0.50796762  0.80406842  1
  O  O432  1  0.65280555  0.00335815  0.14154910  1
  O  O433  1  0.66111081  0.00898024  0.46496215  1
  O  O434  1  0.66617601  0.00308801  0.79743904  1
  O  O435  1  0.66496149  0.50444832  0.13589306  1
  O  O436  1  0.66568924  0.50875554  0.47126961  1
  O  O437  1  0.66857529  0.50828130  0.80263309  1
  O  O438  1  0.01204607  0.17738972  0.31335156  1
  O  O439  1  0.01047071  0.17508010  0.63510239  1
  O  O440  1  0.01268494  0.16747358  0.96659225  1
  O  O441  1  0.00539423  0.66216971  0.30337921  1
  O  O442  1  0.01019029  0.66879321  0.63735600  1
  O  O443  1  0.00604241  0.66058592  0.96994942  1
  O  O444  1  0.50649960  0.17322050  0.30343884  1
  O  O445  1  0.50620393  0.17116268  0.63329449  1
  O  O446  1  0.50909219  0.16913803  0.98002600  1
  O  O447  1  0.50825270  0.66979251  0.30062443  1
  O  O448  1  0.50694032  0.66604247  0.63834961  1
  O  O449  1  0.50857864  0.66603216  0.96966089  1
  O  O450  1  0.32799166  0.49403953  0.20320228  1
  O  O451  1  0.32645413  0.48819996  0.52899220  1
  O  O452  1  0.33575809  0.49823505  0.85678339  1
  O  O453  1  0.34238334  0.99580604  0.19713672  1
  O  O454  1  0.33083698  0.99029588  0.52708346  1
  O  O455  1  0.33404572  0.99353850  0.86372888  1
  O  O456  1  0.82872705  0.48949088  0.19083086  1
  O  O457  1  0.83090114  0.49980456  0.53066160  1
  O  O458  1  0.83247748  0.49466163  0.86213507  1
  O  O459  1  0.82677050  0.98858164  0.19337109  1
  O  O460  1  0.83618100  0.99720385  0.52373415  1
  O  O461  1  0.83980661  0.98860770  0.87706090  1
