# generated using pymatgen
data_Na31Fe20(SO4)36
_symmetry_space_group_name_H-M   'P 1'
_cell_length_a   18.08367862
_cell_length_b   18.08230562
_cell_length_c   19.73097758
_cell_angle_alpha   107.58819140
_cell_angle_beta   107.61563916
_cell_angle_gamma   90.75001078
_symmetry_Int_Tables_number   1
_chemical_formula_structural   Na31Fe20(SO4)36
_chemical_formula_sum   'Na62 Fe40 S72 O288'
_cell_volume   5822.98448233
_cell_formula_units_Z   2
loop_
 _symmetry_equiv_pos_site_id
 _symmetry_equiv_pos_as_xyz
  1  'x, y, z'
loop_
 _atom_site_type_symbol
 _atom_site_label
 _atom_site_symmetry_multiplicity
 _atom_site_fract_x
 _atom_site_fract_y
 _atom_site_fract_z
 _atom_site_occupancy
  Na  Na0  1  0.13432148  0.36444305  0.08381287  1
  Na  Na1  1  0.13928449  0.35947905  0.41759405  1
  Na  Na2  1  0.14267474  0.36206280  0.74312292  1
  Na  Na3  1  0.12619014  0.86235931  0.07800594  1
  Na  Na4  1  0.11922448  0.87382922  0.41150504  1
  Na  Na5  1  0.13103215  0.86435468  0.74898523  1
  Na  Na6  1  0.63648674  0.36879693  0.08618833  1
  Na  Na7  1  0.63912887  0.35761660  0.41671616  1
  Na  Na8  1  0.64684708  0.37669430  0.76306786  1
  Na  Na9  1  0.61946405  0.86601754  0.07173436  1
  Na  Na10  1  0.63082605  0.86645418  0.41175523  1
  Na  Na11  1  0.63481771  0.86732918  0.75450730  1
  Na  Na12  1  0.36658535  0.13104800  0.25189980  1
  Na  Na13  1  0.35319886  0.15874754  0.58876094  1
  Na  Na14  1  0.36927417  0.12456973  0.91325408  1
  Na  Na15  1  0.36098445  0.63085258  0.24479175  1
  Na  Na16  1  0.37500714  0.64414088  0.60060306  1
  Na  Na17  1  0.35821263  0.62800685  0.90404093  1
  Na  Na18  1  0.87062875  0.13497204  0.24950135  1
  Na  Na19  1  0.86024670  0.13137142  0.57361288  1
  Na  Na20  1  0.85798183  0.13880332  0.91283339  1
  Na  Na21  1  0.86277007  0.63254737  0.24203756  1
  Na  Na22  1  0.86612425  0.63188470  0.58043813  1
  Na  Na23  1  0.87148875  0.64708990  0.92395089  1
  Na  Na24  1  0.97218244  0.01300089  0.12751405  1
  Na  Na25  1  0.99177170  0.01075655  0.74362848  1
  Na  Na26  1  0.99595981  0.53196954  0.76081701  1
  Na  Na27  1  0.50045466  0.00628480  0.41363863  1
  Na  Na28  1  0.99060754  0.50974000  0.42294582  1
  Na  Na29  1  0.51314129  -0.03620386  0.83438814  1
  Na  Na30  1  0.49127878  0.50675169  0.41357383  1
  Na  Na31  1  0.47844167  0.51044034  0.75850563  1
  Na  Na32  1  0.94933455  0.51279321  0.06989089  1
  Na  Na33  1  0.48538958  1.01346916  0.60061568  1
  Na  Na34  1  0.51285590  0.49084173  0.23387922  1
  Na  Na35  1  -0.00631704  0.50922475  0.91792523  1
  Na  Na36  1  0.51297200  0.48935757  0.58714771  1
  Na  Na37  1  0.01133915  0.47886595  0.24555827  1
  Na  Na38  1  -0.03917763  1.00709828  0.95292682  1
  Na  Na39  1  0.51102787  0.48287490  0.93660609  1
  Na  Na40  1  0.05940611  0.49320183  0.60387383  1
  Na  Na41  1  0.53947509  0.99407638  0.24771927  1
  Na  Na42  1  0.74194390  0.24439708  0.01431650  1
  Na  Na43  1  0.23340992  0.23332843  0.34278483  1
  Na  Na44  1  0.25061884  0.74309682  0.67808411  1
  Na  Na45  1  0.75613896  0.75781808  0.32519361  1
  Na  Na46  1  0.75214163  0.75206341  0.66416956  1
  Na  Na47  1  0.23644271  0.73906312  -0.00091317  1
  Na  Na48  1  0.25040726  0.24509763  -0.00145032  1
  Na  Na49  1  0.77389404  0.78001374  -0.00195242  1
  Na  Na50  1  0.76299950  0.25449122  0.32273940  1
  Na  Na51  1  0.24608486  0.75308625  0.33406193  1
  Na  Na52  1  0.73746263  0.23542632  0.51272346  1
  Na  Na53  1  0.22802628  0.72489153  0.83491193  1
  Na  Na54  1  0.25895648  0.25345602  0.82055668  1
  Na  Na55  1  0.75409140  0.75792480  0.49255063  1
  Na  Na56  1  0.76358337  0.76675541  0.83236204  1
  Na  Na57  1  0.75887878  0.76454510  0.15578234  1
  Na  Na58  1  0.23520612  0.23700582  0.17429029  1
  Na  Na59  1  0.24108611  0.74608010  0.16413215  1
  Na  Na60  1  0.76488916  0.26979742  0.82545256  1
  Na  Na61  1  0.25104637  0.74840292  0.50570638  1
  Fe  Fe62  1  0.46295179  0.80164495  0.11698356  1
  Fe  Fe63  1  0.46676608  0.29990741  0.11718833  1
  Fe  Fe64  1  0.97165555  0.30550708  0.45107188  1
  Fe  Fe65  1  0.96647009  0.31010696  0.78361994  1
  Fe  Fe66  1  0.96708819  0.81054371  0.79243075  1
  Fe  Fe67  1  0.46245111  0.30838125  0.45148712  1
  Fe  Fe68  1  0.46409989  0.81059268  0.45493480  1
  Fe  Fe69  1  0.46724804  0.30570666  0.78210927  1
  Fe  Fe70  1  0.96248592  0.81411882  0.45838944  1
  Fe  Fe71  1  0.96896549  0.29850382  0.11847677  1
  Fe  Fe72  1  0.19164786  0.52898611  0.04484172  1
  Fe  Fe73  1  0.18730691  0.03592476  0.70779234  1
  Fe  Fe74  1  0.18517528  0.03937403  0.37795884  1
  Fe  Fe75  1  0.69734843  0.03419768  0.04210483  1
  Fe  Fe76  1  0.70088647  0.53287088  0.04482215  1
  Fe  Fe77  1  0.69269906  0.03743000  0.71498254  1
  Fe  Fe78  1  0.19193732  0.03103174  0.04510541  1
  Fe  Fe79  1  0.19333544  0.53595215  0.37759473  1
  Fe  Fe80  1  0.69484632  0.53258968  0.38128642  1
  Fe  Fe81  1  0.70042781  0.53618132  0.71889494  1
  Fe  Fe82  1  0.04218741  0.18407822  0.54140856  1
  Fe  Fe83  1  0.02389376  0.70856486  0.21031436  1
  Fe  Fe84  1  0.53452655  0.19173441  0.88090772  1
  Fe  Fe85  1  0.53516577  0.19641236  0.55043701  1
  Fe  Fe86  1  0.52981416  0.70021270  0.87728904  1
  Fe  Fe87  1  0.03506055  0.19185471  0.87740136  1
  Fe  Fe88  1  0.03548572  0.69453329  0.54710836  1
  Fe  Fe89  1  0.53475024  0.69488577  0.54881884  1
  Fe  Fe90  1  0.53683955  0.18699955  0.21194091  1
  Fe  Fe91  1  0.53740867  0.68555920  0.20879260  1
  Fe  Fe92  1  0.30102981  0.46229534  0.61872578  1
  Fe  Fe93  1  0.30724716  0.46564987  0.28282328  1
  Fe  Fe94  1  0.81202369  0.46438874  0.61986198  1
  Fe  Fe95  1  0.80191980  0.96936803  0.61747168  1
  Fe  Fe96  1  0.79965662  0.97269264  0.29534689  1
  Fe  Fe97  1  0.80822978  0.46246323  0.28303343  1
  Fe  Fe98  1  0.30861019  0.96520003  0.62089219  1
  Fe  Fe99  1  0.30997436  0.46389674  0.95136585  1
  Fe  Fe100  1  0.30873939  0.96106091  0.95000575  1
  Fe  Fe101  1  0.30649404  0.96343509  0.28669720  1
  S  S102  1  0.35889262  0.13658322  0.08290696  1
  S  S103  1  0.36013061  0.14042500  0.41803169  1
  S  S104  1  0.36269350  0.13869468  0.74693498  1
  S  S105  1  0.36021098  0.63677854  0.08568926  1
  S  S106  1  0.36144443  0.64023973  0.41558178  1
  S  S107  1  0.36036367  0.63613284  0.74682019  1
  S  S108  1  0.85793156  0.13964526  0.07653097  1
  S  S109  1  0.86044903  0.14571693  0.41969322  1
  S  S110  1  0.85953359  0.14309966  0.74917353  1
  S  S111  1  0.85386375  0.64729063  0.08406376  1
  S  S112  1  0.85904029  0.64035542  0.41639117  1
  S  S113  1  0.86079996  0.64369197  0.75038193  1
  S  S114  1  0.14330381  0.35985504  0.24812137  1
  S  S115  1  0.14506489  0.35422229  0.58095755  1
  S  S116  1  0.14496211  0.35354429  0.91328164  1
  S  S117  1  0.14302079  0.86107773  0.25325494  1
  S  S118  1  0.14097341  0.85743708  0.58244615  1
  S  S119  1  0.14192981  0.85937124  0.91324120  1
  S  S120  1  0.63988182  0.35886618  0.25179218  1
  S  S121  1  0.64039300  0.36250861  0.58157047  1
  S  S122  1  0.64002657  0.35940763  0.91810298  1
  S  S123  1  0.63675285  0.85676724  0.24885389  1
  S  S124  1  0.63965103  0.85904292  0.58210192  1
  S  S125  1  0.64029718  0.86094545  0.91991716  1
  S  S126  1  0.06872143  0.16834138  0.03817305  1
  S  S127  1  0.06469726  0.17141483  0.37320989  1
  S  S128  1  0.06622835  0.17026909  0.70799568  1
  S  S129  1  0.06894158  0.65871200  0.04395456  1
  S  S130  1  0.06642137  0.67019821  0.37370127  1
  S  S131  1  0.05972531  0.67278720  0.70704881  1
  S  S132  1  0.57232003  0.17262087  0.04323975  1
  S  S133  1  0.56005361  0.16984341  0.37629254  1
  S  S134  1  0.57082765  0.17733846  0.71289005  1
  S  S135  1  0.56726235  0.66696962  0.04159000  1
  S  S136  1  0.56634989  0.66391248  0.37331554  1
  S  S137  1  0.57612817  0.67042258  0.70853707  1
  S  S138  1  0.33243962  0.42844085  0.12251037  1
  S  S139  1  0.33147316  0.43505331  0.45531538  1
  S  S140  1  0.33989465  0.42872191  0.79451090  1
  S  S141  1  0.33029254  0.92865629  0.12656765  1
  S  S142  1  0.33449173  0.93572967  0.45894681  1
  S  S143  1  0.31968037  0.93025922  0.78209822  1
  S  S144  1  0.83306663  0.43293480  0.12483814  1
  S  S145  1  0.83292723  0.43312571  0.45632415  1
  S  S146  1  0.83795813  0.44183463  0.79292661  1
  S  S147  1  0.81831788  0.93686409  0.13144701  1
  S  S148  1  0.82270641  0.93115621  0.45624954  1
  S  S149  1  0.83114591  0.93590429  0.78503359  1
  S  S150  1  0.43296456  0.33154233  0.28947599  1
  S  S151  1  0.44021231  0.33987703  0.62808160  1
  S  S152  1  0.43154119  0.32500562  0.95749987  1
  S  S153  1  0.43122502  0.82482377  0.28899860  1
  S  S154  1  0.43681450  0.83286831  0.62316374  1
  S  S155  1  0.42031669  0.81975719  0.95431306  1
  S  S156  1  0.93643218  0.33877133  0.29377793  1
  S  S157  1  0.93577948  0.33375560  0.62318689  1
  S  S158  1  0.94165564  0.33119064  0.95572001  1
  S  S159  1  0.92230222  0.83105033  0.29408161  1
  S  S160  1  0.92962067  0.82922668  0.62366789  1
  S  S161  1  0.93762527  0.84021930  0.96274508  1
  S  S162  1  0.17260759  0.06322358  0.20909542  1
  S  S163  1  0.17270210  0.06472026  0.54269426  1
  S  S164  1  0.17071279  0.06669573  0.87208405  1
  S  S165  1  0.16751549  0.56542083  0.20861685  1
  S  S166  1  0.17132538  0.56779765  0.53891027  1
  S  S167  1  0.16812032  0.55335413  0.87663125  1
  S  S168  1  0.67275379  0.06789492  0.20771118  1
  S  S169  1  0.65840498  0.06251533  0.54127192  1
  S  S170  1  0.66805353  0.06919942  0.87530382  1
  S  S171  1  0.67311460  0.56505092  0.21086370  1
  S  S172  1  0.66791009  0.56520334  0.54085761  1
  S  S173  1  0.66779034  0.57682927  0.87726889  1
  O  O174  1  0.36838556  0.21577197  0.07459702  1
  O  O175  1  0.36802783  0.21761531  0.40543785  1
  O  O176  1  0.37483505  0.21694550  0.73856257  1
  O  O177  1  0.36428787  0.71773626  0.08094759  1
  O  O178  1  0.37078059  0.71833058  0.40595612  1
  O  O179  1  0.37317124  0.70778092  0.72991152  1
  O  O180  1  0.86871873  0.22289690  0.07652276  1
  O  O181  1  0.87492429  0.22039445  0.40408781  1
  O  O182  1  0.86986966  0.22394895  0.74724147  1
  O  O183  1  0.85675489  0.72748248  0.08233988  1
  O  O184  1  0.86643981  0.72168103  0.41394876  1
  O  O185  1  0.86831849  0.72431501  0.74335086  1
  O  O186  1  0.27986804  0.12867870  0.09185306  1
  O  O187  1  0.27982305  0.12913834  0.42052121  1
  O  O188  1  0.28276678  0.13068481  0.75246626  1
  O  O189  1  0.28355706  0.62415958  0.09763246  1
  O  O190  1  0.28200028  0.63250777  0.42254927  1
  O  O191  1  0.28609677  0.63057269  0.76169126  1
  O  O192  1  0.77160698  0.13024155  0.07073905  1
  O  O193  1  0.78659598  0.14388412  0.43482070  1
  O  O194  1  0.78268469  0.13404730  0.76150287  1
  O  O195  1  0.77931787  0.63085690  0.10020881  1
  O  O196  1  0.78168114  0.62946934  0.42784392  1
  O  O197  1  0.78065096  0.63544157  0.75725202  1
  O  O198  1  0.14025622  0.28275336  0.25629066  1
  O  O199  1  0.13320238  0.27440000  0.58434252  1
  O  O200  1  0.13620004  0.27293335  0.91814183  1
  O  O201  1  0.12779875  0.78449744  0.26589676  1
  O  O202  1  0.13333147  0.77802961  0.59136211  1
  O  O203  1  0.13525500  0.78107877  0.91884438  1
  O  O204  1  0.62930722  0.28103779  0.26123927  1
  O  O205  1  0.63089321  0.28189391  0.58440063  1
  O  O206  1  0.62684529  0.28220482  0.92924397  1
  O  O207  1  0.62961726  0.77560767  0.25409476  1
  O  O208  1  0.63145943  0.77917254  0.58930372  1
  O  O209  1  0.61912096  0.78898967  0.93674548  1
  O  O210  1  0.22022543  0.37479820  0.23607681  1
  O  O211  1  0.22140965  0.36485005  0.56811278  1
  O  O212  1  0.22443703  0.36328578  0.90631863  1
  O  O213  1  0.22747414  0.86252015  0.25433754  1
  O  O214  1  0.22066467  0.86700316  0.57610564  1
  O  O215  1  0.21878187  0.87243659  0.90111600  1
  O  O216  1  0.71874488  0.36833575  0.24549431  1
  O  O217  1  0.71681487  0.37196181  0.56854891  1
  O  O218  1  0.71463953  0.36610432  0.90567384  1
  O  O219  1  0.71968973  0.86947586  0.24917376  1
  O  O220  1  0.71907722  0.86781552  0.57486132  1
  O  O221  1  0.72041604  0.85919446  0.91712453  1
  O  O222  1  0.41827456  0.13063560  0.15127300  1
  O  O223  1  0.41689132  0.13893139  0.49040958  1
  O  O224  1  0.41942207  0.13154841  0.81682479  1
  O  O225  1  0.42178097  0.62893626  0.15250770  1
  O  O226  1  0.41972144  0.63185237  0.48387886  1
  O  O227  1  0.42477064  0.62718111  0.81307331  1
  O  O228  1  0.90658578  0.12871192  0.14603651  1
  O  O229  1  0.92429442  0.13716346  0.48432353  1
  O  O230  1  0.92104292  0.12776444  0.81236716  1
  O  O231  1  0.91822209  0.63739489  0.15037891  1
  O  O232  1  0.92084872  0.62799525  0.48077911  1
  O  O233  1  0.92020212  0.63348515  0.81459155  1
  O  O234  1  0.36421165  0.07771618  0.01416334  1
  O  O235  1  0.37549289  0.07879151  0.35492281  1
  O  O236  1  0.37295999  0.07912286  0.68017615  1
  O  O237  1  0.36740919  0.58153085  0.01601928  1
  O  O238  1  0.37087033  0.58016776  0.34837159  1
  O  O239  1  0.36555168  0.56908985  0.68016586  1
  O  O240  1  0.87234108  0.08696007  0.01013610  1
  O  O241  1  0.85886485  0.08102779  0.34957350  1
  O  O242  1  0.86322567  0.08650891  0.67762760  1
  O  O243  1  0.85989869  0.59033808  0.01579336  1
  O  O244  1  0.86407177  0.58470218  0.34577059  1
  O  O245  1  0.86465003  0.58606455  0.67881497  1
  O  O246  1  0.08125005  0.36803089  0.18119319  1
  O  O247  1  0.08367672  0.36840177  0.51526723  1
  O  O248  1  0.08617955  0.36330467  0.84642490  1
  O  O249  1  0.09234066  0.86700097  0.18318985  1
  O  O250  1  0.08301642  0.86038598  0.51195792  1
  O  O251  1  0.08063532  0.86975138  0.84683312  1
  O  O252  1  0.58031003  0.36742769  0.18371734  1
  O  O253  1  0.57790089  0.37584517  0.51736817  1
  O  O254  1  0.57609953  0.36914211  0.85293599  1
  O  O255  1  0.58232236  0.86146522  0.17664245  1
  O  O256  1  0.58165127  0.86421198  0.51239491  1
  O  O257  1  0.58556989  0.86770365  0.85078950  1
  O  O258  1  0.13530015  0.42072526  0.31593489  1
  O  O259  1  0.14111702  0.41191536  0.65001793  1
  O  O260  1  0.13808863  0.40940670  0.98336952  1
  O  O261  1  0.13589061  0.92255992  0.32031576  1
  O  O262  1  0.12935076  0.91607067  0.64808653  1
  O  O263  1  0.13717995  0.91862964  0.98303534  1
  O  O264  1  0.63028665  0.41924242  0.31910002  1
  O  O265  1  0.63661232  0.41956673  0.65267485  1
  O  O266  1  0.63412965  0.42093012  0.98710122  1
  O  O267  1  0.62056196  0.91337881  0.31174624  1
  O  O268  1  0.63040962  0.91736711  0.64924210  1
  O  O269  1  0.63456057  0.92769827  0.98644355  1
  O  O270  1  0.03407348  0.19936652  0.09814405  1
  O  O271  1  0.03400752  0.20423992  0.43972151  1
  O  O272  1  0.02651218  0.20099525  0.76672507  1
  O  O273  1  0.04799555  0.69051599  0.11335425  1
  O  O274  1  0.02955873  0.69701847  0.43461985  1
  O  O275  1  0.02320525  0.71287278  0.76409610  1
  O  O276  1  0.53280915  0.19643058  0.10340660  1
  O  O277  1  0.52477090  0.20636497  0.43803734  1
  O  O278  1  0.53528711  0.20541057  0.77479494  1
  O  O279  1  0.52605380  0.69444990  0.10037649  1
  O  O280  1  0.53131449  0.69408110  0.43472070  1
  O  O281  1  0.54527937  0.69616382  0.77093750  1
  O  O282  1  0.30398981  0.46362999  0.06106761  1
  O  O283  1  0.30350191  0.47318802  0.39504266  1
  O  O284  1  0.31582817  0.45852636  0.73092368  1
  O  O285  1  0.30227870  0.96482483  0.06545117  1
  O  O286  1  0.30343916  0.97020534  0.39778049  1
  O  O287  1  0.28797883  0.97328331  0.72515181  1
  O  O288  1  0.80623289  0.47181070  0.06712723  1
  O  O289  1  0.80252920  0.47129068  0.39610440  1
  O  O290  1  0.80217169  0.46963118  0.72475034  1
  O  O291  1  0.79251738  0.98293659  0.07774773  1
  O  O292  1  0.79939633  0.96758533  0.39591664  1
  O  O293  1  0.79564734  0.97112850  0.72255443  1
  O  O294  1  0.46918052  0.29977444  0.22900957  1
  O  O295  1  0.47250643  0.30469359  0.56426772  1
  O  O296  1  0.46599497  0.29443926  0.89561508  1
  O  O297  1  0.46927186  0.79764154  0.22944341  1
  O  O298  1  0.46897795  0.79811445  0.55733358  1
  O  O299  1  0.45423335  0.78930491  0.89378326  1
  O  O300  1  0.96968165  0.31723236  0.23226681  1
  O  O301  1  0.97180677  0.30632809  0.56241607  1
  O  O302  1  0.97779335  0.29561855  0.89414032  1
  O  O303  1  0.96274306  0.80907458  0.23787986  1
  O  O304  1  0.96827108  0.79974913  0.56381321  1
  O  O305  1  0.94979299  0.84311125  0.89019525  1
  O  O306  1  0.20701092  0.02660642  0.27062242  1
  O  O307  1  0.20396747  0.02547941  0.60277973  1
  O  O308  1  0.19913298  0.03204633  0.93411750  1
  O  O309  1  0.20454028  0.53429796  0.27340880  1
  O  O310  1  0.19761318  0.52921441  0.59650795  1
  O  O311  1  0.20920166  0.52362082  0.94329092  1
  O  O312  1  0.69670511  0.02359786  0.26265867  1
  O  O313  1  0.69440017  0.03239179  0.60722726  1
  O  O314  1  0.68759962  0.02912240  0.93274758  1
  O  O315  1  0.70228198  0.52659989  0.27120081  1
  O  O316  1  0.69901933  0.53129277  0.60266117  1
  O  O317  1  0.68505161  0.54020532  0.93673536  1
  O  O318  1  0.08772522  0.08687159  0.03407496  1
  O  O319  1  0.08888324  0.09341585  0.37595954  1
  O  O320  1  0.08304504  0.08883464  0.70734083  1
  O  O321  1  0.08976548  0.57592999  0.03916063  1
  O  O322  1  0.08048656  0.58609821  0.36410180  1
  O  O323  1  0.07064995  0.59302562  0.70983138  1
  O  O324  1  0.60087468  0.09563815  0.04044940  1
  O  O325  1  0.56610177  0.08727398  0.37014433  1
  O  O326  1  0.58883406  0.09553669  0.70603902  1
  O  O327  1  0.59025885  0.58773787  0.04065113  1
  O  O328  1  0.58229328  0.58072377  0.36783628  1
  O  O329  1  0.59435406  0.58696397  0.69598936  1
  O  O330  1  0.41330872  0.40752657  0.12873115  1
  O  O331  1  0.41578253  0.42129380  0.46250248  1
  O  O332  1  0.42564708  0.41485153  0.80826772  1
  O  O333  1  0.41147392  0.90872335  0.13413434  1
  O  O334  1  0.41804956  0.92089818  0.46418676  1
  O  O335  1  0.39427789  0.90601141  0.77638703  1
  O  O336  1  0.91403895  0.41156665  0.12732143  1
  O  O337  1  0.91556845  0.41929223  0.46290247  1
  O  O338  1  0.91732332  0.41784011  0.79052304  1
  O  O339  1  0.89578619  0.91565088  0.13496422  1
  O  O340  1  0.90357378  0.91151570  0.46956895  1
  O  O341  1  0.90791453  0.91143416  0.77735619  1
  O  O342  1  0.41727787  0.41425382  0.29327138  1
  O  O343  1  0.42491151  0.42190077  0.62928840  1
  O  O344  1  0.41450524  0.40663559  0.96196712  1
  O  O345  1  0.41341316  0.90692847  0.29720465  1
  O  O346  1  0.41264089  0.91101578  0.61889287  1
  O  O347  1  0.40238723  0.90067919  0.95947996  1
  O  O348  1  0.91932344  0.42393255  0.30632215  1
  O  O349  1  0.92037460  0.41763259  0.63210021  1
  O  O350  1  0.93445132  0.41332863  0.96030909  1
  O  O351  1  0.89296710  0.90859326  0.29902597  1
  O  O352  1  0.90932656  0.90948503  0.62734916  1
  O  O353  1  0.92483395  0.92055524  1.00072919  1
  O  O354  1  0.09369415  0.07920392  0.20620489  1
  O  O355  1  0.09237862  0.08098988  0.54141192  1
  O  O356  1  0.08960803  0.08723260  0.86593934  1
  O  O357  1  0.08488545  0.57420629  0.20304012  1
  O  O358  1  0.08889510  0.58665071  0.53400647  1
  O  O359  1  0.08817555  0.56497571  0.87857346  1
  O  O360  1  0.59211542  0.08784303  0.20781331  1
  O  O361  1  0.57922503  0.08731118  0.54520707  1
  O  O362  1  0.58469010  0.08639508  0.86168188  1
  O  O363  1  0.59069007  0.57987785  0.20639273  1
  O  O364  1  0.58472666  0.58089980  0.53419857  1
  O  O365  1  0.58401814  0.59354922  0.85945593  1
  O  O366  1  0.14066376  0.21940133  0.05160187  1
  O  O367  1  0.13334910  0.22509624  0.38599155  1
  O  O368  1  0.13866312  0.22098391  0.72698603  1
  O  O369  1  0.13900606  0.70803946  0.05051157  1
  O  O370  1  0.14060166  0.72003289  0.39419469  1
  O  O371  1  0.13459520  0.71829451  0.71987153  1
  O  O372  1  0.63570502  0.23298638  0.05936023  1
  O  O373  1  0.63524995  0.21643252  0.39421971  1
  O  O374  1  0.63992775  0.23038506  0.72749879  1
  O  O375  1  0.63536140  0.72351183  0.06073917  1
  O  O376  1  0.63851815  0.71379717  0.38819128  1
  O  O377  1  0.64591247  0.72262616  0.71986192  1
  O  O378  1  0.27883944  0.35917555  0.10850909  1
  O  O379  1  0.28256548  0.36156130  0.43498198  1
  O  O380  1  0.29140463  0.35763286  0.78308787  1
  O  O381  1  0.27591571  0.85894406  0.11127515  1
  O  O382  1  0.28602371  0.86268123  0.44475359  1
  O  O383  1  0.26227375  0.86301381  0.76552493  1
  O  O384  1  0.77894083  0.36508970  0.11185478  1
  O  O385  1  0.78211531  0.36045897  0.43730718  1
  O  O386  1  0.78575624  0.37510208  0.78535737  1
  O  O387  1  0.75926348  0.86853682  0.10867070  1
  O  O388  1  0.76754830  0.85986130  0.43613304  1
  O  O389  1  0.77694288  0.86686795  0.77204892  1
  O  O390  1  0.36112653  0.28181624  0.27487918  1
  O  O391  1  0.36993990  0.29281657  0.61902679  1
  O  O392  1  0.36024614  0.27359563  0.94293430  1
  O  O393  1  0.36029735  0.77133176  0.27085056  1
  O  O394  1  0.36711910  0.77954503  0.60932144  1
  O  O395  1  0.34936667  0.76830733  0.94271963  1
  O  O396  1  0.86562357  0.28849428  0.27971768  1
  O  O397  1  0.86367559  0.28351516  0.60680257  1
  O  O398  1  0.86643345  0.28406154  0.93678537  1
  O  O399  1  0.85551749  0.77110208  0.27584408  1
  O  O400  1  0.85906901  0.77447071  0.60491080  1
  O  O401  1  0.86636891  0.78360913  0.93942262  1
  O  O402  1  0.22653948  0.13504905  0.22720501  1
  O  O403  1  0.22399247  0.13503594  0.55916225  1
  O  O404  1  0.22517982  0.13591652  0.88694901  1
  O  O405  1  0.21451508  0.64010554  0.22390423  1
  O  O406  1  0.22331241  0.63952859  0.55563750  1
  O  O407  1  0.21520822  0.62833980  0.89179095  1
  O  O408  1  0.72697640  0.13793033  0.22823808  1
  O  O409  1  0.71055520  0.12927109  0.54902394  1
  O  O410  1  0.72072276  0.14118392  0.89657406  1
  O  O411  1  0.72308525  0.63816009  0.23079148  1
  O  O412  1  0.71727555  0.63727686  0.55414492  1
  O  O413  1  0.72115758  0.64783535  0.89624293  1
  O  O414  1  0.49159505  0.32720866  0.02962008  1
  O  O415  1  0.49196410  0.33685043  0.36347207  1
  O  O416  1  0.50288189  0.34570762  0.70039816  1
  O  O417  1  0.48107978  0.82354295  0.02768932  1
  O  O418  1  0.48959831  0.82560189  0.36190428  1
  O  O419  1  0.49917544  0.84191378  0.69272678  1
  O  O420  1  0.99633707  0.32687705  0.02822858  1
  O  O421  1  0.99773940  0.34040149  0.36574078  1
  O  O422  1  0.99503753  0.33339174  0.69515117  1
  O  O423  1  1.00530676  0.81466469  0.00769120  1
  O  O424  1  0.98079840  0.83680522  0.36891796  1
  O  O425  1  0.98858852  0.83147504  0.69604982  1
  O  O426  1  0.17408050  0.00554455  0.13665969  1
  O  O427  1  0.17023415  0.00561978  0.46986225  1
  O  O428  1  0.16571798  0.00656287  0.79919953  1
  O  O429  1  0.17367383  0.50564113  0.14001481  1
  O  O430  1  0.16561352  0.51077368  0.46347462  1
  O  O431  1  0.16826440  0.49489409  0.80720630  1
  O  O432  1  0.66568023  0.01450790  0.13091824  1
  O  O433  1  0.64314900  -0.00233604  0.47131321  1
  O  O434  1  0.67207762  0.01145061  0.80378781  1
  O  O435  1  0.67440915  0.50857136  0.13907594  1
  O  O436  1  0.66570476  0.50495242  0.46852460  1
  O  O437  1  0.67369612  0.51617688  0.80735456  1
  O  O438  1  0.00162232  0.16443331  0.30473057  1
  O  O439  1  0.01030200  0.16724550  0.63431481  1
  O  O440  1  0.00937669  0.16228983  0.96367372  1
  O  O441  1  0.00970786  0.67374652  0.30246094  1
  O  O442  1  0.00482490  0.66682991  0.62998855  1
  O  O443  1  0.00269488  0.64990482  0.97689804  1
  O  O444  1  0.50450023  0.17414617  0.30370906  1
  O  O445  1  0.50801137  0.17491887  0.64179113  1
  O  O446  1  0.50989775  0.16405283  0.97032433  1
  O  O447  1  0.50765448  0.66091179  0.30027475  1
  O  O448  1  0.51319096  0.66890884  0.63684922  1
  O  O449  1  0.50870862  0.66031335  0.96758213  1
  O  O450  1  0.33687654  0.49043076  0.19482231  1
  O  O451  1  0.33063922  0.49162816  0.52751804  1
  O  O452  1  0.34018270  0.49118750  0.86544329  1
  O  O453  1  0.33363489  0.98921239  0.19932782  1
  O  O454  1  0.33763387  0.99488740  0.53169159  1
  O  O455  1  0.32845612  0.98781692  0.85801226  1
  O  O456  1  0.84180727  0.49224829  0.20082020  1
  O  O457  1  0.83084514  0.49085015  0.52816936  1
  O  O458  1  0.85025068  0.50822367  0.86089138  1
  O  O459  1  0.81961501  0.99167855  0.20763276  1
  O  O460  1  0.81754024  0.99044266  0.52599895  1
  O  O461  1  0.84332868  0.99629749  0.85711000  1
