# generated using pymatgen
data_Na31Fe20(SO4)36
_symmetry_space_group_name_H-M   'P 1'
_cell_length_a   18.07548396
_cell_length_b   18.06616801
_cell_length_c   19.70327022
_cell_angle_alpha   107.55008667
_cell_angle_beta   107.59243270
_cell_angle_gamma   90.73088733
_symmetry_Int_Tables_number   1
_chemical_formula_structural   Na31Fe20(SO4)36
_chemical_formula_sum   'Na62 Fe40 S72 O288'
_cell_volume   5809.45808011
_cell_formula_units_Z   2
loop_
 _symmetry_equiv_pos_site_id
 _symmetry_equiv_pos_as_xyz
  1  'x, y, z'
loop_
 _atom_site_type_symbol
 _atom_site_label
 _atom_site_symmetry_multiplicity
 _atom_site_fract_x
 _atom_site_fract_y
 _atom_site_fract_z
 _atom_site_occupancy
  Na  Na0  1  0.13116432  0.36536857  0.07842177  1
  Na  Na1  1  0.13295790  0.36738653  0.41602469  1
  Na  Na2  1  0.13761652  0.37030194  0.75728511  1
  Na  Na3  1  0.13707856  0.85901460  0.08484212  1
  Na  Na4  1  0.14837950  0.83042083  0.38414688  1
  Na  Na5  1  0.13023381  0.87601689  0.75729708  1
  Na  Na6  1  0.63139876  0.36267963  0.07430289  1
  Na  Na7  1  0.62887472  0.35898082  0.40947124  1
  Na  Na8  1  0.63352077  0.37746421  0.75893983  1
  Na  Na9  1  0.63346466  0.86544171  0.08276195  1
  Na  Na10  1  0.64257171  0.86459357  0.42269288  1
  Na  Na11  1  0.63174584  0.86540201  0.74772437  1
  Na  Na12  1  0.36990777  0.13750559  0.25969819  1
  Na  Na13  1  0.35661100  0.12783750  0.56724982  1
  Na  Na14  1  0.37074329  0.14140333  0.92370950  1
  Na  Na15  1  0.34633561  0.65037668  0.25201503  1
  Na  Na16  1  0.35955452  0.61894483  0.56700249  1
  Na  Na17  1  0.35462374  0.63263214  0.91746391  1
  Na  Na18  1  0.86505458  0.13162176  0.24769392  1
  Na  Na19  1  0.86836829  0.13697081  0.58803033  1
  Na  Na20  1  0.86687260  0.14164713  0.92272758  1
  Na  Na21  1  0.87264171  0.63489452  0.25180240  1
  Na  Na22  1  0.86536149  0.63648579  0.58103860  1
  Na  Na23  1  0.86190130  0.63170774  0.91422971  1
  Na  Na24  1  0.97638053  0.53081241  0.08652556  1
  Na  Na25  1  0.48413362  0.01369793  0.41440163  1
  Na  Na26  1  0.99977756  0.50576862  0.43247117  1
  Na  Na27  1  0.99706263  0.01042986  0.07417589  1
  Na  Na28  1  0.49049313  0.01546453  0.74836339  1
  Na  Na29  1  0.98981033  0.54099166  0.74866243  1
  Na  Na30  1  0.50823241  0.46373934  0.47064386  1
  Na  Na31  1  0.48306494  0.02263721  0.08486345  1
  Na  Na32  1  1.03366291  -0.01898173  0.41077630  1
  Na  Na33  1  0.50902985  0.98571371  0.24658663  1
  Na  Na34  1  0.04151781  0.99209342  0.25176803  1
  Na  Na35  1  0.51082292  0.99338690  0.58076305  1
  Na  Na36  1  0.04993651  0.50297936  0.26907137  1
  Na  Na37  1  0.47743868  0.50635377  0.94103706  1
  Na  Na38  1  0.51014928  0.98947038  0.91513277  1
  Na  Na39  1  0.50904348  0.46245207  0.21780718  1
  Na  Na40  1  -0.00635245  0.50524737  0.91308441  1
  Na  Na41  1  0.00882749  0.98865026  0.59533467  1
  Na  Na42  1  0.75156785  0.74741747  0.00140096  1
  Na  Na43  1  0.23953652  0.74221972  0.66991684  1
  Na  Na44  1  0.23227922  0.73426892  0.01345686  1
  Na  Na45  1  0.75797404  0.75751979  0.65476416  1
  Na  Na46  1  0.74673570  0.25405901  0.67069453  1
  Na  Na47  1  0.74585419  0.74417032  0.34360771  1
  Na  Na48  1  0.26718130  0.25827408  0.32838056  1
  Na  Na49  1  0.27386846  0.27664107  -0.00341177  1
  Na  Na50  1  0.25888012  0.25750959  0.66010826  1
  Na  Na51  1  0.75036100  0.25181445  0.32586408  1
  Na  Na52  1  0.74875845  0.25100690  0.49997968  1
  Na  Na53  1  0.74729946  0.25336184  0.84808523  1
  Na  Na54  1  0.25762422  0.24902778  0.48675208  1
  Na  Na55  1  0.26643035  0.26705415  0.83048185  1
  Na  Na56  1  0.24838754  0.74457847  0.49626150  1
  Na  Na57  1  0.26264314  0.26108869  0.15934260  1
  Na  Na58  1  0.74759401  0.74861994  0.82845594  1
  Na  Na59  1  0.75152837  0.74710818  0.16988465  1
  Na  Na60  1  0.75895427  0.26079683  0.15182065  1
  Na  Na61  1  0.23021924  0.73880023  0.84549469  1
  Fe  Fe62  1  0.46446819  0.31286649  0.79002170  1
  Fe  Fe63  1  0.96488871  0.30920145  0.11682738  1
  Fe  Fe64  1  0.96602399  0.80743491  0.45144760  1
  Fe  Fe65  1  0.46858632  0.80442020  0.44526734  1
  Fe  Fe66  1  0.96565018  0.30833042  0.45661000  1
  Fe  Fe67  1  0.46197515  0.80557729  0.78068545  1
  Fe  Fe68  1  0.46053733  0.80594234  0.11636233  1
  Fe  Fe69  1  0.96782738  0.80422174  0.79424902  1
  Fe  Fe70  1  0.97680536  0.78885449  0.12392995  1
  Fe  Fe71  1  0.96295104  0.31035811  0.78830478  1
  Fe  Fe72  1  0.69607538  0.03459334  0.05122951  1
  Fe  Fe73  1  0.19685514  0.03919500  0.71846911  1
  Fe  Fe74  1  0.69311237  0.53712232  0.38017591  1
  Fe  Fe75  1  0.68870972  0.53432472  0.71130014  1
  Fe  Fe76  1  0.18854077  0.03600438  0.04383164  1
  Fe  Fe77  1  0.69384859  0.03407821  0.38079525  1
  Fe  Fe78  1  0.70011469  0.53221930  0.04151817  1
  Fe  Fe79  1  0.19560913  0.53153459  0.04295423  1
  Fe  Fe80  1  0.18977486  0.53323607  0.71465767  1
  Fe  Fe81  1  0.69571754  0.03585640  0.71710903  1
  Fe  Fe82  1  0.53026090  0.68990767  0.87478838  1
  Fe  Fe83  1  0.03716019  0.18719244  0.54578675  1
  Fe  Fe84  1  0.03580545  0.69391259  0.55015450  1
  Fe  Fe85  1  0.52144528  0.21201933  0.21207963  1
  Fe  Fe86  1  0.03450809  0.19365798  0.88270790  1
  Fe  Fe87  1  0.53026929  0.20135932  0.54321184  1
  Fe  Fe88  1  0.52964173  0.68766116  0.20938549  1
  Fe  Fe89  1  0.53994257  0.19665255  0.88675084  1
  Fe  Fe90  1  0.03639610  0.19248693  0.21713420  1
  Fe  Fe91  1  0.53793768  0.69174447  0.54465907  1
  Fe  Fe92  1  0.80897479  0.96590847  0.28756054  1
  Fe  Fe93  1  0.81338371  0.96299290  0.62405814  1
  Fe  Fe94  1  0.30811275  0.46464022  0.62003021  1
  Fe  Fe95  1  0.80711289  0.96286217  0.95411944  1
  Fe  Fe96  1  0.30584827  0.96834440  0.94980700  1
  Fe  Fe97  1  0.29875941  0.96304830  0.28386230  1
  Fe  Fe98  1  0.30535326  0.96591421  0.61161042  1
  Fe  Fe99  1  0.29855332  0.46886356  0.29234823  1
  Fe  Fe100  1  0.80772838  0.46502481  0.61972221  1
  Fe  Fe101  1  0.80848101  0.46615382  0.28518350  1
  S  S102  1  0.35615144  0.14055366  0.08311659  1
  S  S103  1  0.36097742  0.13212017  0.41566577  1
  S  S104  1  0.36466707  0.13910191  0.74923307  1
  S  S105  1  0.35901310  0.64106557  0.08162827  1
  S  S106  1  0.36742666  0.63825979  0.41763041  1
  S  S107  1  0.35457664  0.64417557  0.74969288  1
  S  S108  1  0.86202216  0.13963137  0.08482790  1
  S  S109  1  0.85847919  0.14183655  0.41910239  1
  S  S110  1  0.85959143  0.14079364  0.75167362  1
  S  S111  1  0.85767554  0.64317204  0.08358379  1
  S  S112  1  0.85980055  0.64004520  0.41810880  1
  S  S113  1  0.85374021  0.64114602  0.74587060  1
  S  S114  1  0.13981690  0.35433274  0.25094621  1
  S  S115  1  0.14007853  0.35617352  0.58386295  1
  S  S116  1  0.13968961  0.35723134  0.91615599  1
  S  S117  1  0.13881734  0.85769652  0.24604409  1
  S  S118  1  0.13974719  0.86385119  0.58591364  1
  S  S119  1  0.14280854  0.86260803  0.91662756  1
  S  S120  1  0.64526043  0.36123524  0.24965862  1
  S  S121  1  0.64284663  0.36096570  0.58303180  1
  S  S122  1  0.64091607  0.36234068  0.91599933  1
  S  S123  1  0.63971508  0.85841394  0.24848321  1
  S  S124  1  0.63956349  0.86385098  0.58482837  1
  S  S125  1  0.63610667  0.86091794  0.91563200  1
  S  S126  1  0.06545139  0.16915464  0.04430045  1
  S  S127  1  0.06103159  0.16537655  0.37718398  1
  S  S128  1  0.06961998  0.17165924  0.71115161  1
  S  S129  1  0.06170483  0.66327431  0.03418358  1
  S  S130  1  0.05815543  0.66589265  0.38298297  1
  S  S131  1  0.06601367  0.67548488  0.71156554  1
  S  S132  1  0.56741663  0.16095009  0.04355070  1
  S  S133  1  0.57105922  0.16726624  0.37162212  1
  S  S134  1  0.56949198  0.16798685  0.70741854  1
  S  S135  1  0.56807479  0.67254804  0.04251737  1
  S  S136  1  0.57352620  0.67367843  0.37391681  1
  S  S137  1  0.56522496  0.67323475  0.70695520  1
  S  S138  1  0.32110514  0.43411280  0.12642217  1
  S  S139  1  0.32148862  0.42573190  0.45347585  1
  S  S140  1  0.33094452  0.43745766  0.78976268  1
  S  S141  1  0.33084157  0.93340332  0.12201151  1
  S  S142  1  0.33648496  0.92430083  0.45666323  1
  S  S143  1  0.33362794  0.93613375  0.78894324  1
  S  S144  1  0.83284006  0.43564126  0.12784356  1
  S  S145  1  0.82872598  0.43173344  0.45560051  1
  S  S146  1  0.83029462  0.43680130  0.78969401  1
  S  S147  1  0.83165761  0.93325956  0.12609300  1
  S  S148  1  0.83367372  0.93503334  0.45969713  1
  S  S149  1  0.82654838  0.92796561  0.79037372  1
  S  S150  1  0.43147681  0.33697537  0.29480177  1
  S  S151  1  0.42845232  0.32384419  0.62307810  1
  S  S152  1  0.43883421  0.32656371  0.95494826  1
  S  S153  1  0.43885299  0.83646157  0.29166798  1
  S  S154  1  0.43333568  0.83291341  0.62256002  1
  S  S155  1  0.43133137  0.83335709  0.95601642  1
  S  S156  1  0.93283938  0.32801400  0.29181612  1
  S  S157  1  0.93271400  0.32949219  0.62524478  1
  S  S158  1  0.93838130  0.33531535  0.95803633  1
  S  S159  1  0.93323799  0.83514930  0.29182817  1
  S  S160  1  0.93352634  0.83018770  0.62706792  1
  S  S161  1  0.92521996  0.82631733  0.96067842  1
  S  S162  1  0.17144059  0.06892330  0.20696418  1
  S  S163  1  0.16999433  0.06262292  0.54548245  1
  S  S164  1  0.17588219  0.07724705  0.87983736  1
  S  S165  1  0.16600696  0.55822356  0.20194491  1
  S  S166  1  0.16696219  0.56370783  0.54667457  1
  S  S167  1  0.16432773  0.56182053  0.87610815  1
  S  S168  1  0.66696404  0.06312703  0.20903298  1
  S  S169  1  0.66995336  0.06817205  0.54324176  1
  S  S170  1  0.67038902  0.06666667  0.87620810  1
  S  S171  1  0.67359192  0.56941432  0.20833615  1
  S  S172  1  0.67190245  0.56614454  0.54253335  1
  S  S173  1  0.66595493  0.57377523  0.87341612  1
  O  O174  1  0.36280997  0.21672640  0.07340786  1
  O  O175  1  0.36744747  0.20616920  0.40081539  1
  O  O176  1  0.37207317  0.21825299  0.74171706  1
  O  O177  1  0.36571954  0.72226295  0.07485091  1
  O  O178  1  0.38313211  0.71325730  0.40437621  1
  O  O179  1  0.36458081  0.72383692  0.74173946  1
  O  O180  1  0.87008987  0.21894171  0.07862187  1
  O  O181  1  0.86464656  0.22213942  0.41285719  1
  O  O182  1  0.86806061  0.21866923  0.74086131  1
  O  O183  1  0.87022350  0.72702541  0.08246272  1
  O  O184  1  0.86928744  0.71933394  0.41073839  1
  O  O185  1  0.86514100  0.72135223  0.74028955  1
  O  O186  1  0.27793480  0.12658538  0.09132963  1
  O  O187  1  0.28972093  0.12058591  0.43356319  1
  O  O188  1  0.28813738  0.13185645  0.76251165  1
  O  O189  1  0.27553396  0.62890757  0.08064787  1
  O  O190  1  0.29934623  0.63888811  0.44250875  1
  O  O191  1  0.27517328  0.63691865  0.75792430  1
  O  O192  1  0.78419555  0.12946180  0.09547620  1
  O  O193  1  0.78031169  0.13047390  0.42883225  1
  O  O194  1  0.78031574  0.13288054  0.76052122  1
  O  O195  1  0.77439012  0.63747108  0.08481523  1
  O  O196  1  0.78073573  0.63072813  0.42509958  1
  O  O197  1  0.77100849  0.63262863  0.74633610  1
  O  O198  1  0.13290016  0.27417188  0.25822083  1
  O  O199  1  0.12942738  0.27610594  0.59049970  1
  O  O200  1  0.12672941  0.28221066  0.93149438  1
  O  O201  1  0.13254660  0.78113886  0.25410929  1
  O  O202  1  0.13223823  0.78496455  0.59419622  1
  O  O203  1  0.14308988  0.78475797  0.92405315  1
  O  O204  1  0.62941496  0.28281301  0.25759319  1
  O  O205  1  0.63120026  0.28022382  0.58817645  1
  O  O206  1  0.63174773  0.28373801  0.92666889  1
  O  O207  1  0.63030797  0.77823270  0.25273863  1
  O  O208  1  0.62971235  0.78589977  0.59464160  1
  O  O209  1  0.62607215  0.78263432  0.92406684  1
  O  O210  1  0.22249953  0.36468095  0.24866666  1
  O  O211  1  0.21945116  0.36325489  0.57627541  1
  O  O212  1  0.21684626  0.36097191  0.90736398  1
  O  O213  1  0.21290149  0.87357064  0.23048330  1
  O  O214  1  0.21769658  0.87242905  0.57555197  1
  O  O215  1  0.21755586  0.87955476  0.90077359  1
  O  O216  1  0.72888401  0.36491715  0.25056171  1
  O  O217  1  0.72525800  0.36646722  0.57955779  1
  O  O218  1  0.71495911  0.37255304  0.90334100  1
  O  O219  1  0.71826382  0.86914823  0.23982262  1
  O  O220  1  0.71892610  0.87374577  0.57920144  1
  O  O221  1  0.71441599  0.86933670  0.90632821  1
  O  O222  1  0.41587405  0.13397200  0.15278573  1
  O  O223  1  0.42929346  0.12524936  0.48085657  1
  O  O224  1  0.42685291  0.12674790  0.81347419  1
  O  O225  1  0.41126041  0.64068302  0.15649302  1
  O  O226  1  0.43573717  0.62217859  0.47531554  1
  O  O227  1  0.41244442  0.63900262  0.81957709  1
  O  O228  1  0.92240170  0.12894223  0.15119388  1
  O  O229  1  0.91847656  0.13331117  0.48616913  1
  O  O230  1  0.91816585  0.13410512  0.81982125  1
  O  O231  1  0.91080137  0.63316142  0.15187872  1
  O  O232  1  0.91875200  0.63015044  0.48539570  1
  O  O233  1  0.90836546  0.62983187  0.81240754  1
  O  O234  1  0.36907157  0.07879967  0.01757694  1
  O  O235  1  0.36872028  0.06770379  0.34848982  1
  O  O236  1  0.36925237  0.08061365  0.67875494  1
  O  O237  1  0.37663407  0.58526628  0.01966293  1
  O  O238  1  0.35738983  0.57642121  0.34368433  1
  O  O239  1  0.36226905  0.58582778  0.68200677  1
  O  O240  1  0.86838909  0.08059535  0.01574611  1
  O  O241  1  0.86410801  0.08512794  0.34915130  1
  O  O242  1  0.86510562  0.08065930  0.68311298  1
  O  O243  1  0.86687037  0.58871966  0.01575343  1
  O  O244  1  0.86798602  0.58121029  0.34998320  1
  O  O245  1  0.86389123  0.58350312  0.67680675  1
  O  O246  1  0.08529490  0.35844193  0.17860662  1
  O  O247  1  0.08171333  0.36443431  0.51563968  1
  O  O248  1  0.07912731  0.36320237  0.84741978  1
  O  O249  1  0.07472660  0.86430884  0.17552535  1
  O  O250  1  0.07809259  0.87449270  0.52091786  1
  O  O251  1  0.07833056  0.86977703  0.85169690  1
  O  O252  1  0.59377068  0.37096027  0.18083159  1
  O  O253  1  0.58882641  0.37196802  0.51612788  1
  O  O254  1  0.57666200  0.36853204  0.84936655  1
  O  O255  1  0.57931752  0.87075534  0.18283265  1
  O  O256  1  0.58096933  0.87149632  0.51616410  1
  O  O257  1  0.57615862  0.87097682  0.84858813  1
  O  O258  1  0.12533988  0.41193083  0.31410904  1
  O  O259  1  0.13278909  0.41390748  0.65242439  1
  O  O260  1  0.13172770  0.42127712  0.98217674  1
  O  O261  1  0.12857736  0.91926639  0.31076651  1
  O  O262  1  0.13403442  0.92278659  0.65579519  1
  O  O263  1  0.13802920  0.92099013  0.98692686  1
  O  O264  1  0.63586230  0.42147678  0.31710563  1
  O  O265  1  0.63670526  0.41715944  0.65345388  1
  O  O266  1  0.63370963  0.42232437  0.98455273  1
  O  O267  1  0.63412803  0.91627172  0.31874632  1
  O  O268  1  0.62821517  0.92437830  0.65111583  1
  O  O269  1  0.62913871  0.92112770  0.98387190  1
  O  O270  1  0.02743007  0.19925674  0.10444449  1
  O  O271  1  0.02439024  0.20234855  0.43806202  1
  O  O272  1  0.03121460  0.19988185  0.77033302  1
  O  O273  1  0.03035390  0.69006663  0.09978168  1
  O  O274  1  0.02795444  0.71047136  0.44858636  1
  O  O275  1  0.02813643  0.70280709  0.77017570  1
  O  O276  1  0.53061754  0.18180695  0.10297632  1
  O  O277  1  0.54135842  0.19262841  0.43525126  1
  O  O278  1  0.53577496  0.19711079  0.76957200  1
  O  O279  1  0.53010539  0.70159400  0.10300054  1
  O  O280  1  0.54384263  0.70720144  0.43950827  1
  O  O281  1  0.52616482  0.70294707  0.76706659  1
  O  O282  1  0.28925498  0.47560755  0.07001003  1
  O  O283  1  0.29740023  0.46582394  0.39463034  1
  O  O284  1  0.29671357  0.47055897  0.72554594  1
  O  O285  1  0.30307001  0.96987222  0.06102566  1
  O  O286  1  0.30546574  0.94850335  0.39014226  1
  O  O287  1  0.30417800  0.97166696  0.72742936  1
  O  O288  1  0.80417328  0.47345923  0.06972643  1
  O  O289  1  0.79949870  0.47056673  0.39639739  1
  O  O290  1  0.79892081  0.47154590  0.72620454  1
  O  O291  1  0.79828556  0.96895197  0.06380786  1
  O  O292  1  0.80299667  0.97155450  0.39858674  1
  O  O293  1  0.79818820  0.96894721  0.73159111  1
  O  O294  1  0.46572194  0.31546593  0.23186284  1
  O  O295  1  0.46573027  0.29653084  0.56417182  1
  O  O296  1  0.46969019  0.28780344  0.88808734  1
  O  O297  1  0.47247376  0.80230271  0.22868655  1
  O  O298  1  0.46791267  0.80005179  0.56117595  1
  O  O299  1  0.46694711  0.80308407  0.89465704  1
  O  O300  1  0.96982568  0.30010937  0.23107495  1
  O  O301  1  0.96835364  0.29946141  0.56373030  1
  O  O302  1  0.96958322  0.29519288  0.89353355  1
  O  O303  1  0.96519052  0.81107582  0.22926509  1
  O  O304  1  0.96992279  0.79946882  0.56589304  1
  O  O305  1  0.96042850  0.80586439  0.90053862  1
  O  O306  1  0.20131295  0.03572556  0.26812310  1
  O  O307  1  0.20531656  0.03510244  0.61359431  1
  O  O308  1  0.20468877  0.03927497  0.94010932  1
  O  O309  1  0.19773773  0.51536360  0.25861569  1
  O  O310  1  0.20038900  0.53047646  0.61110208  1
  O  O311  1  0.19602716  0.52781027  0.93782551  1
  O  O312  1  0.70104853  0.02890040  0.27173785  1
  O  O313  1  0.70056580  0.03241483  0.60438828  1
  O  O314  1  0.70123447  0.03158323  0.93804306  1
  O  O315  1  0.70341725  0.53035027  0.26815958  1
  O  O316  1  0.69995818  0.52587176  0.60082303  1
  O  O317  1  0.69141782  0.54160943  0.93548540  1
  O  O318  1  0.08159843  0.08728012  0.04059998  1
  O  O319  1  0.06963964  0.08387630  0.37402356  1
  O  O320  1  0.08912422  0.09039284  0.70579980  1
  O  O321  1  0.09554672  0.58667965  0.03714255  1
  O  O322  1  0.06332728  0.58554299  0.38661484  1
  O  O323  1  0.08808774  0.59554286  0.70971448  1
  O  O324  1  0.58587697  0.07666563  0.03312408  1
  O  O325  1  0.58486633  0.08175935  0.35870270  1
  O  O326  1  0.58506300  0.08388202  0.70177600  1
  O  O327  1  0.58967593  0.59292013  0.03844674  1
  O  O328  1  0.59060621  0.59220814  0.36877392  1
  O  O329  1  0.58742496  0.59485937  0.70485567  1
  O  O330  1  0.39852991  0.41524475  0.12525370  1
  O  O331  1  0.39897676  0.40178257  0.46151516  1
  O  O332  1  0.40944148  0.41407071  0.78867789  1
  O  O333  1  0.41490832  0.91825250  0.12850725  1
  O  O334  1  0.42233134  0.91274335  0.46706687  1
  O  O335  1  0.41657844  0.91938244  0.79397048  1
  O  O336  1  0.91419874  0.41482669  0.13105098  1
  O  O337  1  0.90932818  0.41235153  0.45774782  1
  O  O338  1  0.91045498  0.41370080  0.78875102  1
  O  O339  1  0.91320142  0.91891104  0.13157228  1
  O  O340  1  0.91594005  0.91804190  0.46500455  1
  O  O341  1  0.90367621  0.90362789  0.79093009  1
  O  O342  1  0.39801577  0.41373573  0.29763128  1
  O  O343  1  0.40529330  0.40289467  0.62755838  1
  O  O344  1  0.41833946  0.40305628  0.95007887  1
  O  O345  1  0.42305350  0.91856344  0.29328377  1
  O  O346  1  0.41979278  0.91663301  0.62815908  1
  O  O347  1  0.41770692  0.91717862  0.96216065  1
  O  O348  1  0.91508149  0.41001057  0.30003218  1
  O  O349  1  0.91425488  0.41077085  0.63094419  1
  O  O350  1  0.93496253  0.41775294  0.96368137  1
  O  O351  1  0.91483277  0.91875503  0.30346931  1
  O  O352  1  0.91754826  0.91250869  0.62890364  1
  O  O353  1  0.90906102  0.91081589  0.97714054  1
  O  O354  1  0.08749297  0.08496609  0.20124309  1
  O  O355  1  0.08712868  0.07909849  0.54266231  1
  O  O356  1  0.09598596  0.09635938  0.87516629  1
  O  O357  1  0.08352301  0.56488297  0.19674257  1
  O  O358  1  0.08976818  0.59120843  0.55065181  1
  O  O359  1  0.08103533  0.56977823  0.86431123  1
  O  O360  1  0.58460582  0.07570150  0.20356669  1
  O  O361  1  0.58737960  0.08329344  0.53656758  1
  O  O362  1  0.58781333  0.08324077  0.87180072  1
  O  O363  1  0.59220477  0.58629670  0.20520046  1
  O  O364  1  0.59151995  0.58622157  0.53990076  1
  O  O365  1  0.58340641  0.59184521  0.86236494  1
  O  O366  1  0.13741237  0.21955863  0.06107291  1
  O  O367  1  0.13467613  0.21298916  0.39292604  1
  O  O368  1  0.14032364  0.22445991  0.72711329  1
  O  O369  1  0.12305458  0.72220655  0.04284139  1
  O  O370  1  0.13505372  0.70778733  0.39852846  1
  O  O371  1  0.13643017  0.72976672  0.72734887  1
  O  O372  1  0.63797320  0.21317737  0.06065113  1
  O  O373  1  0.64467816  0.21565034  0.38576075  1
  O  O374  1  0.64263613  0.21698031  0.72289188  1
  O  O375  1  0.63705044  0.72864997  0.05958155  1
  O  O376  1  0.64298464  0.72464920  0.38449328  1
  O  O377  1  0.63412601  0.72953503  0.72458532  1
  O  O378  1  0.26663776  0.36240691  0.10722409  1
  O  O379  1  0.26291909  0.35700088  0.43333022  1
  O  O380  1  0.27734415  0.36661708  0.77483619  1
  O  O381  1  0.28122523  0.86116025  0.10450818  1
  O  O382  1  0.29195704  0.85373572  0.45285223  1
  O  O383  1  0.28281445  0.86524033  0.77424251  1
  O  O384  1  0.77996166  0.36629793  0.11510592  1
  O  O385  1  0.77551554  0.36048287  0.43808651  1
  O  O386  1  0.77719773  0.36618698  0.77408131  1
  O  O387  1  0.77952158  0.86192247  0.11002535  1
  O  O388  1  0.78213257  0.86412500  0.44358254  1
  O  O389  1  0.76837240  0.86003517  0.77181312  1
  O  O390  1  0.36672190  0.27543575  0.27770687  1
  O  O391  1  0.35801706  0.26789768  0.60580099  1
  O  O392  1  0.36730575  0.27340326  0.93943967  1
  O  O393  1  0.36916168  0.78880881  0.28286411  1
  O  O394  1  0.36060341  0.78547161  0.60988503  1
  O  O395  1  0.35858530  0.78467715  0.94050825  1
  O  O396  1  0.86160553  0.27422248  0.27314406  1
  O  O397  1  0.86134209  0.27638455  0.60845687  1
  O  O398  1  0.86375646  0.29034263  0.94417940  1
  O  O399  1  0.86288771  0.78325928  0.27884236  1
  O  O400  1  0.86101414  0.78071654  0.61046837  1
  O  O401  1  0.85127806  0.77564454  0.94018268  1
  O  O402  1  0.22014922  0.14076101  0.21857626  1
  O  O403  1  0.21762786  0.13519078  0.55723749  1
  O  O404  1  0.23029483  0.14644101  0.89528198  1
  O  O405  1  0.21420903  0.63093083  0.22139737  1
  O  O406  1  0.22210009  0.63184739  0.55899001  1
  O  O407  1  0.21295974  0.63693029  0.89440542  1
  O  O408  1  0.71637246  0.13544320  0.22330733  1
  O  O409  1  0.72081268  0.14036245  0.55922678  1
  O  O410  1  0.72083435  0.13676046  0.88865604  1
  O  O411  1  0.72582395  0.64228954  0.22851665  1
  O  O412  1  0.72542274  0.63599782  0.55970889  1
  O  O413  1  0.71793712  0.64542570  0.88772754  1
  O  O414  1  0.49933780  0.32805768  0.02354632  1
  O  O415  1  0.49376409  0.34786838  0.36602392  1
  O  O416  1  0.48703173  0.32611962  0.69656605  1
  O  O417  1  0.49030468  0.83431179  0.02854533  1
  O  O418  1  0.50236669  0.84270485  0.36406675  1
  O  O419  1  0.49285217  0.83580418  0.69573863  1
  O  O420  1  0.99617608  0.32914593  0.02890157  1
  O  O421  1  0.99120180  0.32863168  0.36438485  1
  O  O422  1  0.99188906  0.32972063  0.69681711  1
  O  O423  1  0.98255413  0.81937868  0.03107655  1
  O  O424  1  0.99524286  0.83745863  0.36377380  1
  O  O425  1  0.99141790  0.83311738  0.70003365  1
  O  O426  1  0.16565012  0.00850838  0.13318923  1
  O  O427  1  0.16696577  -0.00163105  0.47846756  1
  O  O428  1  0.17443514  0.01621044  0.80786402  1
  O  O429  1  0.16678813  0.50367861  0.12579841  1
  O  O430  1  0.15352853  0.50095022  0.47610131  1
  O  O431  1  0.17235394  0.50634051  0.80462486  1
  O  O432  1  0.66768019  0.00334168  0.13751776  1
  O  O433  1  0.66927954  0.00911058  0.47053512  1
  O  O434  1  0.66498809  0.00542755  0.80323755  1
  O  O435  1  0.67374740  0.51334521  0.13586546  1
  O  O436  1  0.66646448  0.50759932  0.46829639  1
  O  O437  1  0.66833937  0.51345039  0.80288674  1
  O  O438  1  0.00424262  0.16612121  0.30348844  1
  O  O439  1  0.01025648  0.16755965  0.63740730  1
  O  O440  1  0.00683421  0.16681051  0.97150576  1
  O  O441  1  0.00185136  0.66711884  0.31267507  1
  O  O442  1  0.00760452  0.67077714  0.63743914  1
  O  O443  1  -0.00378864  0.64422913  0.96421952  1
  O  O444  1  0.51100356  0.17144577  0.30163630  1
  O  O445  1  0.51086809  0.16472151  0.63456840  1
  O  O446  1  0.50898477  0.15826498  0.96984876  1
  O  O447  1  0.50937325  0.67149510  0.30419977  1
  O  O448  1  0.50626008  0.67049758  0.63410266  1
  O  O449  1  0.50800983  0.66859719  0.96944504  1
  O  O450  1  0.32373252  0.48824858  0.20267829  1
  O  O451  1  0.31917465  0.48471243  0.52561913  1
  O  O452  1  0.33952744  0.49868704  0.86056547  1
  O  O453  1  0.33236477  0.99174112  0.19465833  1
  O  O454  1  0.33837103  0.99018207  0.52661062  1
  O  O455  1  0.33807613  0.99616315  0.86206484  1
  O  O456  1  0.84036370  0.49455197  0.20344013  1
  O  O457  1  0.83202855  0.48917329  0.52901237  1
  O  O458  1  0.83902195  0.49685887  0.86073432  1
  O  O459  1  0.83061204  0.99312578  0.19753642  1
  O  O460  1  0.83649454  0.99409044  0.53281259  1
  O  O461  1  0.83103477  0.98671845  0.86408309  1
