# generated using pymatgen
data_Na31Fe20(SO4)36
_symmetry_space_group_name_H-M   'P 1'
_cell_length_a   18.07801592
_cell_length_b   18.08567233
_cell_length_c   19.71881037
_cell_angle_alpha   107.60092936
_cell_angle_beta   107.58020801
_cell_angle_gamma   90.71414387
_symmetry_Int_Tables_number   1
_chemical_formula_structural   Na31Fe20(SO4)36
_chemical_formula_sum   'Na62 Fe40 S72 O288'
_cell_volume   5819.94608715
_cell_formula_units_Z   2
loop_
 _symmetry_equiv_pos_site_id
 _symmetry_equiv_pos_as_xyz
  1  'x, y, z'
loop_
 _atom_site_type_symbol
 _atom_site_label
 _atom_site_symmetry_multiplicity
 _atom_site_fract_x
 _atom_site_fract_y
 _atom_site_fract_z
 _atom_site_occupancy
  Na  Na0  1  0.13583106  0.36464215  0.08162648  1
  Na  Na1  1  0.13784414  0.37214371  0.42296456  1
  Na  Na2  1  0.13820491  0.37120931  0.74942447  1
  Na  Na3  1  0.11045693  0.84919590  0.05516743  1
  Na  Na4  1  0.13323906  0.86661567  0.41438962  1
  Na  Na5  1  0.13075813  0.85090687  0.74045282  1
  Na  Na6  1  0.63829545  0.36581403  0.08824860  1
  Na  Na7  1  0.63758089  0.36960329  0.41949072  1
  Na  Na8  1  0.64445958  0.36659959  0.74614859  1
  Na  Na9  1  0.64815609  0.85290016  0.09081910  1
  Na  Na10  1  0.62227259  0.86103637  0.40426218  1
  Na  Na11  1  0.62898646  0.87776758  0.75988636  1
  Na  Na12  1  0.36618341  0.13358489  0.25025053  1
  Na  Na13  1  0.35742877  0.13647402  0.58420121  1
  Na  Na14  1  0.36953398  0.12028373  0.91047167  1
  Na  Na15  1  0.37097621  0.64131059  0.25446887  1
  Na  Na16  1  0.37061140  0.62750082  0.58351328  1
  Na  Na17  1  0.35764112  0.62877505  0.90577190  1
  Na  Na18  1  0.85827917  0.13868760  0.24491084  1
  Na  Na19  1  0.86848189  0.13188077  0.58671052  1
  Na  Na20  1  0.86291645  0.12287997  0.91037568  1
  Na  Na21  1  0.86114003  0.64517165  0.25354360  1
  Na  Na22  1  0.88028211  0.64351114  0.60387048  1
  Na  Na23  1  0.85122447  0.63714428  0.90072073  1
  Na  Na24  1  1.01569017  -0.04305321  0.51570401  1
  Na  Na25  1  1.02278181  0.58883826  0.77328441  1
  Na  Na26  1  0.98506774  0.51544087  0.07740198  1
  Na  Na27  1  1.00850841  -0.04735723  0.80445008  1
  Na  Na28  1  0.98816436  0.51579206  0.42295329  1
  Na  Na29  1  0.49286637  0.55105680  0.10117248  1
  Na  Na30  1  0.95812739  0.00707300  0.05898738  1
  Na  Na31  1  0.52736415  -0.01470363  0.05106802  1
  Na  Na32  1  0.49431955  0.50687948  0.74688435  1
  Na  Na33  1  0.00265319  0.98987820  0.26584729  1
  Na  Na34  1  0.55547844  0.50123447  0.59429167  1
  Na  Na35  1  0.50638376  0.50146877  0.26479249  1
  Na  Na36  1  0.50998848  0.49043920  0.91833842  1
  Na  Na37  1  0.50132139  0.97833961  0.26119184  1
  Na  Na38  1  0.00729685  0.49210719  0.24785011  1
  Na  Na39  1  0.46094332  1.01208165  0.63482198  1
  Na  Na40  1  -0.01939510  0.53203086  0.89330479  1
  Na  Na41  1  0.01580953  0.47089899  0.59588629  1
  Na  Na42  1  0.75517068  0.75812996  -0.00446278  1
  Na  Na43  1  0.25759650  0.75313087  0.66190909  1
  Na  Na44  1  0.75668002  0.76176523  0.31942424  1
  Na  Na45  1  0.74074975  0.24141420  0.01157293  1
  Na  Na46  1  0.24146235  0.24455010  0.33840562  1
  Na  Na47  1  0.24391294  0.74902345  -0.00501791  1
  Na  Na48  1  0.77542018  0.76467589  0.66835990  1
  Na  Na49  1  0.25827544  0.25393527  -0.00844130  1
  Na  Na50  1  0.75739940  0.25847156  0.32419628  1
  Na  Na51  1  0.25555922  0.75851072  0.33249595  1
  Na  Na52  1  0.76020671  0.75776552  0.49112060  1
  Na  Na53  1  0.25058439  0.24850824  0.16587003  1
  Na  Na54  1  0.75320228  0.25089910  0.83108881  1
  Na  Na55  1  0.22794100  0.73329248  0.82865785  1
  Na  Na56  1  0.26078321  0.76047895  0.49942746  1
  Na  Na57  1  0.24736271  0.75575745  0.15911943  1
  Na  Na58  1  0.74166296  0.24065044  0.51306011  1
  Na  Na59  1  0.24010113  0.24228182  0.51631693  1
  Na  Na60  1  0.76363684  0.76395791  0.82421968  1
  Na  Na61  1  0.26031593  0.25500388  0.81632586  1
  Fe  Fe62  1  0.46436465  0.30653369  0.78181866  1
  Fe  Fe63  1  0.96669315  0.30555287  0.78436598  1
  Fe  Fe64  1  0.46397451  0.31073519  0.45281233  1
  Fe  Fe65  1  0.46389216  0.80711233  0.78695480  1
  Fe  Fe66  1  0.96511433  0.30653550  0.45113964  1
  Fe  Fe67  1  0.96456972  0.30928426  0.11536717  1
  Fe  Fe68  1  0.46671210  0.30525785  0.11910604  1
  Fe  Fe69  1  0.46827395  0.80665663  0.45704505  1
  Fe  Fe70  1  0.46719113  0.79669315  0.12266730  1
  Fe  Fe71  1  0.95863508  0.81060719  0.11958488  1
  Fe  Fe72  1  0.19934072  0.02787186  0.70859977  1
  Fe  Fe73  1  0.18948745  0.03451462  0.04303572  1
  Fe  Fe74  1  0.68919092  0.03873536  0.38165285  1
  Fe  Fe75  1  0.18422661  0.53432592  0.04222618  1
  Fe  Fe76  1  0.19390088  0.53706711  0.38069992  1
  Fe  Fe77  1  0.69522732  0.53587939  0.38305482  1
  Fe  Fe78  1  0.68940821  0.03506575  0.70978721  1
  Fe  Fe79  1  0.70095849  0.03340911  0.04139649  1
  Fe  Fe80  1  0.69108180  0.53719089  0.05216440  1
  Fe  Fe81  1  0.19663416  0.03548091  0.38341306  1
  Fe  Fe82  1  0.03548468  0.18577200  0.87399798  1
  Fe  Fe83  1  0.03602257  0.18943053  0.54630729  1
  Fe  Fe84  1  0.53651035  0.18952322  0.21130963  1
  Fe  Fe85  1  0.03401175  0.19349651  0.21049653  1
  Fe  Fe86  1  0.54086959  0.68874720  0.54971200  1
  Fe  Fe87  1  0.53677918  0.68996498  0.88176927  1
  Fe  Fe88  1  0.03193022  0.69939988  0.21748340  1
  Fe  Fe89  1  0.53542665  0.19087515  0.54564216  1
  Fe  Fe90  1  0.02986729  0.70657291  0.54110331  1
  Fe  Fe91  1  0.53219205  0.19190424  0.87890820  1
  Fe  Fe92  1  0.80855431  0.46183121  0.28384821  1
  Fe  Fe93  1  0.30806698  0.46433260  0.95092797  1
  Fe  Fe94  1  0.80374010  0.46677881  0.62635989  1
  Fe  Fe95  1  0.30900555  0.96068961  0.95452016  1
  Fe  Fe96  1  0.29519571  0.47047949  0.62064222  1
  Fe  Fe97  1  0.80254505  0.46769604  0.94776353  1
  Fe  Fe98  1  0.80962680  0.96442110  0.61966193  1
  Fe  Fe99  1  0.30923152  0.96716009  0.29084685  1
  Fe  Fe100  1  0.31008476  0.46574923  0.28844301  1
  Fe  Fe101  1  0.80815920  0.96586126  0.28906150  1
  S  S102  1  0.36005795  0.13852056  0.08250445  1
  S  S103  1  0.35909415  0.14527084  0.41758308  1
  S  S104  1  0.36185219  0.14266177  0.74902839  1
  S  S105  1  0.35214825  0.63931188  0.08340708  1
  S  S106  1  0.36102463  0.63925616  0.41586086  1
  S  S107  1  0.36221688  0.63786334  0.75178632  1
  S  S108  1  0.86021374  0.14808657  0.08438887  1
  S  S109  1  0.85840481  0.14356640  0.41627900  1
  S  S110  1  0.86013207  0.14111955  0.74878420  1
  S  S111  1  0.85717955  0.63973638  0.08567653  1
  S  S112  1  0.86088622  0.63841573  0.41359251  1
  S  S113  1  0.86202777  0.63385804  0.75291909  1
  S  S114  1  0.14007957  0.36098761  0.24763731  1
  S  S115  1  0.13818427  0.35654747  0.57979555  1
  S  S116  1  0.14154353  0.35515573  0.91646925  1
  S  S117  1  0.13867101  0.86336075  0.24806226  1
  S  S118  1  0.14975741  0.85687952  0.58473537  1
  S  S119  1  0.14319892  0.86184532  0.91730336  1
  S  S120  1  0.63992495  0.35943375  0.25211871  1
  S  S121  1  0.63891562  0.35651442  0.57797051  1
  S  S122  1  0.63857320  0.36023024  0.91863159  1
  S  S123  1  0.63714133  0.86425366  0.24965334  1
  S  S124  1  0.64168397  0.85712390  0.58296955  1
  S  S125  1  0.63579858  0.85934674  0.92197653  1
  S  S126  1  0.06825394  0.17242722  0.04247034  1
  S  S127  1  0.06845059  0.17274271  0.37446888  1
  S  S128  1  0.07358728  0.17184890  0.71027600  1
  S  S129  1  0.05897657  0.66621594  0.04520022  1
  S  S130  1  0.06895752  0.66910501  0.37452317  1
  S  S131  1  0.08110255  0.66914588  0.69454635  1
  S  S132  1  0.56958425  0.17167828  0.04302231  1
  S  S133  1  0.56451404  0.17200165  0.37443616  1
  S  S134  1  0.56699258  0.17455649  0.70910332  1
  S  S135  1  0.56189774  0.66422525  0.03987045  1
  S  S136  1  0.56659889  0.66750115  0.37844436  1
  S  S137  1  0.56732893  0.66794202  0.71342269  1
  S  S138  1  0.33249538  0.43169091  0.12508116  1
  S  S139  1  0.32690361  0.43201176  0.45635137  1
  S  S140  1  0.33504666  0.43168585  0.79227562  1
  S  S141  1  0.33044001  0.92968367  0.12598145  1
  S  S142  1  0.33082297  0.93392575  0.45829881  1
  S  S143  1  0.32817280  0.92901231  0.79208122  1
  S  S144  1  0.83254638  0.43626118  0.12428788  1
  S  S145  1  0.83287089  0.43289682  0.45972660  1
  S  S146  1  0.83217776  0.42462915  0.79408984  1
  S  S147  1  0.83365347  0.94187391  0.12908145  1
  S  S148  1  0.81827054  0.93356771  0.45084309  1
  S  S149  1  0.81969901  0.93246895  0.78124749  1
  S  S150  1  0.43208605  0.32978136  0.28828632  1
  S  S151  1  0.43185307  0.33359806  0.62271305  1
  S  S152  1  0.43466497  0.33313203  0.95972889  1
  S  S153  1  0.42728192  0.82998235  0.29075164  1
  S  S154  1  0.43495226  0.81960781  0.62070412  1
  S  S155  1  0.42712092  0.82043209  0.95882950  1
  S  S156  1  0.93730056  0.33437795  0.29216751  1
  S  S157  1  0.93286886  0.32663464  0.62136237  1
  S  S158  1  0.93325929  0.33252264  0.95713679  1
  S  S159  1  0.93554099  0.83502426  0.29279875  1
  S  S160  1  0.93599658  0.83330432  0.61839211  1
  S  S161  1  0.92064667  0.82679540  0.95581416  1
  S  S162  1  0.17150323  0.06999813  0.20890801  1
  S  S163  1  0.16640432  0.06558381  0.53823488  1
  S  S164  1  0.17514724  0.06688593  0.87487274  1
  S  S165  1  0.16772725  0.56688370  0.20893647  1
  S  S166  1  0.16737147  0.57231573  0.53652486  1
  S  S167  1  0.16992574  0.56101551  0.88002007  1
  S  S168  1  0.66999122  0.06919756  0.20825208  1
  S  S169  1  0.66988888  0.06779240  0.54120248  1
  S  S170  1  0.67003530  0.07435709  0.87572007  1
  S  S171  1  0.66932915  0.56009152  0.21369266  1
  S  S172  1  0.67857895  0.56882959  0.54495207  1
  S  S173  1  0.66503638  0.56157173  0.87776577  1
  O  O174  1  0.36872564  0.21753984  0.07362478  1
  O  O175  1  0.36724047  0.22348667  0.40711383  1
  O  O176  1  0.36888511  0.22511835  0.74738578  1
  O  O177  1  0.36078094  0.71987717  0.07840668  1
  O  O178  1  0.37001135  0.71886539  0.40841637  1
  O  O179  1  0.37227875  0.71571491  0.74141068  1
  O  O180  1  0.86917216  0.23043798  0.08274706  1
  O  O181  1  0.86968000  0.22164957  0.40555771  1
  O  O182  1  0.87212963  0.21910481  0.74056810  1
  O  O183  1  0.86522631  0.71836157  0.07814082  1
  O  O184  1  0.86390304  0.71195796  0.39824798  1
  O  O185  1  0.87139311  0.70637461  0.73522112  1
  O  O186  1  0.28014501  0.12950837  0.08930876  1
  O  O187  1  0.27884021  0.13660889  0.42393182  1
  O  O188  1  0.28159380  0.12905195  0.75272177  1
  O  O189  1  0.27038286  0.62895361  0.08614580  1
  O  O190  1  0.28071462  0.63143798  0.42211892  1
  O  O191  1  0.29215602  0.63114174  0.77209685  1
  O  O192  1  0.78060746  0.13673030  0.08923287  1
  O  O193  1  0.77852883  0.13736043  0.42277883  1
  O  O194  1  0.78133518  0.13334083  0.75726965  1
  O  O195  1  0.78051653  0.62845398  0.09623207  1
  O  O196  1  0.78527135  0.62586211  0.42697423  1
  O  O197  1  0.78636603  0.62486643  0.76478872  1
  O  O198  1  0.13148715  0.28102216  0.25359102  1
  O  O199  1  0.13222614  0.27359283  0.57780751  1
  O  O200  1  0.12975847  0.27701401  0.92588402  1
  O  O201  1  0.13127675  0.78707701  0.26236293  1
  O  O202  1  0.12774083  0.77703465  0.59034385  1
  O  O203  1  0.12960700  0.78659679  0.92765468  1
  O  O204  1  0.62877719  0.28178471  0.26227383  1
  O  O205  1  0.63069305  0.27405940  0.57752117  1
  O  O206  1  0.62927852  0.28165935  0.92690521  1
  O  O207  1  0.63134807  0.79167804  0.26608595  1
  O  O208  1  0.63634440  0.77998551  0.59540449  1
  O  O209  1  0.62115127  0.78316595  0.93609206  1
  O  O210  1  0.21839898  0.37051616  0.23842540  1
  O  O211  1  0.21567126  0.37079844  0.56931837  1
  O  O212  1  0.22229210  0.36174238  0.91110829  1
  O  O213  1  0.21889397  0.87198501  0.24287087  1
  O  O214  1  0.23138213  0.85733013  0.58807090  1
  O  O215  1  0.22712040  0.86730343  0.91601734  1
  O  O216  1  0.71995792  0.36693735  0.24699203  1
  O  O217  1  0.71707711  0.36883758  0.56890156  1
  O  O218  1  0.71824997  0.36960934  0.91242399  1
  O  O219  1  0.71541910  0.87774831  0.24118180  1
  O  O220  1  0.72105820  0.86725168  0.57564730  1
  O  O221  1  0.71126291  0.86106347  0.91015796  1
  O  O222  1  0.41770770  0.13393296  0.15253266  1
  O  O223  1  0.41633897  0.14054735  0.48733099  1
  O  O224  1  0.41802010  0.13715505  0.82044815  1
  O  O225  1  0.40790123  0.62961362  0.15055709  1
  O  O226  1  0.41839299  0.62941709  0.48275846  1
  O  O227  1  0.43053491  0.62401676  0.81121216  1
  O  O228  1  0.91822859  0.13980740  0.15428501  1
  O  O229  1  0.91594140  0.13864521  0.48616027  1
  O  O230  1  0.91910370  0.13453736  0.81826585  1
  O  O231  1  0.91899059  0.63030112  0.15229484  1
  O  O232  1  0.92440011  0.63562771  0.48327805  1
  O  O233  1  0.92531314  0.62696877  0.81874393  1
  O  O234  1  0.36987738  0.07894558  0.01635639  1
  O  O235  1  0.36697850  0.08541536  0.35028769  1
  O  O236  1  0.37558352  0.08868409  0.68351137  1
  O  O237  1  0.36379340  0.58274979  0.01514533  1
  O  O238  1  0.36648558  0.58117651  0.34598167  1
  O  O239  1  0.36128337  0.57850924  0.67899419  1
  O  O240  1  0.87342348  0.09392976  0.01857367  1
  O  O241  1  0.86673290  0.08331036  0.34958529  1
  O  O242  1  0.86785277  0.08075448  0.68182159  1
  O  O243  1  0.86564652  0.58063335  0.01699035  1
  O  O244  1  0.87248227  0.57345305  0.35000447  1
  O  O245  1  0.87135658  0.56879676  0.68525943  1
  O  O246  1  0.07992412  0.37100263  0.18090730  1
  O  O247  1  0.07740888  0.36801460  0.51272412  1
  O  O248  1  0.08464204  0.36286092  0.84789526  1
  O  O249  1  0.08126177  0.86609534  0.17756304  1
  O  O250  1  0.09833477  0.86568367  0.51494145  1
  O  O251  1  0.09228263  0.87371564  0.84933928  1
  O  O252  1  0.58226466  0.36563944  0.18242157  1
  O  O253  1  0.57923562  0.36787316  0.51023706  1
  O  O254  1  0.58007206  0.36819937  0.85016922  1
  O  O255  1  0.57781866  0.86494958  0.17748541  1
  O  O256  1  0.58397264  0.85951900  0.51153780  1
  O  O257  1  0.57361492  0.86831361  0.85649783  1
  O  O258  1  0.13232040  0.41884191  0.31617841  1
  O  O259  1  0.12967666  0.41011668  0.64800204  1
  O  O260  1  0.13483649  0.41499909  0.98491878  1
  O  O261  1  0.12721227  0.92609084  0.31245142  1
  O  O262  1  0.13714044  0.91555526  0.65118944  1
  O  O263  1  0.13670658  0.92472987  0.98576181  1
  O  O264  1  0.62909521  0.42045436  0.31788546  1
  O  O265  1  0.62894158  0.41108779  0.64536503  1
  O  O266  1  0.62923232  0.41974009  0.98617204  1
  O  O267  1  0.62199531  0.92986251  0.31109635  1
  O  O268  1  0.62854840  0.91829091  0.64678801  1
  O  O269  1  0.63308782  0.92181511  0.99178948  1
  O  O270  1  0.02963558  0.20477138  0.10221966  1
  O  O271  1  0.02929441  0.19854938  0.43335576  1
  O  O272  1  0.03270232  0.19908874  0.76928031  1
  O  O273  1  0.03198133  0.70066187  0.11281998  1
  O  O274  1  0.03545173  0.69418282  0.43632608  1
  O  O275  1  0.06447846  0.70559404  0.76456999  1
  O  O276  1  0.53167603  0.20029559  0.10429172  1
  O  O277  1  0.52446864  0.19927327  0.43264793  1
  O  O278  1  0.52970821  0.20410668  0.76990989  1
  O  O279  1  0.52538869  0.69249194  0.09963234  1
  O  O280  1  0.53316102  0.69899894  0.44261525  1
  O  O281  1  0.53266842  0.70863048  0.77450778  1
  O  O282  1  0.30435669  0.46651337  0.06347833  1
  O  O283  1  0.29885163  0.46931942  0.39490293  1
  O  O284  1  0.30844060  0.46266880  0.72956990  1
  O  O285  1  0.30491389  0.96975563  0.06782177  1
  O  O286  1  0.29794897  0.96885576  0.39423786  1
  O  O287  1  0.30192814  0.97232789  0.73835812  1
  O  O288  1  0.80032808  0.47032327  0.06240915  1
  O  O289  1  0.80209355  0.46682270  0.39699710  1
  O  O290  1  0.80002089  0.44640379  0.72617917  1
  O  O291  1  0.80699896  0.98070688  0.07140452  1
  O  O292  1  0.78610408  0.97502848  0.39238191  1
  O  O293  1  0.78605884  0.97194510  0.71993731  1
  O  O294  1  0.46842956  0.29792930  0.22744234  1
  O  O295  1  0.47023500  0.30490776  0.56267694  1
  O  O296  1  0.47053024  0.30380747  0.89876490  1
  O  O297  1  0.46127186  0.80641074  0.22945006  1
  O  O298  1  0.47589155  0.78739317  0.56192988  1
  O  O299  1  0.45975206  0.79055287  0.89563912  1
  O  O300  1  0.97320117  0.30470232  0.23101323  1
  O  O301  1  0.97388172  0.29873539  0.56267463  1
  O  O302  1  0.96940424  0.30331485  0.89653073  1
  O  O303  1  0.96747303  0.80252771  0.22633117  1
  O  O304  1  0.97026207  0.80006382  0.55538785  1
  O  O305  1  0.95869570  0.80091314  0.89946586  1
  O  O306  1  0.20226160  0.03553070  0.27116978  1
  O  O307  1  0.18941008  0.03026191  0.59826935  1
  O  O308  1  0.20609908  0.03255496  0.93753549  1
  O  O309  1  0.19955372  0.53068823  0.26994378  1
  O  O310  1  0.19217409  0.53414549  0.59450931  1
  O  O311  1  0.20651146  0.52216588  0.94043043  1
  O  O312  1  0.70060029  0.03623724  0.27122031  1
  O  O313  1  0.70038662  0.03020203  0.60130263  1
  O  O314  1  0.69285962  0.03698174  0.93467700  1
  O  O315  1  0.70902897  0.52440042  0.27439389  1
  O  O316  1  0.70289481  0.53024082  0.60319391  1
  O  O317  1  0.69903691  0.53149009  0.94453351  1
  O  O318  1  0.08572842  0.09241262  0.04204681  1
  O  O319  1  0.09032354  0.09237703  0.36780847  1
  O  O320  1  0.10010105  0.09530126  0.71037303  1
  O  O321  1  0.07927792  0.58462881  0.04427349  1
  O  O322  1  0.08310824  0.58457779  0.36136657  1
  O  O323  1  0.07619444  0.58359211  0.67760051  1
  O  O324  1  0.59315095  0.09302052  0.04168632  1
  O  O325  1  0.58248110  0.09024619  0.36759917  1
  O  O326  1  0.58491475  0.09310439  0.70383402  1
  O  O327  1  0.57976439  0.58133272  0.03785032  1
  O  O328  1  0.59230824  0.58875427  0.37929010  1
  O  O329  1  0.57354715  0.58676036  0.71365057  1
  O  O330  1  0.41533084  0.41479734  0.13401136  1
  O  O331  1  0.40851319  0.41499080  0.46375510  1
  O  O332  1  0.41940125  0.41515589  0.80216592  1
  O  O333  1  0.41058739  0.90713086  0.13169265  1
  O  O334  1  0.40628110  0.90488380  0.45430813  1
  O  O335  1  0.40634524  0.90469373  0.79220973  1
  O  O336  1  0.91539289  0.42018658  0.12752256  1
  O  O337  1  0.91637949  0.41779973  0.46438571  1
  O  O338  1  0.91614119  0.40964888  0.80468921  1
  O  O339  1  0.91777820  0.92722655  0.13845144  1
  O  O340  1  0.89411131  0.91192700  0.44666081  1
  O  O341  1  0.88751547  0.89718477  0.76552093  1
  O  O342  1  0.41432098  0.41066365  0.29018853  1
  O  O343  1  0.40999769  0.41367563  0.62670964  1
  O  O344  1  0.41932068  0.41628622  0.96690187  1
  O  O345  1  0.41226390  0.91391444  0.30330921  1
  O  O346  1  0.40947001  0.89374226  0.61493926  1
  O  O347  1  0.41287938  0.90368596  0.96825918  1
  O  O348  1  0.92147404  0.41756579  0.29685248  1
  O  O349  1  0.91201913  0.40614648  0.62254877  1
  O  O350  1  0.91259706  0.41381916  0.96312095  1
  O  O351  1  0.91248988  0.91420730  0.29049942  1
  O  O352  1  0.90591717  0.90762157  0.60946515  1
  O  O353  1  0.89638581  0.90509709  0.96455182  1
  O  O354  1  0.09018645  0.08875632  0.20464651  1
  O  O355  1  0.08284984  0.08308649  0.52576368  1
  O  O356  1  0.09355324  0.08447342  0.87138960  1
  O  O357  1  0.08470128  0.58084516  0.20376382  1
  O  O358  1  0.08730048  0.59832584  0.52953996  1
  O  O359  1  0.09382855  0.58144678  0.88844649  1
  O  O360  1  0.58638371  0.08363172  0.20094437  1
  O  O361  1  0.59272456  0.09310511  0.54369647  1
  O  O362  1  0.58953818  0.09679937  0.86679524  1
  O  O363  1  0.58740371  0.56347352  0.21103084  1
  O  O364  1  0.59712273  0.58914935  0.54101205  1
  O  O365  1  0.58212037  0.57750770  0.87495078  1
  O  O366  1  0.14037544  0.22458132  0.06057288  1
  O  O367  1  0.13841376  0.22819496  0.39335498  1
  O  O368  1  0.13822596  0.23154844  0.72631446  1
  O  O369  1  0.12971363  0.71590167  0.05513590  1
  O  O370  1  0.14128038  0.71868040  0.38965344  1
  O  O371  1  0.15748078  0.70490200  0.69930270  1
  O  O372  1  0.63657245  0.22784644  0.05817915  1
  O  O373  1  0.63604271  0.22478224  0.39383736  1
  O  O374  1  0.63713697  0.22716583  0.72561962  1
  O  O375  1  0.63308034  0.71286950  0.05227948  1
  O  O376  1  0.63472765  0.72188996  0.39096913  1
  O  O377  1  0.64119583  0.71306101  0.72648437  1
  O  O378  1  0.28095500  0.35936622  0.10831681  1
  O  O379  1  0.27378595  0.36044045  0.43665550  1
  O  O380  1  0.28472119  0.36214090  0.78172337  1
  O  O381  1  0.27358357  0.86145715  0.10835591  1
  O  O382  1  0.27284027  0.86699256  0.44377859  1
  O  O383  1  0.27235676  0.85986868  0.77547486  1
  O  O384  1  0.78285294  0.36558624  0.11191236  1
  O  O385  1  0.78387698  0.35936752  0.44263908  1
  O  O386  1  0.78439667  0.35742705  0.79254901  1
  O  O387  1  0.78456722  0.86813346  0.11009035  1
  O  O388  1  0.76218505  0.86415756  0.43275869  1
  O  O389  1  0.75838647  0.86918853  0.76899079  1
  O  O390  1  0.36003563  0.27864564  0.27249889  1
  O  O391  1  0.36385619  0.27819705  0.60723610  1
  O  O392  1  0.36215664  0.28259384  0.94272691  1
  O  O393  1  0.35323031  0.77941274  0.27179840  1
  O  O394  1  0.36802844  0.76131766  0.60463698  1
  O  O395  1  0.35489828  0.77044338  0.94384546  1
  O  O396  1  0.86600019  0.28488813  0.27808905  1
  O  O397  1  0.86414315  0.27153952  0.60333771  1
  O  O398  1  0.86426618  0.27930959  0.94414794  1
  O  O399  1  0.86663212  0.78228571  0.27957086  1
  O  O400  1  0.86918773  0.77622054  0.60622724  1
  O  O401  1  0.85161941  0.77004291  0.94211167  1
  O  O402  1  0.22366865  0.14205551  0.22513680  1
  O  O403  1  0.21879162  0.13596348  0.55362527  1
  O  O404  1  0.22681931  0.13848797  0.89059769  1
  O  O405  1  0.21670281  0.64002149  0.22525360  1
  O  O406  1  0.22421653  0.63839178  0.54888602  1
  O  O407  1  0.22280598  0.63254738  0.89711131  1
  O  O408  1  0.71909944  0.14160367  0.22314709  1
  O  O409  1  0.72631278  0.13365369  0.55297401  1
  O  O410  1  0.72602206  0.14450150  0.89440327  1
  O  O411  1  0.71331700  0.63534659  0.22949613  1
  O  O412  1  0.73134697  0.63896980  0.56001768  1
  O  O413  1  0.71227570  0.63479213  0.89206322  1
  O  O414  1  0.49298047  0.33297889  0.03193289  1
  O  O415  1  0.48997101  0.33274361  0.36117210  1
  O  O416  1  0.49261246  0.33911732  0.69620431  1
  O  O417  1  0.48804557  0.82062946  0.02986914  1
  O  O418  1  0.48494296  0.82371686  0.36023324  1
  O  O419  1  0.49308085  0.82784196  0.69556670  1
  O  O420  1  0.99483905  0.33772448  0.03021933  1
  O  O421  1  0.99695679  0.33819315  0.36507807  1
  O  O422  1  0.99145575  0.33110175  0.69501688  1
  O  O423  1  0.97960442  0.82886263  0.03251118  1
  O  O424  1  0.99902059  0.84357435  0.36192727  1
  O  O425  1  0.99717001  0.84978992  0.69087075  1
  O  O426  1  0.17001991  0.01113350  0.13730438  1
  O  O427  1  0.16741680  0.00561504  0.46615897  1
  O  O428  1  0.17228065  0.00742563  0.80311033  1
  O  O429  1  0.16756205  0.50807742  0.13680294  1
  O  O430  1  0.15836152  0.51042874  0.46137074  1
  O  O431  1  0.16127820  0.50514597  0.80641166  1
  O  O432  1  0.66834788  0.00942733  0.13606161  1
  O  O433  1  0.65874285  0.00740018  0.46659333  1
  O  O434  1  0.66917659  0.01622335  0.80299433  1
  O  O435  1  0.67190742  0.50439566  0.14015394  1
  O  O436  1  0.67344913  0.50923530  0.47102454  1
  O  O437  1  0.66218666  0.49928535  0.80969691  1
  O  O438  1  0.00966438  0.17052565  0.30153784  1
  O  O439  1  0.01292810  0.16446883  0.63643571  1
  O  O440  1  0.01152143  0.17018667  0.96928496  1
  O  O441  1  0.00820991  0.67169003  0.30403325  1
  O  O442  1  0.01740066  0.68450104  0.62949960  1
  O  O443  1  -0.00555354  0.65872623  0.97731104  1
  O  O444  1  0.50707993  0.17038042  0.30098041  1
  O  O445  1  0.50652185  0.17163213  0.63679756  1
  O  O446  1  0.50786348  0.16632817  0.97098438  1
  O  O447  1  0.50380643  0.65576978  0.30762905  1
  O  O448  1  0.51059576  0.66469677  0.63821523  1
  O  O449  1  0.50205465  0.65618123  0.96524582  1
  O  O450  1  0.33198873  0.49095621  0.19677182  1
  O  O451  1  0.32391550  0.49006778  0.52703176  1
  O  O452  1  0.33823183  0.49327899  0.86487451  1
  O  O453  1  0.33522301  0.98925492  0.20017335  1
  O  O454  1  0.34205217  0.99676081  0.52872986  1
  O  O455  1  0.33710041  0.98483292  0.86938335  1
  O  O456  1  0.83872027  0.49620053  0.19784866  1
  O  O457  1  0.83444703  0.49097639  0.53161853  1
  O  O458  1  0.83565893  0.49332446  0.86311541  1
  O  O459  1  0.83364695  0.99809224  0.20315890  1
  O  O460  1  0.82236338  0.99149176  0.52457176  1
  O  O461  1  0.83765197  0.99296915  0.85369479  1
