# generated using pymatgen
data_Na31Fe20(SO4)36
_symmetry_space_group_name_H-M   'P 1'
_cell_length_a   18.07094991
_cell_length_b   18.08177368
_cell_length_c   19.72153289
_cell_angle_alpha   107.61918930
_cell_angle_beta   107.57557625
_cell_angle_gamma   90.72427242
_symmetry_Int_Tables_number   1
_chemical_formula_structural   Na31Fe20(SO4)36
_chemical_formula_sum   'Na62 Fe40 S72 O288'
_cell_volume   5816.59308217
_cell_formula_units_Z   2
loop_
 _symmetry_equiv_pos_site_id
 _symmetry_equiv_pos_as_xyz
  1  'x, y, z'
loop_
 _atom_site_type_symbol
 _atom_site_label
 _atom_site_symmetry_multiplicity
 _atom_site_fract_x
 _atom_site_fract_y
 _atom_site_fract_z
 _atom_site_occupancy
  Na  Na0  1  0.13865021  0.36524803  0.08707590  1
  Na  Na1  1  0.13450964  0.37721956  0.42871263  1
  Na  Na2  1  0.13625563  0.36819309  0.75405117  1
  Na  Na3  1  0.12686511  0.87643503  0.08682617  1
  Na  Na4  1  0.13583587  0.86630760  0.41539124  1
  Na  Na5  1  0.13311220  0.85900330  0.74604548  1
  Na  Na6  1  0.64875356  0.37232901  0.09228125  1
  Na  Na7  1  0.63743744  0.37173546  0.41333051  1
  Na  Na8  1  0.63187001  0.36130572  0.74734532  1
  Na  Na9  1  0.63436616  0.85996912  0.08279267  1
  Na  Na10  1  0.63472489  0.85149313  0.41423092  1
  Na  Na11  1  0.62780605  0.83312006  0.71258819  1
  Na  Na12  1  0.36180689  0.14010463  0.24587654  1
  Na  Na13  1  0.35910347  0.12895975  0.57973539  1
  Na  Na14  1  0.35841700  0.14265871  0.91309593  1
  Na  Na15  1  0.38018628  0.64685692  0.27022025  1
  Na  Na16  1  0.36290589  0.63759583  0.57978630  1
  Na  Na17  1  0.36604378  0.63507684  0.91914494  1
  Na  Na18  1  0.86923190  0.13273399  0.25110706  1
  Na  Na19  1  0.86429160  0.12761046  0.57882276  1
  Na  Na20  1  0.86629337  0.13152938  0.91750813  1
  Na  Na21  1  0.87292684  0.63781811  0.25368971  1
  Na  Na22  1  0.86904152  0.63868240  0.59390127  1
  Na  Na23  1  0.85520070  0.63027058  0.90876685  1
  Na  Na24  1  0.50785165  -0.01956202  0.42784428  1
  Na  Na25  1  0.51717529  0.55774899  0.42824701  1
  Na  Na26  1  0.46289697  0.01560817  0.73875335  1
  Na  Na27  1  0.45998892  0.50953570  0.73728344  1
  Na  Na28  1  0.49110546  0.01915222  0.08331545  1
  Na  Na29  1  0.51391243  0.49475078  0.09822943  1
  Na  Na30  1  0.99352250  0.55790237  0.09897585  1
  Na  Na31  1  0.99847656  0.01491406  0.39902895  1
  Na  Na32  1  1.00587690  -0.02328601  0.76002579  1
  Na  Na33  1  0.48702252  0.52053601  0.57410120  1
  Na  Na34  1  -0.00005438  0.50094488  0.27372554  1
  Na  Na35  1  0.00650989  0.51052109  0.88565488  1
  Na  Na36  1  0.53440492  0.48705882  0.92712588  1
  Na  Na37  1  0.50759071  0.99172407  0.25236584  1
  Na  Na38  1  0.00265832  0.96022897  0.92274545  1
  Na  Na39  1  0.01594383  0.98629037  0.58233948  1
  Na  Na40  1  0.51959582  0.98630459  0.91227050  1
  Na  Na41  1  0.48451325  0.92192821  0.55835449  1
  Na  Na42  1  0.24119677  0.24797248  0.67590226  1
  Na  Na43  1  0.25274758  0.75708974  0.66468192  1
  Na  Na44  1  0.75661082  0.25221016  0.65995092  1
  Na  Na45  1  0.24405609  0.74360363  0.33760065  1
  Na  Na46  1  0.23938800  0.75080313  0.00479646  1
  Na  Na47  1  0.74286146  0.72662064  0.34152901  1
  Na  Na48  1  0.74749985  0.74090284  -0.00185354  1
  Na  Na49  1  0.26099094  0.26669366  0.32355208  1
  Na  Na50  1  0.24936563  0.25242322  0.00161988  1
  Na  Na51  1  0.75066984  0.24984986  0.00228124  1
  Na  Na52  1  0.74230325  0.24291738  0.18311539  1
  Na  Na53  1  0.75926544  0.25900934  0.48319552  1
  Na  Na54  1  0.25864773  0.26380130  0.49836678  1
  Na  Na55  1  0.27572408  0.77090144  0.50091720  1
  Na  Na56  1  0.76550756  0.75473954  0.80748281  1
  Na  Na57  1  0.72242643  0.72175894  0.51319856  1
  Na  Na58  1  0.25069920  0.75054800  0.83585525  1
  Na  Na59  1  0.74420885  0.73635786  0.16956122  1
  Na  Na60  1  0.74754441  0.24979647  0.83261024  1
  Na  Na61  1  0.23839856  0.74325166  0.17726443  1
  Fe  Fe62  1  0.96555008  0.30898862  0.12256861  1
  Fe  Fe63  1  0.46734071  0.31418901  0.12429572  1
  Fe  Fe64  1  0.46108908  0.81024900  0.11746605  1
  Fe  Fe65  1  0.96819391  0.80399660  0.44892269  1
  Fe  Fe66  1  0.46364043  0.30849533  0.78401063  1
  Fe  Fe67  1  0.46563285  0.80500067  0.78572091  1
  Fe  Fe68  1  0.46739455  0.30872669  0.45322110  1
  Fe  Fe69  1  0.96374611  0.31173491  0.45566324  1
  Fe  Fe70  1  0.96455788  0.30498765  0.78855414  1
  Fe  Fe71  1  0.96799076  0.80262379  0.12424602  1
  Fe  Fe72  1  0.20005639  0.03318755  0.71258869  1
  Fe  Fe73  1  0.69006444  0.03152379  0.71264075  1
  Fe  Fe74  1  0.69555631  0.03380855  0.38401720  1
  Fe  Fe75  1  0.68585623  0.53195303  0.71254181  1
  Fe  Fe76  1  0.19757066  0.53438511  0.38269760  1
  Fe  Fe77  1  0.69666166  0.03253889  0.05063670  1
  Fe  Fe78  1  0.19333469  0.53532920  0.04739939  1
  Fe  Fe79  1  0.18933549  0.03676748  0.37796940  1
  Fe  Fe80  1  0.19846111  0.53049099  0.70546765  1
  Fe  Fe81  1  0.19304922  0.04180782  0.05023773  1
  Fe  Fe82  1  0.53539200  0.69124757  0.21250203  1
  Fe  Fe83  1  0.53258481  0.18935319  0.54655016  1
  Fe  Fe84  1  0.02838019  0.69778865  0.86918548  1
  Fe  Fe85  1  0.53152483  0.19152293  0.87912373  1
  Fe  Fe86  1  0.03217345  0.19437442  0.54977867  1
  Fe  Fe87  1  0.53573134  0.68821379  0.88255858  1
  Fe  Fe88  1  0.03554879  0.19452011  0.21435855  1
  Fe  Fe89  1  0.03481123  0.19206552  0.88119670  1
  Fe  Fe90  1  0.03769801  0.68974120  0.54525839  1
  Fe  Fe91  1  0.54014429  0.19735535  0.21990132  1
  Fe  Fe92  1  0.81278107  0.96205726  0.62108423  1
  Fe  Fe93  1  0.30960787  0.46467396  0.95294397  1
  Fe  Fe94  1  0.30739865  0.96993134  0.95268088  1
  Fe  Fe95  1  0.80865961  0.96225987  0.95309763  1
  Fe  Fe96  1  0.80675312  0.96313022  0.28419612  1
  Fe  Fe97  1  0.31194720  0.46348761  0.28542409  1
  Fe  Fe98  1  0.30648537  0.96874894  0.28436020  1
  Fe  Fe99  1  0.80036431  0.47134475  0.29321544  1
  Fe  Fe100  1  0.80005734  0.47011869  0.96087533  1
  Fe  Fe101  1  0.80523928  0.46318304  0.61702120  1
  S  S102  1  0.36330755  0.14465649  0.08488676  1
  S  S103  1  0.35790847  0.14279327  0.41573642  1
  S  S104  1  0.35730539  0.14592243  0.75034261  1
  S  S105  1  0.35563288  0.64346825  0.08344903  1
  S  S106  1  0.36141391  0.63671127  0.41819120  1
  S  S107  1  0.35809843  0.64466185  0.75345947  1
  S  S108  1  0.86046774  0.13962331  0.08452555  1
  S  S109  1  0.86115707  0.13855754  0.41570010  1
  S  S110  1  0.85828196  0.13823340  0.74997606  1
  S  S111  1  0.85413701  0.64458445  0.07838278  1
  S  S112  1  0.86345740  0.64107998  0.41796153  1
  S  S113  1  0.85919127  0.63106257  0.75199816  1
  S  S114  1  0.14036906  0.36076648  0.25062875  1
  S  S115  1  0.14010769  0.35756924  0.58703815  1
  S  S116  1  0.13930678  0.36229468  0.91642965  1
  S  S117  1  0.14094706  0.86193053  0.24724176  1
  S  S118  1  0.14040173  0.86121195  0.58350460  1
  S  S119  1  0.14231301  0.86534092  0.91742757  1
  S  S120  1  0.64126101  0.35844622  0.24677191  1
  S  S121  1  0.64174558  0.35218548  0.58280936  1
  S  S122  1  0.63855616  0.35290394  0.91771792  1
  S  S123  1  0.63945385  0.86175711  0.24922757  1
  S  S124  1  0.64310283  0.86345365  0.57759582  1
  S  S125  1  0.64172557  0.85799432  0.91816741  1
  S  S126  1  0.06712171  0.17067683  0.03964987  1
  S  S127  1  0.06845396  0.17709960  0.37895155  1
  S  S128  1  0.06677825  0.16757198  0.71007896  1
  S  S129  1  0.06820836  0.67188150  0.03676993  1
  S  S130  1  0.07287635  0.67223162  0.37750657  1
  S  S131  1  0.07696012  0.66964306  0.70916932  1
  S  S132  1  0.56788922  0.16615599  0.04173061  1
  S  S133  1  0.56628481  0.16540734  0.37510663  1
  S  S134  1  0.56361111  0.16530205  0.70813639  1
  S  S135  1  0.55838321  0.66998722  0.04407426  1
  S  S136  1  0.57043254  0.66647652  0.36970686  1
  S  S137  1  0.56053549  0.66322260  0.71348097  1
  S  S138  1  0.33253557  0.43618496  0.12260785  1
  S  S139  1  0.33269350  0.43382864  0.45765473  1
  S  S140  1  0.33342205  0.43738456  0.79380859  1
  S  S141  1  0.33208112  0.94014078  0.12304469  1
  S  S142  1  0.32657154  0.93945487  0.45027926  1
  S  S143  1  0.33267748  0.93810026  0.79568076  1
  S  S144  1  0.83642641  0.43366773  0.13038242  1
  S  S145  1  0.82822857  0.42952160  0.45665950  1
  S  S146  1  0.82443744  0.42500460  0.79346705  1
  S  S147  1  0.82662546  0.92627747  0.12124214  1
  S  S148  1  0.83119639  0.93050077  0.45432679  1
  S  S149  1  0.83093045  0.93732511  0.79241906  1
  S  S150  1  0.43585394  0.32941922  0.29136584  1
  S  S151  1  0.43765978  0.32913699  0.62215457  1
  S  S152  1  0.43490623  0.33223709  0.96031011  1
  S  S153  1  0.43445040  0.83749677  0.28710732  1
  S  S154  1  0.43054113  0.82983737  0.63096093  1
  S  S155  1  0.43542570  0.83701689  0.96014345  1
  S  S156  1  0.92962662  0.32963977  0.29101600  1
  S  S157  1  0.92629457  0.32262368  0.62368004  1
  S  S158  1  0.92788250  0.32881162  0.95811953  1
  S  S159  1  0.93129555  0.83269948  0.28993000  1
  S  S160  1  0.93656718  0.83347979  0.62201064  1
  S  S161  1  0.92899122  0.82394232  0.95725519  1
  S  S162  1  0.17232565  0.07544234  0.21192929  1
  S  S163  1  0.16153657  0.06926587  0.53987947  1
  S  S164  1  0.17023753  0.06846098  0.87669638  1
  S  S165  1  0.17063123  0.56213293  0.21024911  1
  S  S166  1  0.17314567  0.56980707  0.54481922  1
  S  S167  1  0.17599702  0.57247940  0.87488649  1
  S  S168  1  0.66829777  0.06409794  0.20778931  1
  S  S169  1  0.67007536  0.06786403  0.54203698  1
  S  S170  1  0.66680884  0.06412364  0.87472871  1
  S  S171  1  0.67524619  0.56676705  0.20466620  1
  S  S172  1  0.66780647  0.55892287  0.54971979  1
  S  S173  1  0.66193372  0.55786118  0.87260252  1
  O  O174  1  0.37388298  0.22345669  0.07719884  1
  O  O175  1  0.36862720  0.22297386  0.41015246  1
  O  O176  1  0.36639709  0.22777642  0.74795706  1
  O  O177  1  0.36312663  0.72138001  0.07212925  1
  O  O178  1  0.36592711  0.71317459  0.40705339  1
  O  O179  1  0.36414008  0.72834632  0.75563212  1
  O  O180  1  0.86918834  0.21806854  0.07506347  1
  O  O181  1  0.87033135  0.21791856  0.41103612  1
  O  O182  1  0.86756794  0.21756387  0.74252517  1
  O  O183  1  0.87396044  0.72217989  0.06869605  1
  O  O184  1  0.87883568  0.71459695  0.39998482  1
  O  O185  1  0.86578989  0.70946116  0.74741679  1
  O  O186  1  0.28485114  0.13492374  0.09216620  1
  O  O187  1  0.27933575  0.13534189  0.42493491  1
  O  O188  1  0.27831472  0.13457123  0.75703079  1
  O  O189  1  0.27520850  0.63481179  0.08963434  1
  O  O190  1  0.28127431  0.62654015  0.42740102  1
  O  O191  1  0.27821114  0.63065702  0.75892707  1
  O  O192  1  0.78120047  0.13071596  0.09345164  1
  O  O193  1  0.78223029  0.12791257  0.42408604  1
  O  O194  1  0.77974225  0.13029806  0.75959820  1
  O  O195  1  0.77239733  0.64160662  0.07499363  1
  O  O196  1  0.78634946  0.64021882  0.42673222  1
  O  O197  1  0.78258222  0.61691573  0.76562606  1
  O  O198  1  0.12947059  0.28314293  0.26108527  1
  O  O199  1  0.12436649  0.28081884  0.59932732  1
  O  O200  1  0.12890580  0.28281705  0.92290221  1
  O  O201  1  0.14183144  0.78505785  0.25710514  1
  O  O202  1  0.12652782  0.78516312  0.59622048  1
  O  O203  1  0.13056998  0.78490783  0.92118177  1
  O  O204  1  0.63702720  0.27424183  0.24516138  1
  O  O205  1  0.63134961  0.27340360  0.59187878  1
  O  O206  1  0.63042565  0.27017219  0.91929875  1
  O  O207  1  0.63068014  0.78254769  0.25545544  1
  O  O208  1  0.63719850  0.78636311  0.58563196  1
  O  O209  1  0.63092805  0.78098550  0.92967426  1
  O  O210  1  0.22008776  0.36808981  0.24486397  1
  O  O211  1  0.21597190  0.36035876  0.57602802  1
  O  O212  1  0.21692233  0.37236931  0.90731663  1
  O  O213  1  0.21589217  0.87890431  0.23233742  1
  O  O214  1  0.21590698  0.86605338  0.57222935  1
  O  O215  1  0.22417570  0.87289202  0.91376994  1
  O  O216  1  0.72028741  0.37299553  0.23766816  1
  O  O217  1  0.72229325  0.35922553  0.57773301  1
  O  O218  1  0.72006357  0.36467189  0.91619941  1
  O  O219  1  0.71656105  0.87012839  0.23725113  1
  O  O220  1  0.72296080  0.87794915  0.57064594  1
  O  O221  1  0.72063740  0.86571692  0.91056346  1
  O  O222  1  0.42335964  0.13487272  0.15208531  1
  O  O223  1  0.41701723  0.13200996  0.48225731  1
  O  O224  1  0.41617889  0.13694669  0.81978232  1
  O  O225  1  0.41306225  0.63813092  0.15276508  1
  O  O226  1  0.42016125  0.62557205  0.48304290  1
  O  O227  1  0.41569775  0.63477437  0.82234294  1
  O  O228  1  0.91995269  0.13393580  0.15272953  1
  O  O229  1  0.92038069  0.12676364  0.48210872  1
  O  O230  1  0.91839064  0.13014025  0.81709376  1
  O  O231  1  0.90749520  0.63633065  0.14758246  1
  O  O232  1  0.92329500  0.63642063  0.48676335  1
  O  O233  1  0.92152741  0.62072645  0.81851769  1
  O  O234  1  0.37234304  0.08537786  0.01675891  1
  O  O235  1  0.36460033  0.08570366  0.34607621  1
  O  O236  1  0.36869481  0.09051362  0.68419245  1
  O  O237  1  0.36481103  0.58331271  0.01677720  1
  O  O238  1  0.36710549  0.57572229  0.34814199  1
  O  O239  1  0.37035374  0.59235145  0.68634922  1
  O  O240  1  0.86551425  0.07977493  0.01600490  1
  O  O241  1  0.86876594  0.08009172  0.34670639  1
  O  O242  1  0.86461494  0.08014252  0.68072509  1
  O  O243  1  0.86659998  0.58292357  0.01200372  1
  O  O244  1  0.86955661  0.57596392  0.35114821  1
  O  O245  1  0.86541833  0.57245975  0.68288232  1
  O  O246  1  0.08264700  0.36565154  0.18042267  1
  O  O247  1  0.07826914  0.36611804  0.52112160  1
  O  O248  1  0.07778765  0.37183827  0.84979943  1
  O  O249  1  0.07745283  0.86398574  0.17839791  1
  O  O250  1  0.07776085  0.87217460  0.51779398  1
  O  O251  1  0.08631367  0.88007583  0.85290067  1
  O  O252  1  0.58256413  0.36478487  0.17645728  1
  O  O253  1  0.58547485  0.35775269  0.51256317  1
  O  O254  1  0.58291084  0.36021058  0.84671482  1
  O  O255  1  0.57822799  0.87414601  0.18441338  1
  O  O256  1  0.58447176  0.87570564  0.51257210  1
  O  O257  1  0.58242512  0.86630976  0.85086484  1
  O  O258  1  0.12897486  0.42202457  0.31615417  1
  O  O259  1  0.13802445  0.41911448  0.65721699  1
  O  O260  1  0.13213930  0.42061095  0.98547960  1
  O  O261  1  0.13069501  0.92185174  0.31371997  1
  O  O262  1  0.13463574  0.92319877  0.65259160  1
  O  O263  1  0.13588128  0.92229439  0.98856382  1
  O  O264  1  0.63102493  0.41052353  0.31359852  1
  O  O265  1  0.63161715  0.41123965  0.64933450  1
  O  O266  1  0.62372222  0.40727694  0.98258104  1
  O  O267  1  0.63459337  0.92043155  0.31933524  1
  O  O268  1  0.63405318  0.92247601  0.64761773  1
  O  O269  1  0.63340816  0.91963628  0.98568513  1
  O  O270  1  0.03217075  0.20053753  0.10174362  1
  O  O271  1  0.02980923  0.20454539  0.43871624  1
  O  O272  1  0.03000095  0.19791520  0.77153486  1
  O  O273  1  0.02992635  0.69693586  0.09540502  1
  O  O274  1  0.04273720  0.70577642  0.44357247  1
  O  O275  1  0.04019587  0.69210230  0.76867732  1
  O  O276  1  0.53212477  0.19396298  0.10252674  1
  O  O277  1  0.52908023  0.19555192  0.43505325  1
  O  O278  1  0.52600401  0.19793967  0.76817284  1
  O  O279  1  0.52279772  0.70763879  0.10521898  1
  O  O280  1  0.53744056  0.68912653  0.43104082  1
  O  O281  1  0.52984755  0.69842829  0.77988689  1
  O  O282  1  0.30057993  0.47383309  0.06198716  1
  O  O283  1  0.29893917  0.46227715  0.39100889  1
  O  O284  1  0.30598987  0.47680161  0.73628498  1
  O  O285  1  0.30168850  0.97650150  0.06219557  1
  O  O286  1  0.28878641  0.97366776  0.38663699  1
  O  O287  1  0.30472889  0.97417174  0.73623919  1
  O  O288  1  0.81643683  0.47086086  0.07125313  1
  O  O289  1  0.80452670  0.46351442  0.39456295  1
  O  O290  1  0.79646243  0.45660503  0.73004810  1
  O  O291  1  0.79921450  0.96636451  0.06188525  1
  O  O292  1  0.80060871  0.96924944  0.39434931  1
  O  O293  1  0.79723987  0.97363769  0.73105263  1
  O  O294  1  0.47326194  0.29861984  0.23008816  1
  O  O295  1  0.47367555  0.29278366  0.56078019  1
  O  O296  1  0.46898901  0.30081793  0.89751492  1
  O  O297  1  0.46381725  0.80300293  0.22090536  1
  O  O298  1  0.46003033  0.79964635  0.56815271  1
  O  O299  1  0.47141694  0.80637160  0.89982294  1
  O  O300  1  0.96919764  0.30237164  0.23100441  1
  O  O301  1  0.96439630  0.29400067  0.56377807  1
  O  O302  1  0.96627265  0.29934477  0.89793422  1
  O  O303  1  0.96533342  0.80864913  0.22862957  1
  O  O304  1  0.96600697  0.80158968  0.55604329  1
  O  O305  1  0.97065608  0.80053934  0.90131936  1
  O  O306  1  0.20129873  0.03747770  0.27181945  1
  O  O307  1  0.18481709  0.03558220  0.60109393  1
  O  O308  1  0.20062676  0.03319991  0.93893374  1
  O  O309  1  0.20826752  0.52541554  0.26976226  1
  O  O310  1  0.19777207  0.53043167  0.60319370  1
  O  O311  1  0.20162671  0.53288240  0.93430720  1
  O  O312  1  0.69910111  0.03011705  0.27015573  1
  O  O313  1  0.70132271  0.03801081  0.60641443  1
  O  O314  1  0.69652686  0.02908182  0.93687926  1
  O  O315  1  0.70659444  0.53434330  0.26799622  1
  O  O316  1  0.70348318  0.52020740  0.61122130  1
  O  O317  1  0.69027573  0.51969704  0.93069271  1
  O  O318  1  0.08522977  0.08883236  0.03332688  1
  O  O319  1  0.08798584  0.09610852  0.37536337  1
  O  O320  1  0.08722432  0.08699983  0.70724619  1
  O  O321  1  0.08675600  0.58908994  0.03039304  1
  O  O322  1  0.09622427  0.59274095  0.37708563  1
  O  O323  1  0.10203955  0.59020609  0.70130158  1
  O  O324  1  0.58399121  0.08251670  0.03478605  1
  O  O325  1  0.58380730  0.08297909  0.37099954  1
  O  O326  1  0.58102505  0.08469475  0.70711927  1
  O  O327  1  0.56416942  0.58800852  0.03884938  1
  O  O328  1  0.58393892  0.58429723  0.35053254  1
  O  O329  1  0.57647515  0.58084398  0.71104154  1
  O  O330  1  0.41322008  0.41812326  0.12290931  1
  O  O331  1  0.41173642  0.40833106  0.45632039  1
  O  O332  1  0.41598721  0.41889575  0.79738546  1
  O  O333  1  0.41512953  0.92494073  0.12772077  1
  O  O334  1  0.40482406  0.92249267  0.44544477  1
  O  O335  1  0.41488816  0.91890262  0.80221420  1
  O  O336  1  0.92074889  0.41740107  0.14636035  1
  O  O337  1  0.90898764  0.40793322  0.46599895  1
  O  O338  1  0.90761106  0.40843163  0.80354683  1
  O  O339  1  0.90519713  0.90370410  0.12537716  1
  O  O340  1  0.91408515  0.91656596  0.46056717  1
  O  O341  1  0.91341612  0.92844737  0.79912536  1
  O  O342  1  0.41718271  0.40952628  0.29448259  1
  O  O343  1  0.42691724  0.40979187  0.62464541  1
  O  O344  1  0.42112846  0.41567661  0.96670798  1
  O  O345  1  0.41347451  0.91852367  0.28595760  1
  O  O346  1  0.41411929  0.91160622  0.63944934  1
  O  O347  1  0.42069879  0.92019262  0.96608222  1
  O  O348  1  0.90452554  0.40813427  0.29215126  1
  O  O349  1  0.90293480  0.40053527  0.62608703  1
  O  O350  1  0.90646379  0.40828018  0.96191666  1
  O  O351  1  0.91186926  0.91554613  0.30113144  1
  O  O352  1  0.92035798  0.91783345  0.62618924  1
  O  O353  1  0.91028081  0.90610726  0.96311268  1
  O  O354  1  0.09235449  0.09511169  0.20767267  1
  O  O355  1  0.07662240  0.08512883  0.52748754  1
  O  O356  1  0.08706284  0.08313917  0.86968606  1
  O  O357  1  0.08966271  0.57112930  0.20851107  1
  O  O358  1  0.09225677  0.58906581  0.53524544  1
  O  O359  1  0.09493297  0.59129294  0.86805333  1
  O  O360  1  0.58663436  0.08341381  0.20501701  1
  O  O361  1  0.58787815  0.08574500  0.53544848  1
  O  O362  1  0.58386385  0.08058206  0.86940266  1
  O  O363  1  0.59625290  0.59270239  0.20453100  1
  O  O364  1  0.59129943  0.57999054  0.55696933  1
  O  O365  1  0.57882530  0.57494010  0.86841999  1
  O  O366  1  0.13648449  0.22248692  0.05174755  1
  O  O367  1  0.13880922  0.23038413  0.39614669  1
  O  O368  1  0.13449814  0.22188100  0.72375204  1
  O  O369  1  0.14015384  0.72524465  0.05646838  1
  O  O370  1  0.14219244  0.72578435  0.38981571  1
  O  O371  1  0.14603046  0.72701647  0.72780167  1
  O  O372  1  0.64063823  0.21589313  0.05786012  1
  O  O373  1  0.63677755  0.21607000  0.38901239  1
  O  O374  1  0.63567998  0.21640358  0.72404988  1
  O  O375  1  0.63307691  0.71707439  0.06109394  1
  O  O376  1  0.64357649  0.72005810  0.38859425  1
  O  O377  1  0.63327709  0.71127720  0.72764911  1
  O  O378  1  0.28085113  0.36480228  0.10548602  1
  O  O379  1  0.27888776  0.36542350  0.44692294  1
  O  O380  1  0.28127682  0.36687818  0.77759403  1
  O  O381  1  0.28247854  0.86794192  0.10701565  1
  O  O382  1  0.27624062  0.86643392  0.43473214  1
  O  O383  1  0.28062546  0.86763064  0.78228643  1
  O  O384  1  0.78437962  0.36051226  0.10852485  1
  O  O385  1  0.77307876  0.36051249  0.44043243  1
  O  O386  1  0.77386666  0.35211806  0.77783741  1
  O  O387  1  0.76963726  0.85782244  0.10303947  1
  O  O388  1  0.78088667  0.85807461  0.43513088  1
  O  O389  1  0.78210421  0.86477938  0.77614371  1
  O  O390  1  0.36605408  0.27634045  0.27563403  1
  O  O391  1  0.36502903  0.27931587  0.60680125  1
  O  O392  1  0.36308740  0.28386025  0.94736962  1
  O  O393  1  0.36421456  0.78731977  0.27714072  1
  O  O394  1  0.35950028  0.77975799  0.62241621  1
  O  O395  1  0.36309827  0.78780236  0.94568314  1
  O  O396  1  0.86286726  0.27186871  0.27370647  1
  O  O397  1  0.85773342  0.26534070  0.60596664  1
  O  O398  1  0.85851939  0.27278621  0.94080938  1
  O  O399  1  0.86070852  0.78033401  0.27450591  1
  O  O400  1  0.86515206  0.78558539  0.61054265  1
  O  O401  1  0.85636265  0.77117931  0.93526806  1
  O  O402  1  0.22669370  0.14452793  0.22792883  1
  O  O403  1  0.21223025  0.14172823  0.55636516  1
  O  O404  1  0.22018593  0.14079579  0.89398585  1
  O  O405  1  0.21865872  0.63649388  0.22618595  1
  O  O406  1  0.22748618  0.64078577  0.56500148  1
  O  O407  1  0.22967052  0.64474629  0.89658523  1
  O  O408  1  0.72041741  0.13217749  0.21866518  1
  O  O409  1  0.72116493  0.13732191  0.55174584  1
  O  O410  1  0.71768437  0.13666322  0.89174531  1
  O  O411  1  0.72973030  0.63652807  0.21859775  1
  O  O412  1  0.72333756  0.62706282  0.56601897  1
  O  O413  1  0.71127085  0.63089358  0.88898182  1
  O  O414  1  0.49626050  0.33378745  0.03183677  1
  O  O415  1  0.49629589  0.33038541  0.36286276  1
  O  O416  1  0.49510523  0.32824868  0.69538661  1
  O  O417  1  0.49406615  0.83905247  0.03327194  1
  O  O418  1  0.49870792  0.84765896  0.35623734  1
  O  O419  1  0.49351705  0.83050130  0.70346442  1
  O  O420  1  0.98733453  0.33153714  0.03074003  1
  O  O421  1  0.98972222  0.33559987  0.36393545  1
  O  O422  1  0.98554190  0.32680332  0.69701483  1
  O  O423  1  0.98409055  0.82550051  0.03190510  1
  O  O424  1  0.99258130  0.83364741  0.36130664  1
  O  O425  1  0.99964730  0.84045513  0.69177248  1
  O  O426  1  0.17011258  0.01552229  0.13902561  1
  O  O427  1  0.16165207  0.01026155  0.46754255  1
  O  O428  1  0.16980895  0.00909051  0.80491481  1
  O  O429  1  0.17071262  0.50682359  0.13563920  1
  O  O430  1  0.17573050  0.51112092  0.47352169  1
  O  O431  1  0.17890416  0.51567574  0.80319728  1
  O  O432  1  0.66051345  0.00206923  0.13459485  1
  O  O433  1  0.66548453  0.00484551  0.47031680  1
  O  O434  1  0.66560179  0.00552488  0.80311949  1
  O  O435  1  0.66370671  0.50590535  0.13250359  1
  O  O436  1  0.65684688  0.50033991  0.47655246  1
  O  O437  1  0.65916263  0.50100553  0.79824831  1
  O  O438  1  0.00981093  0.17343941  0.30591706  1
  O  O439  1  0.00492145  0.16064413  0.63693770  1
  O  O440  1  0.00493195  0.16712871  0.96754490  1
  O  O441  1  0.00912996  0.66342617  0.30825085  1
  O  O442  1  0.01717633  0.66944523  0.63795770  1
  O  O443  1  0.01237230  0.66795966  0.96204280  1
  O  O444  1  0.50678396  0.16045845  0.30124115  1
  O  O445  1  0.50569131  0.16191706  0.63483977  1
  O  O446  1  0.50860194  0.16473246  0.96948562  1
  O  O447  1  0.51143648  0.67981219  0.30081139  1
  O  O448  1  0.49812887  0.65989078  0.64527807  1
  O  O449  1  0.50281090  0.67466089  0.97149768  1
  O  O450  1  0.33651996  0.49374337  0.19573875  1
  O  O451  1  0.34465642  0.49782173  0.52735142  1
  O  O452  1  0.33973489  0.49432752  0.86952742  1
  O  O453  1  0.33425295  0.99919629  0.19531639  1
  O  O454  1  0.33134568  0.99725373  0.52182138  1
  O  O455  1  0.33720888  0.99841821  0.86968879  1
  O  O456  1  0.83107854  0.49046293  0.20185889  1
  O  O457  1  0.82876436  0.49046971  0.52756610  1
  O  O458  1  0.82276655  0.48514953  0.86399405  1
  O  O459  1  0.82805085  0.98651555  0.19329275  1
  O  O460  1  0.83076417  0.98901849  0.52644198  1
  O  O461  1  0.82904626  0.99509504  0.86564979  1
