# generated using pymatgen
data_Na31Fe20(SO4)36
_symmetry_space_group_name_H-M   'P 1'
_cell_length_a   18.06479747
_cell_length_b   18.07405917
_cell_length_c   19.68793482
_cell_angle_alpha   107.59190624
_cell_angle_beta   107.57750039
_cell_angle_gamma   90.71998053
_symmetry_Int_Tables_number   1
_chemical_formula_structural   Na31Fe20(SO4)36
_chemical_formula_sum   'Na62 Fe40 S72 O288'
_cell_volume   5803.20590814
_cell_formula_units_Z   2
loop_
 _symmetry_equiv_pos_site_id
 _symmetry_equiv_pos_as_xyz
  1  'x, y, z'
loop_
 _atom_site_type_symbol
 _atom_site_label
 _atom_site_symmetry_multiplicity
 _atom_site_fract_x
 _atom_site_fract_y
 _atom_site_fract_z
 _atom_site_occupancy
  Na  Na0  1  0.16103513  0.38940632  0.11177024  1
  Na  Na1  1  0.14089520  0.36725285  0.41375157  1
  Na  Na2  1  0.13188693  0.36860592  0.75351015  1
  Na  Na3  1  0.15261393  0.87961036  0.10366649  1
  Na  Na4  1  0.13558467  0.86089367  0.41203285  1
  Na  Na5  1  0.13053326  0.86940954  0.74912478  1
  Na  Na6  1  0.62885263  0.37865744  0.08587051  1
  Na  Na7  1  0.62896805  0.37375370  0.41688601  1
  Na  Na8  1  0.63217371  0.37064083  0.75374547  1
  Na  Na9  1  0.62594944  0.78642581  0.03739184  1
  Na  Na10  1  0.62042549  0.85330432  0.39279933  1
  Na  Na11  1  0.65156848  0.82057039  0.75471555  1
  Na  Na12  1  0.36803970  0.12811603  0.25003329  1
  Na  Na13  1  0.36512570  0.13126896  0.58166022  1
  Na  Na14  1  0.37067139  0.13312700  0.91728432  1
  Na  Na15  1  0.36591846  0.62306117  0.24875132  1
  Na  Na16  1  0.35708571  0.62738157  0.57315616  1
  Na  Na17  1  0.37743812  0.66436778  0.93532062  1
  Na  Na18  1  0.87099669  0.12792833  0.24875777  1
  Na  Na19  1  0.87012478  0.12527637  0.58183896  1
  Na  Na20  1  0.86834947  0.13379799  0.91648442  1
  Na  Na21  1  0.86320042  0.63645761  0.24214464  1
  Na  Na22  1  0.86649741  0.64359652  0.59362565  1
  Na  Na23  1  0.84401989  0.66248356  0.92230000  1
  Na  Na24  1  0.53007033  -0.04805288  0.09884801  1
  Na  Na25  1  0.98627284  0.51190077  0.76990987  1
  Na  Na26  1  0.99772700  -0.00513130  0.10327244  1
  Na  Na27  1  1.02099089  0.49956777  0.40155441  1
  Na  Na28  1  0.48595865  0.56446210  0.14307952  1
  Na  Na29  1  1.00375846  -0.00011381  0.40712759  1
  Na  Na30  1  0.49191296  0.54926854  0.75518156  1
  Na  Na31  1  0.52959251  -0.04569497  0.76526653  1
  Na  Na32  1  0.45484321  0.00608218  0.40693812  1
  Na  Na33  1  0.01361173  0.99312450  0.90810663  1
  Na  Na34  1  0.49548907  0.51487073  0.54256788  1
  Na  Na35  1  0.47985119  0.51952029  0.90330424  1
  Na  Na36  1  0.04148961  0.48969401  1.01836824  1
  Na  Na37  1  0.00691709  0.49782901  0.58465414  1
  Na  Na38  1  0.48560410  0.90969281  0.22464162  1
  Na  Na39  1  0.50090807  0.95092020  0.90942544  1
  Na  Na40  1  0.51088513  0.98054628  0.58705500  1
  Na  Na41  1  0.04816535  0.50035077  0.24343158  1
  Na  Na42  1  0.75229414  0.25274193  0.33612967  1
  Na  Na43  1  0.75168482  0.25413199  0.00212566  1
  Na  Na44  1  0.25268867  0.25215090  -0.00092024  1
  Na  Na45  1  0.26366160  0.27059356  0.32766501  1
  Na  Na46  1  0.74617689  0.75432343  0.32171827  1
  Na  Na47  1  0.24942836  0.73817967  0.32911018  1
  Na  Na48  1  0.25450559  0.75425200  0.00304590  1
  Na  Na49  1  0.25038839  0.24791524  0.66369609  1
  Na  Na50  1  0.26398445  0.75472934  0.66068999  1
  Na  Na51  1  0.74789241  0.24649345  0.66601302  1
  Na  Na52  1  0.73907550  0.74224891  0.50435711  1
  Na  Na53  1  0.25096672  0.74446062  0.16654042  1
  Na  Na54  1  0.24537990  0.24870806  0.83392135  1
  Na  Na55  1  0.25451820  0.25340126  0.49725641  1
  Na  Na56  1  0.75114803  0.25027894  0.83210028  1
  Na  Na57  1  0.26962208  0.76420000  0.82645600  1
  Na  Na58  1  0.75239639  0.24968672  0.16648015  1
  Na  Na59  1  0.25679295  0.74961561  0.49410295  1
  Na  Na60  1  0.26489565  0.26858851  0.16837563  1
  Na  Na61  1  0.74735581  0.24528888  0.50118800  1
  Fe  Fe62  1  0.95496317  0.81313467  0.11510496  1
  Fe  Fe63  1  0.96051709  0.80872220  0.78332274  1
  Fe  Fe64  1  0.96636504  0.30304589  0.45143681  1
  Fe  Fe65  1  0.46566437  0.31157240  0.79293213  1
  Fe  Fe66  1  0.96921084  0.30479712  0.11799551  1
  Fe  Fe67  1  0.46611081  0.30821603  0.45346713  1
  Fe  Fe68  1  0.46084921  0.79726073  0.44857696  1
  Fe  Fe69  1  0.96439064  0.30746512  0.78759646  1
  Fe  Fe70  1  0.96525406  0.81255584  0.45327863  1
  Fe  Fe71  1  0.46567816  0.32170558  0.13031190  1
  Fe  Fe72  1  0.18912102  0.03487169  0.71078909  1
  Fe  Fe73  1  0.18756176  0.53565822  0.71693917  1
  Fe  Fe74  1  0.69354099  0.03439224  0.04429571  1
  Fe  Fe75  1  0.68901564  0.03133724  0.37539731  1
  Fe  Fe76  1  0.19757083  0.03913648  0.05121132  1
  Fe  Fe77  1  0.68786790  0.53736084  0.37506354  1
  Fe  Fe78  1  0.19974946  0.03056005  0.37624089  1
  Fe  Fe79  1  0.69529735  0.03172603  0.71284390  1
  Fe  Fe80  1  0.69004192  0.53909563  0.71491622  1
  Fe  Fe81  1  0.67916405  0.54897251  0.04461255  1
  Fe  Fe82  1  0.53529375  0.19435283  0.54805088  1
  Fe  Fe83  1  0.53681351  0.68909849  0.54368984  1
  Fe  Fe84  1  0.03556485  0.18838268  0.87645159  1
  Fe  Fe85  1  0.03504648  0.69432012  0.54696627  1
  Fe  Fe86  1  0.03600661  0.19462734  0.21670556  1
  Fe  Fe87  1  0.03565851  0.18840087  0.54649381  1
  Fe  Fe88  1  0.53418253  0.19395535  0.21309571  1
  Fe  Fe89  1  0.03634556  0.70036682  0.88734874  1
  Fe  Fe90  1  0.53435194  0.19526478  0.88157020  1
  Fe  Fe91  1  0.02824334  0.69945403  0.20848782  1
  Fe  Fe92  1  0.81013300  0.46907162  0.95582353  1
  Fe  Fe93  1  0.81439180  0.46741908  0.28749564  1
  Fe  Fe94  1  0.29658584  0.47346277  0.95948276  1
  Fe  Fe95  1  0.80496709  0.96422478  0.28045234  1
  Fe  Fe96  1  0.80945651  0.96254181  0.94868839  1
  Fe  Fe97  1  0.30339918  0.46493480  0.62132289  1
  Fe  Fe98  1  0.81030559  0.96016780  0.61819621  1
  Fe  Fe99  1  0.80818606  0.46748703  0.61989313  1
  Fe  Fe100  1  0.31403915  0.96773499  0.95715678  1
  Fe  Fe101  1  0.31593735  0.96161561  0.62599171  1
  S  S102  1  0.36206511  0.14629089  0.08475204  1
  S  S103  1  0.36020272  0.14313765  0.41937559  1
  S  S104  1  0.36033747  0.14274339  0.74930034  1
  S  S105  1  0.34368518  0.64631563  0.07132061  1
  S  S106  1  0.35826642  0.63528222  0.41921484  1
  S  S107  1  0.35290504  0.63705853  0.75217775  1
  S  S108  1  0.86273033  0.13830788  0.08146203  1
  S  S109  1  0.85972281  0.13761422  0.41617247  1
  S  S110  1  0.85912213  0.13866682  0.74806695  1
  S  S111  1  0.85992784  0.64032882  0.08046012  1
  S  S112  1  0.86161798  0.64262702  0.41836892  1
  S  S113  1  0.86307860  0.63934103  0.75403046  1
  S  S114  1  0.13760399  0.35989059  0.25278013  1
  S  S115  1  0.13675667  0.35848241  0.58468718  1
  S  S116  1  0.13830116  0.35461653  0.91529697  1
  S  S117  1  0.13244626  0.86262364  0.24893918  1
  S  S118  1  0.14333174  0.85846133  0.58351339  1
  S  S119  1  0.13987157  0.86457397  0.91378057  1
  S  S120  1  0.64642507  0.35795351  0.25144571  1
  S  S121  1  0.64335249  0.36005234  0.58300214  1
  S  S122  1  0.64419943  0.36084120  0.91927512  1
  S  S123  1  0.64081453  0.86131486  0.24339533  1
  S  S124  1  0.63786328  0.86011841  0.58327181  1
  S  S125  1  0.63995806  0.86649007  0.91293850  1
  S  S126  1  0.07085100  0.17101325  0.04094834  1
  S  S127  1  0.06834716  0.16767687  0.37819179  1
  S  S128  1  0.06710965  0.17089558  0.70877970  1
  S  S129  1  0.06322917  0.68947036  0.04603860  1
  S  S130  1  0.06337106  0.67441838  0.37395715  1
  S  S131  1  0.06631549  0.67378443  0.71169495  1
  S  S132  1  0.57094264  0.17510770  0.04377016  1
  S  S133  1  0.56914422  0.17412407  0.37843043  1
  S  S134  1  0.56864833  0.16968920  0.70915552  1
  S  S135  1  0.55577098  0.63583960  0.04549656  1
  S  S136  1  0.56653582  0.66993805  0.37515580  1
  S  S137  1  0.56396260  0.64768282  0.69432629  1
  S  S138  1  0.33045771  0.43410158  0.12368991  1
  S  S139  1  0.32747364  0.42477260  0.46183398  1
  S  S140  1  0.31979484  0.42584312  0.79061777  1
  S  S141  1  0.33238127  0.94199476  0.12245754  1
  S  S142  1  0.33048110  0.93000720  0.46166865  1
  S  S143  1  0.33161439  0.93937977  0.78820221  1
  S  S144  1  0.84125119  0.43009090  0.12754129  1
  S  S145  1  0.83743947  0.43305168  0.45992446  1
  S  S146  1  0.82958866  0.43026175  0.78963266  1
  S  S147  1  0.82348359  0.93375001  0.11991430  1
  S  S148  1  0.82609666  0.93206260  0.45414326  1
  S  S149  1  0.83085351  0.93410892  0.78932531  1
  S  S150  1  0.43408466  0.32881958  0.29041059  1
  S  S151  1  0.43289054  0.33002178  0.62914161  1
  S  S152  1  0.42497993  0.33084191  0.95757889  1
  S  S153  1  0.42193787  0.82417122  0.29459026  1
  S  S154  1  0.43963791  0.82515652  0.62377861  1
  S  S155  1  0.43002520  0.83888907  0.95400810  1
  S  S156  1  0.93296866  0.32740278  0.29208573  1
  S  S157  1  0.93222222  0.32917966  0.62415842  1
  S  S158  1  0.93263836  0.32680329  0.95514960  1
  S  S159  1  0.93022127  0.83253097  0.29296590  1
  S  S160  1  0.93270679  0.83012970  0.62042623  1
  S  S161  1  0.94005771  0.84502094  0.96129745  1
  S  S162  1  0.17004254  0.07516095  0.21182206  1
  S  S163  1  0.17217350  0.06556364  0.54132935  1
  S  S164  1  0.17324947  0.06774439  0.87613104  1
  S  S165  1  0.15833733  0.57668600  0.19822656  1
  S  S166  1  0.16258667  0.56297002  0.54382982  1
  S  S167  1  0.16550321  0.56672479  0.87614218  1
  S  S168  1  0.67504773  0.07488443  0.21026140  1
  S  S169  1  0.66578484  0.06499087  0.53922743  1
  S  S170  1  0.67301870  0.07420746  0.87612043  1
  S  S171  1  0.68097738  0.56596525  0.21673652  1
  S  S172  1  0.67903227  0.56821698  0.54197471  1
  S  S173  1  0.66585790  0.56045887  0.87515374  1
  O  O174  1  0.37406126  0.22666907  0.08024265  1
  O  O175  1  0.36655387  0.22511682  0.41718139  1
  O  O176  1  0.37202693  0.22124135  0.74034315  1
  O  O177  1  0.37612993  0.71507443  0.06068274  1
  O  O178  1  0.36657513  0.72194294  0.42010773  1
  O  O179  1  0.35966584  0.71260383  0.74087867  1
  O  O180  1  0.87304016  0.21675138  0.07207456  1
  O  O181  1  0.86933590  0.21675659  0.40797327  1
  O  O182  1  0.86778453  0.21835238  0.74055884  1
  O  O183  1  0.86387797  0.71865705  0.07128745  1
  O  O184  1  0.86847816  0.72216617  0.41128350  1
  O  O185  1  0.87122292  0.71598158  0.74220377  1
  O  O186  1  0.28230384  0.13999349  0.09283979  1
  O  O187  1  0.28263426  0.13084416  0.42997373  1
  O  O188  1  0.27981666  0.13617926  0.75470825  1
  O  O189  1  0.25973706  0.64943755  0.06092542  1
  O  O190  1  0.28932642  0.62934677  0.44296829  1
  O  O191  1  0.27162162  0.62597634  0.75790332  1
  O  O192  1  0.78412212  0.13272725  0.09106589  1
  O  O193  1  0.78026782  0.12987835  0.42350386  1
  O  O194  1  0.77967322  0.13087672  0.75654694  1
  O  O195  1  0.78660860  0.62100363  0.09244479  1
  O  O196  1  0.78190243  0.62924951  0.42321357  1
  O  O197  1  0.78561015  0.62604973  0.76165752  1
  O  O198  1  0.12542599  0.28167057  0.26474701  1
  O  O199  1  0.12752517  0.27983702  0.59367083  1
  O  O200  1  0.13407588  0.26982511  0.91101315  1
  O  O201  1  0.11841329  0.78413564  0.26115809  1
  O  O202  1  0.13293145  0.77876937  0.59075018  1
  O  O203  1  0.13298347  0.78540004  0.92184951  1
  O  O204  1  0.63603041  0.27873514  0.25922500  1
  O  O205  1  0.63382231  0.27821670  0.58619730  1
  O  O206  1  0.63228692  0.28043072  0.92465141  1
  O  O207  1  0.63000758  0.78981294  0.26052374  1
  O  O208  1  0.62988839  0.78214104  0.59204958  1
  O  O209  1  0.62534432  0.79107043  0.92032186  1
  O  O210  1  0.21515153  0.36465028  0.24459722  1
  O  O211  1  0.21774873  0.36720069  0.58135704  1
  O  O212  1  0.21747442  0.36979334  0.90727725  1
  O  O213  1  0.20523458  0.86330883  0.23163909  1
  O  O214  1  0.22471768  0.86649759  0.57944128  1
  O  O215  1  0.21613012  0.87473571  0.90112539  1
  O  O216  1  0.72608971  0.36501638  0.24400033  1
  O  O217  1  0.72152000  0.36811536  0.57209751  1
  O  O218  1  0.72106441  0.36590844  0.90549988  1
  O  O219  1  0.72414942  0.87362458  0.24588215  1
  O  O220  1  0.71648427  0.87079933  0.57485606  1
  O  O221  1  0.72186937  0.87732588  0.90964075  1
  O  O222  1  0.41988776  0.13457099  0.15123417  1
  O  O223  1  0.42099622  0.13463682  0.48793912  1
  O  O224  1  0.41764189  0.13685758  0.81915871  1
  O  O225  1  0.38385844  0.63150740  0.14187504  1
  O  O226  1  0.42781343  0.62373191  0.47948348  1
  O  O227  1  0.40978636  0.62729704  0.81939643  1
  O  O228  1  0.92220691  0.13017778  0.14946604  1
  O  O229  1  0.91810603  0.13051205  0.48502400  1
  O  O230  1  0.91786047  0.13122105  0.81619913  1
  O  O231  1  0.92308449  0.63794357  0.15056899  1
  O  O232  1  0.91945618  0.63696100  0.48879960  1
  O  O233  1  0.92364903  0.63423367  0.82326609  1
  O  O234  1  0.36670549  0.08952779  0.01448824  1
  O  O235  1  0.36956910  0.08771789  0.35242478  1
  O  O236  1  0.36922298  0.08271588  0.68259826  1
  O  O237  1  0.35497570  0.57589332  0.00620246  1
  O  O238  1  0.35394015  0.58550789  0.34532860  1
  O  O239  1  0.36135749  0.57474864  0.68383373  1
  O  O240  1  0.86960324  0.07855005  0.01362211  1
  O  O241  1  0.86973171  0.07843112  0.34930416  1
  O  O242  1  0.86458592  0.08031148  0.67914753  1
  O  O243  1  0.87224914  0.58250797  0.01352314  1
  O  O244  1  0.87526568  0.58420351  0.35261664  1
  O  O245  1  0.87534483  0.57766291  0.68796804  1
  O  O246  1  0.07906199  0.36248952  0.18007058  1
  O  O247  1  0.08085674  0.36436174  0.51394022  1
  O  O248  1  0.07901332  0.36586098  0.84848919  1
  O  O249  1  0.06734706  0.87609466  0.18822907  1
  O  O250  1  0.08743221  0.86641243  0.51417456  1
  O  O251  1  0.07695924  0.87255158  0.84716408  1
  O  O252  1  0.58794801  0.36541937  0.18301910  1
  O  O253  1  0.58273123  0.37127360  0.51775715  1
  O  O254  1  0.58182244  0.37024780  0.85372173  1
  O  O255  1  0.58773352  0.86514477  0.17169651  1
  O  O256  1  0.57739072  0.86915801  0.51596405  1
  O  O257  1  0.58656629  0.87974683  0.84475848  1
  O  O258  1  0.12359053  0.42067201  0.31499930  1
  O  O259  1  0.12329486  0.41822549  0.64952190  1
  O  O260  1  0.12965461  0.40328945  0.98544956  1
  O  O261  1  0.13538171  0.92136131  0.32225288  1
  O  O262  1  0.13448398  0.91681630  0.65110878  1
  O  O263  1  0.13273174  0.92384823  0.98232517  1
  O  O264  1  0.64007039  0.41677947  0.31999536  1
  O  O265  1  0.64010819  0.41514389  0.65406155  1
  O  O266  1  0.64465243  0.41838329  0.99047433  1
  O  O267  1  0.62497091  0.92764255  0.30654016  1
  O  O268  1  0.62935960  0.92088772  0.65133064  1
  O  O269  1  0.62956006  0.92990518  0.98019245  1
  O  O270  1  0.03409206  0.19906444  0.10179802  1
  O  O271  1  0.02975303  0.19832558  0.43891138  1
  O  O272  1  0.02661610  0.19950393  0.76687739  1
  O  O273  1  0.02480983  0.71875530  0.10858427  1
  O  O274  1  0.02699002  0.70843400  0.43505193  1
  O  O275  1  0.03120615  0.70488707  0.77348098  1
  O  O276  1  0.53484722  0.20327463  0.10460644  1
  O  O277  1  0.53012309  0.20439510  0.43838073  1
  O  O278  1  0.53484617  0.19975577  0.77179889  1
  O  O279  1  0.53413064  0.66611597  0.11268920  1
  O  O280  1  0.53271553  0.70570001  0.44027098  1
  O  O281  1  0.53476026  0.67255384  0.75736436  1
  O  O282  1  0.30311616  0.45725591  0.05339374  1
  O  O283  1  0.30335854  0.44992420  0.39718081  1
  O  O284  1  0.29085872  0.46266986  0.73037193  1
  O  O285  1  0.29399249  0.97642288  0.05806417  1
  O  O286  1  0.30583901  0.97000903  0.40490415  1
  O  O287  1  0.29397131  0.97799561  0.72883587  1
  O  O288  1  0.81610238  0.45990791  0.06298329  1
  O  O289  1  0.80874170  0.46793205  0.39877690  1
  O  O290  1  0.79982058  0.46583005  0.72815214  1
  O  O291  1  0.79762788  0.97401323  0.06083031  1
  O  O292  1  0.79572011  0.97127595  0.39513235  1
  O  O293  1  0.79981806  0.96932488  0.72656924  1
  O  O294  1  0.47627388  0.29563839  0.23192456  1
  O  O295  1  0.47365499  0.30257628  0.57112680  1
  O  O296  1  0.46643186  0.30333191  0.89907196  1
  O  O297  1  0.45302686  0.79212275  0.23333797  1
  O  O298  1  0.46931939  0.79610301  0.55707978  1
  O  O299  1  0.44268149  0.82157517  0.88145076  1
  O  O300  1  0.96360876  0.29478784  0.22778093  1
  O  O301  1  0.96664261  0.29828264  0.56191549  1
  O  O302  1  0.96824715  0.29370957  0.89345624  1
  O  O303  1  0.96127719  0.79801128  0.22833997  1
  O  O304  1  0.97404547  0.80170068  0.56230360  1
  O  O305  1  0.97292428  0.80848530  0.89837629  1
  O  O306  1  0.19466290  0.04000449  0.27194581  1
  O  O307  1  0.20069443  0.02975636  0.60263910  1
  O  O308  1  0.20575273  0.03396070  0.93832589  1
  O  O309  1  0.17630067  0.54803207  0.26213696  1
  O  O310  1  0.19256464  0.52819956  0.60701948  1
  O  O311  1  0.19319832  0.52282162  0.93013064  1
  O  O312  1  0.70639539  0.03923687  0.27144407  1
  O  O313  1  0.69671382  0.03112431  0.60183096  1
  O  O314  1  0.70636329  0.04169710  0.93867759  1
  O  O315  1  0.71472493  0.52209390  0.27374325  1
  O  O316  1  0.70702199  0.53112835  0.60376893  1
  O  O317  1  0.70458731  0.52595375  0.93777713  1
  O  O318  1  0.08898332  0.08891829  0.03454108  1
  O  O319  1  0.08767429  0.08778807  0.37654111  1
  O  O320  1  0.09086025  0.09306758  0.70858517  1
  O  O321  1  0.08263300  0.61138236  0.04048069  1
  O  O322  1  0.06869735  0.59143193  0.36452417  1
  O  O323  1  0.07962352  0.59043519  0.70533008  1
  O  O324  1  0.59077677  0.09430577  0.03690069  1
  O  O325  1  0.59093281  0.09567987  0.37919961  1
  O  O326  1  0.58736772  0.08803659  0.70246114  1
  O  O327  1  0.55676067  0.54634149  0.02564135  1
  O  O328  1  0.59365739  0.59466188  0.38400125  1
  O  O329  1  0.57478740  0.55988141  0.67774254  1
  O  O330  1  0.41565377  0.42276041  0.13700742  1
  O  O331  1  0.41139456  0.40481469  0.47803254  1
  O  O332  1  0.40311136  0.41201347  0.79920747  1
  O  O333  1  0.41194952  0.92865707  0.12072876  1
  O  O334  1  0.41248205  0.90874760  0.46829808  1
  O  O335  1  0.41172300  0.92977227  0.78766333  1
  O  O336  1  0.92416212  0.41163171  0.14016797  1
  O  O337  1  0.91961219  0.41343585  0.46531245  1
  O  O338  1  0.91126859  0.41226457  0.79238008  1
  O  O339  1  0.90541375  0.91592861  0.12274675  1
  O  O340  1  0.90720594  0.91478270  0.45625235  1
  O  O341  1  0.91316209  0.91796525  0.79435147  1
  O  O342  1  0.41011147  0.40276050  0.28582816  1
  O  O343  1  0.41247434  0.41058245  0.63630052  1
  O  O344  1  0.39695138  0.40708508  0.95501755  1
  O  O345  1  0.40853243  0.90659733  0.30301401  1
  O  O346  1  0.42402553  0.90942036  0.63169666  1
  O  O347  1  0.42037977  0.92763388  0.97954873  1
  O  O348  1  0.91696762  0.40981463  0.29861554  1
  O  O349  1  0.91737275  0.41219871  0.63111822  1
  O  O350  1  0.91414128  0.40703734  0.95643366  1
  O  O351  1  0.91093945  0.91271619  0.29332578  1
  O  O352  1  0.91331329  0.90999203  0.62313878  1
  O  O353  1  0.92507411  0.92722183  0.96071665  1
  O  O354  1  0.08663990  0.09303742  0.20100604  1
  O  O355  1  0.08964461  0.08299902  0.53322163  1
  O  O356  1  0.09210974  0.08542520  0.87446775  1
  O  O357  1  0.07478129  0.60419681  0.18963367  1
  O  O358  1  0.08062629  0.58395635  0.54201854  1
  O  O359  1  0.08664195  0.59117492  0.87704426  1
  O  O360  1  0.59547453  0.09587333  0.20928631  1
  O  O361  1  0.58353155  0.08244865  0.53469802  1
  O  O362  1  0.59121011  0.09088952  0.87146367  1
  O  O363  1  0.60469310  0.58193667  0.22309968  1
  O  O364  1  0.59779509  0.58575778  0.53555156  1
  O  O365  1  0.58288655  0.56206944  0.86937017  1
  O  O366  1  0.14092223  0.22363854  0.05602953  1
  O  O367  1  0.13833781  0.22135199  0.39521338  1
  O  O368  1  0.13549312  0.22718475  0.72507827  1
  O  O369  1  0.13154235  0.74591865  0.06412151  1
  O  O370  1  0.13915414  0.72068929  0.39288566  1
  O  O371  1  0.13859021  0.72335664  0.72666975  1
  O  O372  1  0.64134104  0.22920018  0.05947079  1
  O  O373  1  0.63900416  0.22929896  0.39548211  1
  O  O374  1  0.63937615  0.22230940  0.72336274  1
  O  O375  1  0.63891013  0.66482326  0.05666842  1
  O  O376  1  0.63569860  0.72477012  0.38941453  1
  O  O377  1  0.63831625  0.68970309  0.70367775  1
  O  O378  1  0.28437694  0.35739310  0.10640787  1
  O  O379  1  0.27614281  0.35425206  0.45314729  1
  O  O380  1  0.27013307  0.35195742  0.77139743  1
  O  O381  1  0.28297994  0.86826089  0.10506497  1
  O  O382  1  0.27628837  0.85983504  0.44440121  1
  O  O383  1  0.28198105  0.86559819  0.76939577  1
  O  O384  1  0.78833194  0.35945424  0.11361312  1
  O  O385  1  0.78548212  0.36235905  0.44612648  1
  O  O386  1  0.77859589  0.35758855  0.77303649  1
  O  O387  1  0.77140931  0.86499579  0.10438538  1
  O  O388  1  0.77408503  0.86089775  0.43761759  1
  O  O389  1  0.78140805  0.86400454  0.77646217  1
  O  O390  1  0.36800016  0.26846784  0.27434594  1
  O  O391  1  0.36217696  0.27484925  0.60929454  1
  O  O392  1  0.35840283  0.27147698  0.93972091  1
  O  O393  1  0.35127592  0.77599981  0.28832856  1
  O  O394  1  0.36559756  0.77696793  0.60791462  1
  O  O395  1  0.35584292  0.79476174  0.94677641  1
  O  O396  1  0.86206562  0.27719900  0.28043076  1
  O  O397  1  0.85981679  0.27883812  0.60861951  1
  O  O398  1  0.86134095  0.27482768  0.94032092  1
  O  O399  1  0.86383580  0.78107321  0.28671142  1
  O  O400  1  0.86251098  0.77600872  0.60134137  1
  O  O401  1  0.86894775  0.79895924  0.95220737  1
  O  O402  1  0.22210184  0.14591809  0.22676148  1
  O  O403  1  0.22380233  0.13807267  0.55912638  1
  O  O404  1  0.22426261  0.13896262  0.88926762  1
  O  O405  1  0.21285180  0.64503173  0.21070335  1
  O  O406  1  0.21436009  0.63392335  0.55944681  1
  O  O407  1  0.22030433  0.63431052  0.88966516  1
  O  O408  1  0.72947057  0.14426816  0.22469767  1
  O  O409  1  0.71715491  0.13725986  0.55492876  1
  O  O410  1  0.72390203  0.14537339  0.88863051  1
  O  O411  1  0.73562774  0.63593280  0.23697099  1
  O  O412  1  0.73142267  0.63852080  0.55864834  1
  O  O413  1  0.70866998  0.63545064  0.89009452  1
  O  O414  1  0.48413535  0.33826348  0.03142177  1
  O  O415  1  0.49270839  0.33383950  0.36534035  1
  O  O416  1  0.49072478  0.33077813  0.70259707  1
  O  O417  1  0.49692604  0.82839969  0.01370484  1
  O  O418  1  0.48565515  0.82636638  0.36896750  1
  O  O419  1  0.50145358  0.82381247  0.69077196  1
  O  O420  1  0.99253320  0.33095854  0.02735794  1
  O  O421  1  0.99518341  0.33007880  0.36330599  1
  O  O422  1  0.99153189  0.32934923  0.69585944  1
  O  O423  1  1.00110956  0.85485168  0.03549284  1
  O  O424  1  0.99534168  0.84360000  0.36564216  1
  O  O425  1  0.98982314  0.83254826  0.69435294  1
  O  O426  1  0.16694207  0.01530687  0.13838830  1
  O  O427  1  0.17225054  0.00724889  0.46936429  1
  O  O428  1  0.16902496  0.00827411  0.80330758  1
  O  O429  1  0.14774432  0.51463756  0.12661875  1
  O  O430  1  0.15465781  0.50248884  0.47247853  1
  O  O431  1  0.15239905  0.50814958  0.79842350  1
  O  O432  1  0.66749156  0.01502760  0.13687981  1
  O  O433  1  0.66431754  0.00579850  0.46743833  1
  O  O434  1  0.66868419  0.01285702  0.80373982  1
  O  O435  1  0.67795044  0.51200956  0.14126365  1
  O  O436  1  0.67939206  0.50756002  0.47084664  1
  O  O437  1  0.67011739  0.50353518  0.80236384  1
  O  O438  1  0.00865117  0.16548711  0.30592699  1
  O  O439  1  0.00842915  0.16480058  0.63444899  1
  O  O440  1  0.00994506  0.16712345  0.96807171  1
  O  O441  1  0.00825502  0.68229143  0.30190762  1
  O  O442  1  0.00702969  0.67228925  0.63930191  1
  O  O443  1  0.00146274  0.69160918  0.97605703  1
  O  O444  1  0.51092866  0.16879635  0.30504967  1
  O  O445  1  0.50813751  0.16775353  0.63734389  1
  O  O446  1  0.51094289  0.17392219  0.97138994  1
  O  O447  1  0.50506000  0.65844537  0.30471435  1
  O  O448  1  0.50256575  0.65024313  0.62269857  1
  O  O449  1  0.50327828  0.65027944  0.97820988  1
  O  O450  1  0.31850147  0.49358254  0.18584492  1
  O  O451  1  0.32848430  0.48799099  0.53333654  1
  O  O452  1  0.31701603  0.48265315  0.86246613  1
  O  O453  1  0.33286306  0.99933074  0.19288735  1
  O  O454  1  0.33627312  0.98789557  0.53732400  1
  O  O455  1  0.33282746  0.99404084  0.86280578  1
  O  O456  1  0.84042032  0.49209125  0.19757873  1
  O  O457  1  0.84310240  0.49293415  0.53378205  1
  O  O458  1  0.83209753  0.48843388  0.86190026  1
  O  O459  1  0.83010629  0.99449028  0.19363313  1
  O  O460  1  0.82897262  0.98988022  0.52789055  1
  O  O461  1  0.83394116  0.99693633  0.86067011  1
