# generated using pymatgen
data_Na31Fe20(SO4)36
_symmetry_space_group_name_H-M   'P 1'
_cell_length_a   18.07835852
_cell_length_b   18.08261777
_cell_length_c   19.71777610
_cell_angle_alpha   107.59386853
_cell_angle_beta   107.56948239
_cell_angle_gamma   90.72264742
_symmetry_Int_Tables_number   1
_chemical_formula_structural   Na31Fe20(SO4)36
_chemical_formula_sum   'Na62 Fe40 S72 O288'
_cell_volume   5819.30451151
_cell_formula_units_Z   2
loop_
 _symmetry_equiv_pos_site_id
 _symmetry_equiv_pos_as_xyz
  1  'x, y, z'
loop_
 _atom_site_type_symbol
 _atom_site_label
 _atom_site_symmetry_multiplicity
 _atom_site_fract_x
 _atom_site_fract_y
 _atom_site_fract_z
 _atom_site_occupancy
  Na  Na0  1  0.13655845  0.36416560  0.08413679  1
  Na  Na1  1  0.12038535  0.36821266  0.40992221  1
  Na  Na2  1  0.15162634  0.34057305  0.74239081  1
  Na  Na3  1  0.13109351  0.86915183  0.08379416  1
  Na  Na4  1  0.13546419  0.86797876  0.41620317  1
  Na  Na5  1  0.13038236  0.86708172  0.74683338  1
  Na  Na6  1  0.64128203  0.37108567  0.09533768  1
  Na  Na7  1  0.63317649  0.37060331  0.41817303  1
  Na  Na8  1  0.61127270  0.35785727  0.73692688  1
  Na  Na9  1  0.65063980  0.86384305  0.09382292  1
  Na  Na10  1  0.64797840  0.87249088  0.42057360  1
  Na  Na11  1  0.63489574  0.85331019  0.74360396  1
  Na  Na12  1  0.37097441  0.13362797  0.25226236  1
  Na  Na13  1  0.37923614  0.17678214  0.61984404  1
  Na  Na14  1  0.36001235  0.13517602  0.90781171  1
  Na  Na15  1  0.37168149  0.63511032  0.25252314  1
  Na  Na16  1  0.37440815  0.63833274  0.59398849  1
  Na  Na17  1  0.36815005  0.63387266  0.91402247  1
  Na  Na18  1  0.86593343  0.13501699  0.25021941  1
  Na  Na19  1  0.84466220  0.12567459  0.57383856  1
  Na  Na20  1  0.86647368  0.14207722  0.92515885  1
  Na  Na21  1  0.83815205  0.64068823  0.24070212  1
  Na  Na22  1  0.86964436  0.62535718  0.57553280  1
  Na  Na23  1  0.86728459  0.63405137  0.91769765  1
  Na  Na24  1  0.98878557  0.00901699  0.40559495  1
  Na  Na25  1  0.98746369  0.50196195  0.09890381  1
  Na  Na26  1  0.96165371  0.00733497  0.74387926  1
  Na  Na27  1  1.01879793  0.48498332  0.71569573  1
  Na  Na28  1  0.49819292  0.06085180  0.43410695  1
  Na  Na29  1  0.49521127  0.50439708  0.07022754  1
  Na  Na30  1  0.97972452  0.04523390  0.15661797  1
  Na  Na31  1  0.54476575  -0.01932761  0.02512420  1
  Na  Na32  1  0.51755525  -0.04071955  0.80471225  1
  Na  Na33  1  -0.01405990  1.00287280  0.58287552  1
  Na  Na34  1  -0.04527758  0.51754296  0.30597894  1
  Na  Na35  1  0.00781126  0.48857487  0.91476778  1
  Na  Na36  1  0.51823894  0.48784804  0.26195282  1
  Na  Na37  1  0.50193431  0.47807580  0.58551012  1
  Na  Na38  1  -0.00625781  0.99736719  0.93347306  1
  Na  Na39  1  0.52023895  0.47850155  0.88357987  1
  Na  Na40  1  0.55992446  0.99626284  0.26481093  1
  Na  Na41  1  0.49390397  1.01376626  0.58733082  1
  Na  Na42  1  0.26669628  0.76270686  0.66502935  1
  Na  Na43  1  0.73891269  0.24276256  0.00854478  1
  Na  Na44  1  0.23198981  0.23921074  0.33903861  1
  Na  Na45  1  0.76282116  0.76164932  0.65683888  1
  Na  Na46  1  0.73298911  0.24145114  0.66911542  1
  Na  Na47  1  0.25882191  0.75579704  -0.00638987  1
  Na  Na48  1  0.25664999  0.25752045  -0.01307913  1
  Na  Na49  1  0.74256063  0.74263596  0.00683469  1
  Na  Na50  1  0.74760777  0.24721571  0.33513297  1
  Na  Na51  1  0.25436461  0.75270259  0.33047102  1
  Na  Na52  1  0.76586451  0.76410757  0.48499190  1
  Na  Na53  1  0.74456210  0.74568010  0.83733001  1
  Na  Na54  1  0.25468633  0.75370649  0.16242461  1
  Na  Na55  1  0.26374345  0.75994185  0.82526804  1
  Na  Na56  1  0.23148820  0.24272345  0.50927929  1
  Na  Na57  1  0.23659868  0.24193897  0.17388603  1
  Na  Na58  1  0.73872670  0.24144590  0.83661396  1
  Na  Na59  1  0.72468344  0.22603597  0.50149124  1
  Na  Na60  1  0.74485184  0.24278392  0.17043954  1
  Na  Na61  1  0.25751609  0.75481667  0.50080047  1
  Fe  Fe62  1  0.96664449  0.80868419  0.44906259  1
  Fe  Fe63  1  0.96350878  0.81295221  0.12312538  1
  Fe  Fe64  1  0.96395403  0.30328225  0.78322440  1
  Fe  Fe65  1  0.96111831  0.30442209  0.44790806  1
  Fe  Fe66  1  0.47058627  0.80546746  0.12097270  1
  Fe  Fe67  1  0.96552024  0.80786231  0.78693661  1
  Fe  Fe68  1  0.96886809  0.30466703  0.12717643  1
  Fe  Fe69  1  0.46924609  0.80866932  0.45503879  1
  Fe  Fe70  1  0.46143743  0.30919618  0.11686014  1
  Fe  Fe71  1  0.46360780  0.30450194  0.45198604  1
  Fe  Fe72  1  0.18901913  0.03667088  0.38037979  1
  Fe  Fe73  1  0.19060563  0.03864208  0.71634588  1
  Fe  Fe74  1  0.19325728  0.03521139  0.04917127  1
  Fe  Fe75  1  0.69438791  0.53311955  0.71117103  1
  Fe  Fe76  1  0.19438007  0.53395879  0.04681800  1
  Fe  Fe77  1  0.70407450  0.53157559  0.37902316  1
  Fe  Fe78  1  0.19294156  0.53462232  0.71354100  1
  Fe  Fe79  1  0.69951762  0.02690693  0.70604187  1
  Fe  Fe80  1  0.69547205  0.53355591  0.04979401  1
  Fe  Fe81  1  0.19239069  0.53655598  0.38019612  1
  Fe  Fe82  1  0.03349981  0.19126241  0.54890583  1
  Fe  Fe83  1  0.52903160  0.19541880  0.87429271  1
  Fe  Fe84  1  0.03488820  0.19060255  0.88132699  1
  Fe  Fe85  1  0.03662989  0.69251560  0.54695965  1
  Fe  Fe86  1  0.54030605  0.69014343  0.21407213  1
  Fe  Fe87  1  0.53550271  0.68835436  0.54438606  1
  Fe  Fe88  1  0.03551495  0.69246310  0.88116404  1
  Fe  Fe89  1  0.53491929  0.18737780  0.20548148  1
  Fe  Fe90  1  0.03236491  0.69812492  0.21515822  1
  Fe  Fe91  1  0.53125335  0.69417369  0.87283149  1
  Fe  Fe92  1  0.31221581  0.96721367  0.29039445  1
  Fe  Fe93  1  0.80893194  0.46267632  0.95189803  1
  Fe  Fe94  1  0.30744156  0.46258366  0.62247519  1
  Fe  Fe95  1  0.80628519  0.46322743  0.61643628  1
  Fe  Fe96  1  0.79776554  0.96599650  0.28718721  1
  Fe  Fe97  1  0.31049431  0.96530506  0.95477716  1
  Fe  Fe98  1  0.30660907  0.46154488  0.94261932  1
  Fe  Fe99  1  0.30931810  0.96903608  0.62362652  1
  Fe  Fe100  1  0.80136138  0.97143215  0.96186131  1
  Fe  Fe101  1  0.31229385  0.46617555  0.28935760  1
  S  S102  1  0.35554334  0.14234432  0.08141917  1
  S  S103  1  0.35469672  0.14450730  0.42025243  1
  S  S104  1  0.35698186  0.14005419  0.75118833  1
  S  S105  1  0.36166643  0.64019788  0.08308211  1
  S  S106  1  0.35997320  0.64122850  0.41615220  1
  S  S107  1  0.35642236  0.63918431  0.75053013  1
  S  S108  1  0.85538191  0.14701092  0.07862310  1
  S  S109  1  0.85898091  0.13652568  0.41670465  1
  S  S110  1  0.85922191  0.14203309  0.75227732  1
  S  S111  1  0.86216207  0.63848323  0.08193956  1
  S  S112  1  0.86386697  0.64573521  0.41771312  1
  S  S113  1  0.86221649  0.63951996  0.74992150  1
  S  S114  1  0.14343287  0.36506739  0.24824231  1
  S  S115  1  0.13205634  0.36298986  0.58461808  1
  S  S116  1  0.13823853  0.35980010  0.91492605  1
  S  S117  1  0.14251797  0.85951218  0.25119018  1
  S  S118  1  0.14224652  0.86136100  0.58296540  1
  S  S119  1  0.14091640  0.85932151  0.91955491  1
  S  S120  1  0.63653109  0.35921444  0.24971215  1
  S  S121  1  0.63875506  0.36022958  0.57924076  1
  S  S122  1  0.64363253  0.36015737  0.91746817  1
  S  S123  1  0.64334895  0.85418590  0.24804740  1
  S  S124  1  0.64352767  0.85339690  0.58379043  1
  S  S125  1  0.64384566  0.85463348  0.91611010  1
  S  S126  1  0.06895784  0.17122942  0.04298874  1
  S  S127  1  0.06206911  0.16681224  0.37599474  1
  S  S128  1  0.06044330  0.16222279  0.70742628  1
  S  S129  1  0.06801765  0.66941042  0.04317223  1
  S  S130  1  0.07085211  0.67459275  0.37666324  1
  S  S131  1  0.06932843  0.67278998  0.71211163  1
  S  S132  1  0.56526655  0.17882936  0.04197769  1
  S  S133  1  0.56136479  0.17484853  0.37163432  1
  S  S134  1  0.57341575  0.16372170  0.70900817  1
  S  S135  1  0.56778455  0.66721269  0.03723014  1
  S  S136  1  0.57219182  0.67119797  0.37757510  1
  S  S137  1  0.56898176  0.66221115  0.70506452  1
  S  S138  1  0.32958788  0.43648987  0.12349929  1
  S  S139  1  0.32438778  0.43034648  0.45483958  1
  S  S140  1  0.32912804  0.43784297  0.79209251  1
  S  S141  1  0.33036624  0.93021770  0.12475267  1
  S  S142  1  0.32978603  0.93312220  0.45753492  1
  S  S143  1  0.32216135  0.93125614  0.78929893  1
  S  S144  1  0.83387501  0.43552495  0.12451900  1
  S  S145  1  0.82867518  0.42952168  0.45707078  1
  S  S146  1  0.83152151  0.43122353  0.78981503  1
  S  S147  1  0.83382948  0.93277763  0.12811081  1
  S  S148  1  0.83874656  0.93440696  0.45509942  1
  S  S149  1  0.83134035  0.93406883  0.79650220  1
  S  S150  1  0.42838075  0.32921512  0.28821726  1
  S  S151  1  0.42798064  0.33853925  0.61786304  1
  S  S152  1  0.43434830  0.33241716  0.95991480  1
  S  S153  1  0.43451054  0.82948900  0.29169933  1
  S  S154  1  0.43630396  0.83427098  0.62329163  1
  S  S155  1  0.43358399  0.82678786  0.95797777  1
  S  S156  1  0.92607992  0.32720110  0.28891135  1
  S  S157  1  0.92512735  0.32087361  0.62085193  1
  S  S158  1  0.93645296  0.33213709  0.95770052  1
  S  S159  1  0.93095050  0.83060879  0.29107653  1
  S  S160  1  0.94042188  0.83116493  0.62475743  1
  S  S161  1  0.93194914  0.82914954  0.95788703  1
  S  S162  1  0.17807894  0.06661595  0.21387561  1
  S  S163  1  0.16586797  0.06693478  0.54206827  1
  S  S164  1  0.16382452  0.06306712  0.87614829  1
  S  S165  1  0.17053472  0.57278438  0.20778403  1
  S  S166  1  0.17646552  0.57378511  0.54535370  1
  S  S167  1  0.16602289  0.56583718  0.87603048  1
  S  S168  1  0.67077240  0.06329129  0.20318168  1
  S  S169  1  0.66659011  0.05673429  0.54476451  1
  S  S170  1  0.67343675  0.06743470  0.87169699  1
  S  S171  1  0.65949310  0.56440369  0.20549454  1
  S  S172  1  0.67669905  0.57075952  0.54362317  1
  S  S173  1  0.67431908  0.56702560  0.87576993  1
  O  O174  1  0.36313496  0.22218742  0.07501144  1
  O  O175  1  0.36355129  0.22264627  0.40935264  1
  O  O176  1  0.36735671  0.21572052  0.74195365  1
  O  O177  1  0.37000069  0.71963602  0.07536550  1
  O  O178  1  0.36990002  0.71969917  0.40672627  1
  O  O179  1  0.36126949  0.71673832  0.74237190  1
  O  O180  1  0.87598687  0.22064444  0.06291011  1
  O  O181  1  0.87006578  0.21256248  0.40333809  1
  O  O182  1  0.86377535  0.22401249  0.74992629  1
  O  O183  1  0.87227988  0.71617304  0.07193775  1
  O  O184  1  0.87194427  0.73053434  0.42416910  1
  O  O185  1  0.87013825  0.71836524  0.74075081  1
  O  O186  1  0.27755196  0.13210955  0.09183204  1
  O  O187  1  0.27096976  0.13420786  0.41779376  1
  O  O188  1  0.28011516  0.12701502  0.76300607  1
  O  O189  1  0.28194333  0.63120333  0.09004191  1
  O  O190  1  0.27955680  0.63371077  0.42200708  1
  O  O191  1  0.27952645  0.62737645  0.76442146  1
  O  O192  1  0.77327556  0.14699772  0.07536288  1
  O  O193  1  0.78517437  0.13108337  0.43139520  1
  O  O194  1  0.77845493  0.12759827  0.75691369  1
  O  O195  1  0.78291927  0.62885778  0.08811742  1
  O  O196  1  0.78539144  0.63181403  0.42587256  1
  O  O197  1  0.78359776  0.62950113  0.75832636  1
  O  O198  1  0.14265826  0.28760888  0.25660786  1
  O  O199  1  0.12275162  0.28577747  0.59653751  1
  O  O200  1  0.12812334  0.28190086  0.92468399  1
  O  O201  1  0.13155491  0.78131526  0.26130137  1
  O  O202  1  0.13752265  0.78283084  0.59303051  1
  O  O203  1  0.13048263  0.78104004  0.92939300  1
  O  O204  1  0.62429324  0.28003841  0.25783280  1
  O  O205  1  0.63027590  0.28242962  0.58552273  1
  O  O206  1  0.63281867  0.28112667  0.92454033  1
  O  O207  1  0.63389550  0.77305262  0.24844195  1
  O  O208  1  0.62559522  0.77832337  0.59704957  1
  O  O209  1  0.63438576  0.76870513  0.90954018  1
  O  O210  1  0.21958169  0.38180342  0.23516412  1
  O  O211  1  0.21109923  0.37208629  0.57737401  1
  O  O212  1  0.21892794  0.36981483  0.91305956  1
  O  O213  1  0.22268558  0.86543927  0.24465550  1
  O  O214  1  0.22210637  0.87266544  0.57603622  1
  O  O215  1  0.22172461  0.86680129  0.91529935  1
  O  O216  1  0.70981199  0.36477502  0.23432475  1
  O  O217  1  0.71698564  0.37193388  0.56950886  1
  O  O218  1  0.72521067  0.36732313  0.91294259  1
  O  O219  1  0.72131711  0.86812560  0.23748230  1
  O  O220  1  0.72077841  0.85350478  0.57500340  1
  O  O221  1  0.72859260  0.86730504  0.92079762  1
  O  O222  1  0.41597435  0.13295830  0.14736717  1
  O  O223  1  0.40800691  0.13845370  0.48995250  1
  O  O224  1  0.41811908  0.12904250  0.81738435  1
  O  O225  1  0.42033330  0.63417156  0.15214235  1
  O  O226  1  0.41658993  0.63418328  0.48511963  1
  O  O227  1  0.41819068  0.63208955  0.81770293  1
  O  O228  1  0.90628183  0.14267596  0.15039082  1
  O  O229  1  0.92440081  0.12594113  0.47989909  1
  O  O230  1  0.91604887  0.13514335  0.82295617  1
  O  O231  1  0.92088671  0.63146622  0.15097535  1
  O  O232  1  0.92377715  0.63124793  0.48244956  1
  O  O233  1  0.92105343  0.63485875  0.81987565  1
  O  O234  1  0.35952241  0.08477957  0.01098469  1
  O  O235  1  0.36890295  0.08447997  0.35445416  1
  O  O236  1  0.36242459  0.07810232  0.68177379  1
  O  O237  1  0.37069702  0.58080360  0.01603677  1
  O  O238  1  0.36775316  0.58171707  0.34826497  1
  O  O239  1  0.36158157  0.57927277  0.68197900  1
  O  O240  1  0.86805855  0.08145009  0.01558480  1
  O  O241  1  0.86225913  0.07433585  0.34610876  1
  O  O242  1  0.87339223  0.08727109  0.68728971  1
  O  O243  1  0.87307271  0.57794967  0.01552025  1
  O  O244  1  0.87013690  0.59759194  0.34604801  1
  O  O245  1  0.87237192  0.57964766  0.68383810  1
  O  O246  1  0.08102113  0.37084329  0.18093444  1
  O  O247  1  0.07406510  0.36786376  0.51526029  1
  O  O248  1  0.08172159  0.36564950  0.84429014  1
  O  O249  1  0.08501643  0.86433859  0.18138724  1
  O  O250  1  0.08428330  0.86555246  0.51288940  1
  O  O251  1  0.08420778  0.86565613  0.84999272  1
  O  O252  1  0.57111824  0.37224869  0.18734638  1
  O  O253  1  0.57844213  0.37170749  0.51263696  1
  O  O254  1  0.58792613  0.37087342  0.85064040  1
  O  O255  1  0.58312622  0.86534908  0.18040035  1
  O  O256  1  0.58374985  0.86440772  0.51780857  1
  O  O257  1  0.59360885  0.86889781  0.84847923  1
  O  O258  1  0.13557256  0.42438762  0.31671386  1
  O  O259  1  0.12312960  0.42421199  0.65174778  1
  O  O260  1  0.12536153  0.42084505  0.98035883  1
  O  O261  1  0.13449700  0.91969497  0.31801878  1
  O  O262  1  0.13091208  0.92088324  0.64869811  1
  O  O263  1  0.13019802  0.91947519  0.98575560  1
  O  O264  1  0.63346225  0.41880677  0.32057572  1
  O  O265  1  0.63232978  0.42069552  0.64831105  1
  O  O266  1  0.63651412  0.41928663  0.98667600  1
  O  O267  1  0.63543946  0.91028408  0.31570706  1
  O  O268  1  0.64108566  0.91630279  0.65386899  1
  O  O269  1  0.62994546  0.90143377  0.98479775  1
  O  O270  1  0.03545889  0.20121419  0.10339783  1
  O  O271  1  0.03208044  0.20249982  0.44190258  1
  O  O272  1  0.02557815  0.19614752  0.76991731  1
  O  O273  1  0.03325143  0.69982818  0.10477171  1
  O  O274  1  0.03442047  0.70536707  0.43740529  1
  O  O275  1  0.03235021  0.70272282  0.77335736  1
  O  O276  1  0.52348561  0.20835154  0.10075834  1
  O  O277  1  0.52052467  0.20668392  0.42832124  1
  O  O278  1  0.54892875  0.18657053  0.77654574  1
  O  O279  1  0.53082550  0.69576590  0.09843740  1
  O  O280  1  0.53129442  0.69740620  0.43608604  1
  O  O281  1  0.53086389  0.68149697  0.76341207  1
  O  O282  1  0.29972364  0.47247792  0.06199185  1
  O  O283  1  0.29822488  0.47102789  0.39603801  1
  O  O284  1  0.28832920  0.46719213  0.72667543  1
  O  O285  1  0.30184365  0.96839339  0.06452776  1
  O  O286  1  0.29868498  0.96884488  0.39599807  1
  O  O287  1  0.28905840  0.96821942  0.72878872  1
  O  O288  1  0.80141256  0.46924137  0.06003186  1
  O  O289  1  0.80229966  0.47001537  0.40071879  1
  O  O290  1  0.80197265  0.46827287  0.72935459  1
  O  O291  1  0.81481454  0.97643925  0.07414174  1
  O  O292  1  0.80931520  0.96005978  0.38710064  1
  O  O293  1  0.80319334  0.97149778  0.73710894  1
  O  O294  1  0.46339349  0.29665958  0.22706021  1
  O  O295  1  0.46586379  0.32229432  0.55769270  1
  O  O296  1  0.47040137  0.30115692  0.90133837  1
  O  O297  1  0.47166990  0.79977454  0.23125357  1
  O  O298  1  0.46610771  0.79818761  0.55761684  1
  O  O299  1  0.46992024  0.79730492  0.89894672  1
  O  O300  1  0.96334951  0.30465077  0.22909071  1
  O  O301  1  0.95911653  0.29118910  0.55855489  1
  O  O302  1  0.97292440  0.30326457  0.89629923  1
  O  O303  1  0.96673868  0.80236041  0.22807098  1
  O  O304  1  0.98122632  0.79729289  0.56759514  1
  O  O305  1  0.97110109  0.80119896  0.89800702  1
  O  O306  1  0.20915934  0.02522668  0.27181175  1
  O  O307  1  0.19704519  0.03321243  0.60450736  1
  O  O308  1  0.19493843  0.02554698  0.93640631  1
  O  O309  1  0.19979723  0.54097783  0.27123382  1
  O  O310  1  0.20284683  0.53411919  0.60391524  1
  O  O311  1  0.19997725  0.52988764  0.93693421  1
  O  O312  1  0.70186995  0.02723248  0.26517004  1
  O  O313  1  0.70599331  0.02602093  0.60943392  1
  O  O314  1  0.69954736  0.02638956  0.92748651  1
  O  O315  1  0.68408251  0.53108017  0.26706716  1
  O  O316  1  0.70668509  0.53355213  0.60479187  1
  O  O317  1  0.70370895  0.52897730  0.93592074  1
  O  O318  1  0.08852582  0.08911247  0.03726881  1
  O  O319  1  0.08718039  0.08896208  0.38189505  1
  O  O320  1  0.07471247  0.07962571  0.70502312  1
  O  O321  1  0.08467656  0.58679963  0.03649134  1
  O  O322  1  0.08702316  0.59281293  0.37115206  1
  O  O323  1  0.08918783  0.59254707  0.71041191  1
  O  O324  1  0.58602653  0.10159191  0.04088402  1
  O  O325  1  0.57738531  0.09534612  0.37245436  1
  O  O326  1  0.60458098  0.08448020  0.70063406  1
  O  O327  1  0.58428530  0.58426490  0.03115573  1
  O  O328  1  0.59516418  0.59167594  0.37345942  1
  O  O329  1  0.58802586  0.57924818  0.68967164  1
  O  O330  1  0.41244373  0.42148331  0.13048784  1
  O  O331  1  0.40281045  0.40556332  0.45550843  1
  O  O332  1  0.40886999  0.42711056  0.79289196  1
  O  O333  1  0.40947020  0.90774069  0.12886299  1
  O  O334  1  0.41132346  0.91521637  0.46196360  1
  O  O335  1  0.39876616  0.90820334  0.78825155  1
  O  O336  1  0.91254741  0.41144391  0.12224009  1
  O  O337  1  0.90736687  0.40568384  0.46119642  1
  O  O338  1  0.91343225  0.41288636  0.79422829  1
  O  O339  1  0.91885980  0.91977549  0.14370934  1
  O  O340  1  0.92180696  0.91402543  0.45993995  1
  O  O341  1  0.91465064  0.91738251  0.80086422  1
  O  O342  1  0.41485980  0.41178265  0.29116289  1
  O  O343  1  0.41542578  0.42379943  0.63565860  1
  O  O344  1  0.41186708  0.41300291  0.95948940  1
  O  O345  1  0.41582888  0.91061363  0.29664706  1
  O  O346  1  0.41259750  0.91269845  0.62031536  1
  O  O347  1  0.41353232  0.90817722  0.96271955  1
  O  O348  1  0.90319274  0.40567849  0.30009348  1
  O  O349  1  0.90794134  0.40293737  0.62834473  1
  O  O350  1  0.92248027  0.41623347  0.96492625  1
  O  O351  1  0.90429459  0.90908628  0.29274027  1
  O  O352  1  0.92866922  0.91201867  0.62733541  1
  O  O353  1  0.91279138  0.90968422  0.96257513  1
  O  O354  1  0.10288553  0.09081456  0.21715055  1
  O  O355  1  0.08190573  0.08027755  0.53584877  1
  O  O356  1  0.08054809  0.07736739  0.87029737  1
  O  O357  1  0.08921126  0.59268679  0.20080647  1
  O  O358  1  0.09860605  0.59877737  0.54434130  1
  O  O359  1  0.08404933  0.58144545  0.87431884  1
  O  O360  1  0.59204610  0.08684491  0.20784847  1
  O  O361  1  0.58444541  0.06477282  0.54203489  1
  O  O362  1  0.59169838  0.08460531  0.86467900  1
  O  O363  1  0.57320303  0.57630181  0.19208515  1
  O  O364  1  0.59601659  0.58841845  0.53972906  1
  O  O365  1  0.59430893  0.58727993  0.87361348  1
  O  O366  1  0.13991652  0.22190794  0.05399985  1
  O  O367  1  0.13106672  0.22012423  0.38727200  1
  O  O368  1  0.13182483  0.20945016  0.71989133  1
  O  O369  1  0.13969316  0.72010378  0.05780595  1
  O  O370  1  0.14292745  0.72577806  0.39306432  1
  O  O371  1  0.13979127  0.72551422  0.72807313  1
  O  O372  1  0.63467301  0.23588666  0.06290733  1
  O  O373  1  0.63375991  0.22638120  0.38943120  1
  O  O374  1  0.63786144  0.22285966  0.72008343  1
  O  O375  1  0.63881662  0.71817997  0.05317937  1
  O  O376  1  0.63892982  0.72829801  0.39458528  1
  O  O377  1  0.64066518  0.71573573  0.72576016  1
  O  O378  1  0.27909999  0.36382587  0.10554450  1
  O  O379  1  0.26630044  0.36353667  0.43761857  1
  O  O380  1  0.28238706  0.36883792  0.78725496  1
  O  O381  1  0.27399424  0.86072951  0.10692420  1
  O  O382  1  0.27796748  0.86071877  0.44031543  1
  O  O383  1  0.26632998  0.86240200  0.77466557  1
  O  O384  1  0.78012625  0.36678265  0.11140773  1
  O  O385  1  0.77231938  0.36089557  0.44090436  1
  O  O386  1  0.77887487  0.36169395  0.77534545  1
  O  O387  1  0.78410476  0.85875565  0.10313580  1
  O  O388  1  0.78757566  0.86691923  0.44655343  1
  O  O389  1  0.78159351  0.86071716  0.77872348  1
  O  O390  1  0.35488324  0.28114682  0.27335471  1
  O  O391  1  0.35253432  0.29020047  0.59061463  1
  O  O392  1  0.36599765  0.28123213  0.95188029  1
  O  O393  1  0.36268189  0.77640070  0.27359090  1
  O  O394  1  0.36652571  0.78162921  0.61216809  1
  O  O395  1  0.36144922  0.77494913  0.94283370  1
  O  O396  1  0.85787148  0.26936294  0.27178637  1
  O  O397  1  0.85486600  0.26961214  0.60827865  1
  O  O398  1  0.86297421  0.28300693  0.93850898  1
  O  O399  1  0.86814197  0.77385423  0.28157123  1
  O  O400  1  0.86758325  0.78022653  0.60592542  1
  O  O401  1  0.86251455  0.77411149  0.93979403  1
  O  O402  1  0.23541151  0.13451415  0.23011982  1
  O  O403  1  0.21315834  0.13914359  0.55483392  1
  O  O404  1  0.21309680  0.13595232  0.89389723  1
  O  O405  1  0.22359615  0.64228155  0.21997716  1
  O  O406  1  0.23345962  0.64185582  0.56141237  1
  O  O407  1  0.21519419  0.63820556  0.89089937  1
  O  O408  1  0.72381522  0.13411761  0.21909165  1
  O  O409  1  0.71094894  0.13473285  0.56314609  1
  O  O410  1  0.72606624  0.14017075  0.89169277  1
  O  O411  1  0.70599315  0.63665950  0.21879048  1
  O  O412  1  0.73013005  0.64155825  0.56127975  1
  O  O413  1  0.72895030  0.63728047  0.89351383  1
  O  O414  1  0.49445497  0.34668249  0.03662433  1
  O  O415  1  0.48562840  0.33096159  0.36154146  1
  O  O416  1  0.48209511  0.32440288  0.68412708  1
  O  O417  1  0.49179583  0.83184581  0.03236885  1
  O  O418  1  0.49228511  0.83044359  0.36411363  1
  O  O419  1  0.49894249  0.84374431  0.69360240  1
  O  O420  1  0.99420899  0.33173072  0.02941130  1
  O  O421  1  0.98758933  0.32355356  0.35960674  1
  O  O422  1  0.98811172  0.32454600  0.69267664  1
  O  O423  1  0.99043573  0.83069700  0.03097209  1
  O  O424  1  0.99737904  0.84129698  0.36217815  1
  O  O425  1  0.99442010  0.83235943  0.70046938  1
  O  O426  1  0.17166978  0.00831135  0.13870469  1
  O  O427  1  0.16482243  0.00591365  0.47038580  1
  O  O428  1  0.16326112  0.00586864  0.80335481  1
  O  O429  1  0.16708471  0.51024737  0.13610925  1
  O  O430  1  0.16977889  0.51483081  0.47121895  1
  O  O431  1  0.16030790  0.50674844  0.80251003  1
  O  O432  1  0.65962495  0.00405776  0.13061666  1
  O  O433  1  0.67144543  0.00257802  0.47519027  1
  O  O434  1  0.67445291  0.01135914  0.79679677  1
  O  O435  1  0.66155906  0.50441561  0.13381789  1
  O  O436  1  0.67556039  0.51213197  0.47161195  1
  O  O437  1  0.67137013  0.50889152  0.80267972  1
  O  O438  1  0.00001774  0.15374272  0.30513169  1
  O  O439  1  -0.00035238  0.15724648  0.63442839  1
  O  O440  1  0.00861268  0.16476958  0.96834535  1
  O  O441  1  0.01134475  0.67289271  0.30458113  1
  O  O442  1  0.01017581  0.66894643  0.63964648  1
  O  O443  1  0.00821572  0.66762627  0.97097888  1
  O  O444  1  0.50628287  0.17024125  0.29582169  1
  O  O445  1  0.50672926  0.15331937  0.64146776  1
  O  O446  1  0.50827087  0.17800884  0.96874969  1
  O  O447  1  0.51198325  0.66548138  0.30350571  1
  O  O448  1  0.51073846  0.66682503  0.63414675  1
  O  O449  1  0.50812917  0.66546399  0.96497541  1
  O  O450  1  0.32982691  0.49501584  0.19566148  1
  O  O451  1  0.33234070  0.48939463  0.52894978  1
  O  O452  1  0.32982785  0.50263368  0.86313859  1
  O  O453  1  0.33344250  0.98926208  0.19753944  1
  O  O454  1  0.33147573  0.99191417  0.52923446  1
  O  O455  1  0.32644420  0.99043147  0.86304181  1
  O  O456  1  0.84302832  0.49894477  0.19449333  1
  O  O457  1  0.83527696  0.48802069  0.53286614  1
  O  O458  1  0.83731494  0.49119097  0.86366068  1
  O  O459  1  0.82547395  0.98598517  0.20059326  1
  O  O460  1  0.84812615  1.00004852  0.52318793  1
  O  O461  1  0.83627360  0.99094971  0.87082539  1
