# generated using pymatgen
data_Na31Fe20(SO4)36
_symmetry_space_group_name_H-M   'P 1'
_cell_length_a   18.09481411
_cell_length_b   18.08755502
_cell_length_c   19.73779599
_cell_angle_alpha   107.57762689
_cell_angle_beta   107.57136641
_cell_angle_gamma   90.80222347
_symmetry_Int_Tables_number   1
_chemical_formula_structural   Na31Fe20(SO4)36
_chemical_formula_sum   'Na62 Fe40 S72 O288'
_cell_volume   5831.59201054
_cell_formula_units_Z   2
loop_
 _symmetry_equiv_pos_site_id
 _symmetry_equiv_pos_as_xyz
  1  'x, y, z'
loop_
 _atom_site_type_symbol
 _atom_site_label
 _atom_site_symmetry_multiplicity
 _atom_site_fract_x
 _atom_site_fract_y
 _atom_site_fract_z
 _atom_site_occupancy
  Na  Na0  1  0.13707855  0.35589854  0.08227557  1
  Na  Na1  1  0.15335299  0.35595092  0.42274008  1
  Na  Na2  1  0.13980074  0.36655412  0.75157398  1
  Na  Na3  1  0.13260433  0.86676110  0.08345292  1
  Na  Na4  1  0.12685889  0.86501119  0.41152003  1
  Na  Na5  1  0.12562030  0.87119094  0.74666236  1
  Na  Na6  1  0.64218477  0.36843252  0.09043254  1
  Na  Na7  1  0.63089365  0.37294881  0.41385098  1
  Na  Na8  1  0.63436449  0.37820800  0.75388571  1
  Na  Na9  1  0.64590479  0.87256938  0.10048445  1
  Na  Na10  1  0.62380867  0.85039290  0.40240897  1
  Na  Na11  1  0.62354776  0.85906133  0.73375202  1
  Na  Na12  1  0.36583315  0.14124728  0.25954245  1
  Na  Na13  1  0.34379236  0.14935352  0.57547373  1
  Na  Na14  1  0.36474701  0.13711490  0.91377782  1
  Na  Na15  1  0.38244411  0.63093370  0.25405941  1
  Na  Na16  1  0.37397789  0.63408143  0.58197991  1
  Na  Na17  1  0.37391650  0.62245222  0.91551598  1
  Na  Na18  1  0.85472979  0.13579232  0.24323696  1
  Na  Na19  1  0.87558082  0.12504027  0.58393193  1
  Na  Na20  1  0.86954426  0.14454822  0.93017706  1
  Na  Na21  1  0.86336364  0.63476791  0.25187089  1
  Na  Na22  1  0.85301983  0.62638979  0.57154611  1
  Na  Na23  1  0.86340378  0.63073868  0.91121632  1
  Na  Na24  1  0.51374016  0.56283212  0.43563848  1
  Na  Na25  1  0.97493212  0.51087176  0.74906880  1
  Na  Na26  1  0.96083460  0.00400376  0.42198550  1
  Na  Na27  1  0.47666984  0.52780993  0.08708533  1
  Na  Na28  1  0.48828415  0.00623649  0.09066354  1
  Na  Na29  1  0.99016805  0.01716743  0.08259763  1
  Na  Na30  1  0.49338594  0.02716806  0.72687173  1
  Na  Na31  1  1.00980581  0.48115527  0.09144392  1
  Na  Na32  1  0.97770488  0.50815239  0.41617962  1
  Na  Na33  1  0.02219962  0.48637587  0.92189878  1
  Na  Na34  1  0.00135360  0.45296572  0.24352552  1
  Na  Na35  1  -0.02261444  1.00828718  0.26114215  1
  Na  Na36  1  0.47386070  0.80561794  0.45778386  1
  Na  Na37  1  0.51125297  0.97604008  0.27726372  1
  Na  Na38  1  0.02178492  0.48729049  0.58701250  1
  Na  Na39  1  0.51403898  0.99303910  0.90987900  1
  Na  Na40  1  0.00675616  1.00054597  0.89583435  1
  Na  Na41  1  0.55027631  0.49740062  0.61823433  1
  Na  Na42  1  0.75806101  0.25982927  0.32130805  1
  Na  Na43  1  0.72414059  0.72482023  0.67211449  1
  Na  Na44  1  0.73144241  0.73021297  0.33667093  1
  Na  Na45  1  0.74059482  0.74332371  0.00956130  1
  Na  Na46  1  0.75144291  0.25017986  0.66575989  1
  Na  Na47  1  0.26536883  0.26718556  -0.00724037  1
  Na  Na48  1  0.24977735  0.74612585  -0.00086772  1
  Na  Na49  1  0.74819847  0.24691652  0.01537116  1
  Na  Na50  1  0.26254860  0.75947619  0.33017505  1
  Na  Na51  1  0.25566696  0.75637608  0.65995756  1
  Na  Na52  1  0.71474981  0.71955273  0.50239194  1
  Na  Na53  1  0.24212157  0.24469787  0.17877428  1
  Na  Na54  1  0.26227799  0.76093279  0.49269730  1
  Na  Na55  1  0.75344227  0.24969435  0.83774863  1
  Na  Na56  1  0.26749377  0.27123405  0.82284284  1
  Na  Na57  1  0.25607437  0.75324589  0.16589541  1
  Na  Na58  1  0.73510885  0.73263643  0.83814829  1
  Na  Na59  1  0.25178165  0.75373556  0.82989697  1
  Na  Na60  1  0.75379976  0.24779758  0.49404315  1
  Na  Na61  1  0.73869779  0.74708898  0.17997624  1
  Fe  Fe62  1  0.46838485  0.31472760  0.12457073  1
  Fe  Fe63  1  0.46599730  0.31449144  0.78832242  1
  Fe  Fe64  1  0.46373200  0.30959442  0.45522283  1
  Fe  Fe65  1  0.96965339  0.30873145  0.45437960  1
  Fe  Fe66  1  0.46086711  0.80951583  0.78794255  1
  Fe  Fe67  1  0.96706972  0.30534832  0.78616254  1
  Fe  Fe68  1  0.96383128  0.80946986  0.11939231  1
  Fe  Fe69  1  0.96313803  0.80681242  0.45277912  1
  Fe  Fe70  1  0.46830527  0.80122889  0.12553062  1
  Fe  Fe71  1  0.96287891  0.80459201  0.78127045  1
  Fe  Fe72  1  0.20181080  0.53218924  0.04694652  1
  Fe  Fe73  1  0.69350763  0.03321192  0.70698124  1
  Fe  Fe74  1  0.18739012  0.04235724  0.38429419  1
  Fe  Fe75  1  0.70259834  0.03024464  0.37809977  1
  Fe  Fe76  1  0.19869500  0.53012381  0.71717760  1
  Fe  Fe77  1  0.18749177  0.03962358  0.71203438  1
  Fe  Fe78  1  0.68871071  0.53624965  0.04285120  1
  Fe  Fe79  1  0.19438496  0.53236374  0.38260285  1
  Fe  Fe80  1  0.19323379  0.03682913  0.05056811  1
  Fe  Fe81  1  0.69513947  0.03337170  0.05089242  1
  Fe  Fe82  1  0.03608062  0.69162002  0.54745036  1
  Fe  Fe83  1  0.53304903  0.18388313  0.54074308  1
  Fe  Fe84  1  0.04055133  0.19395191  0.54974758  1
  Fe  Fe85  1  0.53631915  0.68385718  0.87490839  1
  Fe  Fe86  1  0.53627872  0.19439969  0.88174254  1
  Fe  Fe87  1  0.03045030  0.20238326  0.21491070  1
  Fe  Fe88  1  0.03466398  0.69262660  0.21504218  1
  Fe  Fe89  1  0.03311506  0.19354291  0.88137548  1
  Fe  Fe90  1  0.03333162  0.69344035  0.88018023  1
  Fe  Fe91  1  0.53711075  0.19491781  0.21516835  1
  Fe  Fe92  1  0.30438120  0.96774440  0.95432443  1
  Fe  Fe93  1  0.30293059  0.97306707  0.29212278  1
  Fe  Fe94  1  0.79721642  0.46741213  0.28351571  1
  Fe  Fe95  1  0.31570371  0.46562814  0.29329348  1
  Fe  Fe96  1  0.80588639  0.96201236  0.94925478  1
  Fe  Fe97  1  0.79926494  0.46492037  0.61903868  1
  Fe  Fe98  1  0.32088768  0.46024151  0.62268034  1
  Fe  Fe99  1  0.80984871  0.46657512  0.95420571  1
  Fe  Fe100  1  0.29958831  0.97060655  0.61708143  1
  Fe  Fe101  1  0.81399424  0.96207523  0.62081412  1
  S  S102  1  0.36102559  0.14270716  0.08468021  1
  S  S103  1  0.35595667  0.14552576  0.41907647  1
  S  S104  1  0.35985476  0.14298640  0.74979704  1
  S  S105  1  0.35623345  0.64407974  0.08154895  1
  S  S106  1  0.35434411  0.64067142  0.41934527  1
  S  S107  1  0.35546675  0.64256494  0.75107731  1
  S  S108  1  0.86054855  0.13637342  0.08131610  1
  S  S109  1  0.86594448  0.14289908  0.41699739  1
  S  S110  1  0.86083638  0.13892764  0.75092678  1
  S  S111  1  0.86029074  0.64331681  0.08191724  1
  S  S112  1  0.86212501  0.63839631  0.41731064  1
  S  S113  1  0.85939089  0.64040676  0.74831676  1
  S  S114  1  0.14385106  0.36389992  0.24963370  1
  S  S115  1  0.14391837  0.36069671  0.58407720  1
  S  S116  1  0.14087283  0.35768410  0.91963196  1
  S  S117  1  0.13698020  0.86238840  0.24913700  1
  S  S118  1  0.13865608  0.85955737  0.58372152  1
  S  S119  1  0.13784835  0.86166467  0.91618250  1
  S  S120  1  0.64279568  0.35612746  0.24855051  1
  S  S121  1  0.64186390  0.34698554  0.57908112  1
  S  S122  1  0.64439863  0.35673384  0.91606709  1
  S  S123  1  0.64017855  0.86212584  0.24817738  1
  S  S124  1  0.65162551  0.85917319  0.58587834  1
  S  S125  1  0.63858110  0.86113483  0.91825798  1
  S  S126  1  0.06700572  0.16259030  0.04142229  1
  S  S127  1  0.06457193  0.17248939  0.37369190  1
  S  S128  1  0.07052014  0.17533076  0.71404219  1
  S  S129  1  0.06860712  0.66940177  0.04295608  1
  S  S130  1  0.06833787  0.66354025  0.37363217  1
  S  S131  1  0.06861442  0.66832134  0.70896183  1
  S  S132  1  0.56562861  0.16217862  0.03721402  1
  S  S133  1  0.56931376  0.16727662  0.37426348  1
  S  S134  1  0.57213157  0.17488237  0.71042378  1
  S  S135  1  0.56672722  0.67601832  0.04167383  1
  S  S136  1  0.56306974  0.66814063  0.36857550  1
  S  S137  1  0.56017941  0.67701876  0.71707024  1
  S  S138  1  0.32971795  0.43316697  0.12668382  1
  S  S139  1  0.33592127  0.43404664  0.46193874  1
  S  S140  1  0.32968381  0.43395763  0.78823820  1
  S  S141  1  0.32672113  0.93557254  0.12559299  1
  S  S142  1  0.31846762  0.93473955  0.45424728  1
  S  S143  1  0.32461282  0.93589778  0.79271863  1
  S  S144  1  0.83292288  0.44070885  0.12236830  1
  S  S145  1  0.83488738  0.43020858  0.45963531  1
  S  S146  1  0.83934230  0.43133008  0.79394037  1
  S  S147  1  0.83452588  0.93472220  0.12203297  1
  S  S148  1  0.82858132  0.92847548  0.45610882  1
  S  S149  1  0.82981459  0.93105624  0.79062938  1
  S  S150  1  0.43383973  0.32740234  0.29049037  1
  S  S151  1  0.43981684  0.33074310  0.62519166  1
  S  S152  1  0.43995546  0.32959826  0.95904944  1
  S  S153  1  0.42680570  0.84017965  0.29218415  1
  S  S154  1  0.42711341  0.84142796  0.63135865  1
  S  S155  1  0.42884987  0.83351827  0.96166951  1
  S  S156  1  0.93298913  0.33195812  0.29490292  1
  S  S157  1  0.93496137  0.33253199  0.62601752  1
  S  S158  1  0.93728100  0.33322753  0.95898827  1
  S  S159  1  0.93604071  0.82967256  0.28946713  1
  S  S160  1  0.93119005  0.82120836  0.61978895  1
  S  S161  1  0.93207741  0.82876843  0.95485318  1
  S  S162  1  0.16460275  0.06986126  0.20814628  1
  S  S163  1  0.15919825  0.06459067  0.53827274  1
  S  S164  1  0.17146629  0.07045135  0.87814699  1
  S  S165  1  0.17052013  0.57043934  0.20900997  1
  S  S166  1  0.16711664  0.56604373  0.54336968  1
  S  S167  1  0.16077670  0.56629610  0.87318488  1
  S  S168  1  0.66805074  0.07041387  0.20931828  1
  S  S169  1  0.68091574  0.06955056  0.54315610  1
  S  S170  1  0.67104626  0.06653198  0.87371880  1
  S  S171  1  0.66907912  0.56498279  0.20204820  1
  S  S172  1  0.66595170  0.55698575  0.54756292  1
  S  S173  1  0.67533391  0.56686608  0.87893648  1
  O  O174  1  0.37111965  0.22102240  0.07643976  1
  O  O175  1  0.36950168  0.22312141  0.41094002  1
  O  O176  1  0.37106455  0.22382160  0.74897154  1
  O  O177  1  0.36667684  0.72784268  0.07995356  1
  O  O178  1  0.35796312  0.72069506  0.41499374  1
  O  O179  1  0.36072248  0.72427198  0.74705229  1
  O  O180  1  0.86788904  0.20951906  0.06625085  1
  O  O181  1  0.87271342  0.22495972  0.41468940  1
  O  O182  1  0.86992039  0.21743818  0.74129872  1
  O  O183  1  0.87298816  0.72135517  0.07194130  1
  O  O184  1  0.87511146  0.71517861  0.40508355  1
  O  O185  1  0.87187663  0.71791170  0.73767097  1
  O  O186  1  0.28226406  0.13277763  0.09292363  1
  O  O187  1  0.27762896  0.13571691  0.42693433  1
  O  O188  1  0.28272731  0.13233324  0.76107701  1
  O  O189  1  0.27245913  0.63693437  0.08169656  1
  O  O190  1  0.27548682  0.62714338  0.42944200  1
  O  O191  1  0.27721651  0.63118074  0.76104323  1
  O  O192  1  0.78155224  0.12342504  0.08834866  1
  O  O193  1  0.78664961  0.13048613  0.42297424  1
  O  O194  1  0.78049036  0.13088858  0.75696010  1
  O  O195  1  0.77994751  0.63890745  0.08715545  1
  O  O196  1  0.78773358  0.63321183  0.43041056  1
  O  O197  1  0.78304578  0.63439285  0.75801668  1
  O  O198  1  0.13005761  0.28213051  0.24831906  1
  O  O199  1  0.13228980  0.28259294  0.59137874  1
  O  O200  1  0.12557142  0.28100995  0.93165153  1
  O  O201  1  0.13105535  0.78464708  0.26100184  1
  O  O202  1  0.13047951  0.78151175  0.59481163  1
  O  O203  1  0.12886164  0.78246662  0.92386840  1
  O  O204  1  0.63323312  0.27366468  0.25155852  1
  O  O205  1  0.63403405  0.26459511  0.58040496  1
  O  O206  1  0.63790158  0.27581098  0.92196962  1
  O  O207  1  0.63425503  0.78545381  0.25783886  1
  O  O208  1  0.64002669  0.78458244  0.59867148  1
  O  O209  1  0.62983632  0.78137567  0.92377768  1
  O  O210  1  0.22539999  0.37343479  0.24711461  1
  O  O211  1  0.22120693  0.37331317  0.57672475  1
  O  O212  1  0.21841852  0.36148465  0.91228924  1
  O  O213  1  0.21580168  0.87280008  0.24126739  1
  O  O214  1  0.21833940  0.86780996  0.57663609  1
  O  O215  1  0.21609202  0.87008893  0.90657544  1
  O  O216  1  0.72150078  0.36422905  0.23888230  1
  O  O217  1  0.72255792  0.35838362  0.57443707  1
  O  O218  1  0.72366420  0.36833518  0.90855652  1
  O  O219  1  0.71100291  0.87650370  0.23071093  1
  O  O220  1  0.73496216  0.86780251  0.58576478  1
  O  O221  1  0.71555283  0.86910572  0.90576019  1
  O  O222  1  0.42051086  0.13314787  0.15178707  1
  O  O223  1  0.41476451  0.13623814  0.48689944  1
  O  O224  1  0.42176672  0.12728235  0.81276924  1
  O  O225  1  0.40909639  0.63418041  0.14946513  1
  O  O226  1  0.41533019  0.62926403  0.48186662  1
  O  O227  1  0.41564521  0.63509099  0.81773752  1
  O  O228  1  0.91935135  0.13299251  0.15223441  1
  O  O229  1  0.92427092  0.13550925  0.48705061  1
  O  O230  1  0.91738553  0.13405815  0.82168221  1
  O  O231  1  0.91667945  0.63616856  0.15148408  1
  O  O232  1  0.92601895  0.62833631  0.48283823  1
  O  O233  1  0.92099463  0.63282252  0.81664817  1
  O  O234  1  0.36804685  0.08238033  0.01647944  1
  O  O235  1  0.36233385  0.08584808  0.35012218  1
  O  O236  1  0.36311797  0.08690526  0.67788590  1
  O  O237  1  0.36582343  0.58980897  0.01394398  1
  O  O238  1  0.35753782  0.58472428  0.34664473  1
  O  O239  1  0.36061253  0.58735640  0.68075879  1
  O  O240  1  0.87285196  0.07122837  0.01770982  1
  O  O241  1  0.87866411  0.08757879  0.35114356  1
  O  O242  1  0.87097396  0.07940216  0.68517314  1
  O  O243  1  0.86991102  0.58329142  0.01545182  1
  O  O244  1  0.86842957  0.57704529  0.34901688  1
  O  O245  1  0.86933191  0.57906097  0.68212566  1
  O  O246  1  0.08862739  0.38144758  0.18599661  1
  O  O247  1  0.08361168  0.37045795  0.51656388  1
  O  O248  1  0.08105002  0.36653249  0.85174089  1
  O  O249  1  0.07876644  0.86443364  0.17782349  1
  O  O250  1  0.08064656  0.86317769  0.51383217  1
  O  O251  1  0.07765250  0.87086865  0.84924479  1
  O  O252  1  0.58397094  0.36136503  0.17839358  1
  O  O253  1  0.58442629  0.35618903  0.51052480  1
  O  O254  1  0.58566952  0.36261271  0.84754769  1
  O  O255  1  0.57170885  0.87098946  0.18360962  1
  O  O256  1  0.59976609  0.86568524  0.51579522  1
  O  O257  1  0.57677115  0.87542659  0.85521387  1
  O  O258  1  0.13641592  0.41794752  0.32165077  1
  O  O259  1  0.13180174  0.42008517  0.65137256  1
  O  O260  1  0.13242550  0.41988864  0.98665486  1
  O  O261  1  0.12473054  0.92330942  0.31314882  1
  O  O262  1  0.13158273  0.92010893  0.65073833  1
  O  O263  1  0.13159966  0.92033042  0.98486716  1
  O  O264  1  0.63601747  0.41125490  0.31583940  1
  O  O265  1  0.63217287  0.40125884  0.64671976  1
  O  O266  1  0.63607830  0.41315921  0.98416799  1
  O  O267  1  0.63309739  0.92294061  0.31729195  1
  O  O268  1  0.64071012  0.92274200  0.65162404  1
  O  O269  1  0.63517785  0.91856395  0.98952855  1
  O  O270  1  0.03260702  0.18247318  0.10200039  1
  O  O271  1  0.03216469  0.20378105  0.43779231  1
  O  O272  1  0.02971793  0.20167391  0.77264994  1
  O  O273  1  0.03304467  0.69877541  0.10421361  1
  O  O274  1  0.03581803  0.69560132  0.43680991  1
  O  O275  1  0.03336542  0.70035494  0.77052851  1
  O  O276  1  0.52983180  0.19264441  0.09752743  1
  O  O277  1  0.52907265  0.19301103  0.43237290  1
  O  O278  1  0.53219754  0.20067242  0.76925273  1
  O  O279  1  0.52617647  0.70374502  0.09833879  1
  O  O280  1  0.53841898  0.69380267  0.43730796  1
  O  O281  1  0.52463272  0.71415294  0.78082608  1
  O  O282  1  0.30112918  0.47291414  0.06984956  1
  O  O283  1  0.30436381  0.47107684  0.40092920  1
  O  O284  1  0.30131860  0.46866140  0.72314408  1
  O  O285  1  0.29666195  0.97072564  0.06268841  1
  O  O286  1  0.28416276  0.97412436  0.39492920  1
  O  O287  1  0.29632086  0.97271527  0.73253261  1
  O  O288  1  0.79822162  0.47866410  0.06238642  1
  O  O289  1  0.81477896  0.46276392  0.39761787  1
  O  O290  1  0.81715310  0.46330950  0.73152627  1
  O  O291  1  0.79801953  0.96230244  0.05519243  1
  O  O292  1  0.80463933  0.96993738  0.39997277  1
  O  O293  1  0.80380508  0.97110218  0.73286823  1
  O  O294  1  0.47373762  0.30013177  0.23109846  1
  O  O295  1  0.47663369  0.29724707  0.56437928  1
  O  O296  1  0.47651628  0.29612987  0.89701327  1
  O  O297  1  0.45685626  0.81728695  0.22721965  1
  O  O298  1  0.46286887  0.82323848  0.57310697  1
  O  O299  1  0.46544550  0.80594586  0.90163973  1
  O  O300  1  0.96990914  0.30487868  0.23534015  1
  O  O301  1  0.97313929  0.30347575  0.56672267  1
  O  O302  1  0.96535498  0.29813280  0.89205915  1
  O  O303  1  0.97231209  0.79537563  0.22779099  1
  O  O304  1  0.97170584  0.79344934  0.56089971  1
  O  O305  1  0.96798103  0.79818736  0.89339244  1
  O  O306  1  0.19515476  0.03485505  0.26986332  1
  O  O307  1  0.19280710  0.02970333  0.60086746  1
  O  O308  1  0.20009051  0.03130561  0.93778808  1
  O  O309  1  0.19642108  0.53543487  0.27050863  1
  O  O310  1  0.19521081  0.53258832  0.60561060  1
  O  O311  1  0.18144134  0.53178093  0.93381501  1
  O  O312  1  0.69172746  0.03921646  0.27186219  1
  O  O313  1  0.71082991  0.03084996  0.60289368  1
  O  O314  1  0.69769338  0.02963032  0.93457801  1
  O  O315  1  0.70188436  0.52850078  0.26116626  1
  O  O316  1  0.70188370  0.51859335  0.60598224  1
  O  O317  1  0.70690655  0.53078240  0.94197515  1
  O  O318  1  0.08224950  0.07725616  0.02501393  1
  O  O319  1  0.07889608  0.08911183  0.36845000  1
  O  O320  1  0.08949734  0.09499448  0.70923811  1
  O  O321  1  0.08878340  0.58864725  0.03839711  1
  O  O322  1  0.08250626  0.58045491  0.36787484  1
  O  O323  1  0.08696579  0.58723752  0.70626436  1
  O  O324  1  0.58313562  0.07958800  0.03358042  1
  O  O325  1  0.59298397  0.08807695  0.37037645  1
  O  O326  1  0.59424009  0.09499356  0.70908047  1
  O  O327  1  0.58694791  0.59624228  0.03888247  1
  O  O328  1  0.57238466  0.58422082  0.35187027  1
  O  O329  1  0.58030874  0.60118013  0.72394318  1
  O  O330  1  0.40954393  0.41247666  0.12686540  1
  O  O331  1  0.41775661  0.41832062  0.46614306  1
  O  O332  1  0.40793445  0.40931542  0.78851930  1
  O  O333  1  0.40888474  0.92008142  0.13197080  1
  O  O334  1  0.39485275  0.91370100  0.45328364  1
  O  O335  1  0.40627026  0.91691736  0.80090607  1
  O  O336  1  0.91429712  0.43011038  0.12497030  1
  O  O337  1  0.92070389  0.41688540  0.47651945  1
  O  O338  1  0.92435357  0.41634279  0.80738135  1
  O  O339  1  0.91690129  0.91797347  0.12295946  1
  O  O340  1  0.90934414  0.90683391  0.45796068  1
  O  O341  1  0.91076890  0.91010931  0.79524935  1
  O  O342  1  0.41617493  0.40831635  0.29733202  1
  O  O343  1  0.42758927  0.41335069  0.62763619  1
  O  O344  1  0.42917924  0.41068691  0.96785257  1
  O  O345  1  0.40132257  0.92046903  0.29660098  1
  O  O346  1  0.40223312  0.92296522  0.64486740  1
  O  O347  1  0.41329432  0.91730526  0.96874878  1
  O  O348  1  0.91029157  0.41232981  0.29649850  1
  O  O349  1  0.91572425  0.41368531  0.62947317  1
  O  O350  1  0.91951488  0.41548484  0.96107272  1
  O  O351  1  0.92827229  0.91211206  0.29657726  1
  O  O352  1  0.91243351  0.90087868  0.62414530  1
  O  O353  1  0.91726799  0.91141597  0.96106617  1
  O  O354  1  0.08417090  0.09028789  0.20570515  1
  O  O355  1  0.07758590  0.08091847  0.53547199  1
  O  O356  1  0.09070069  0.08904429  0.87522642  1
  O  O357  1  0.08715740  0.58763830  0.19958840  1
  O  O358  1  0.08238431  0.57944834  0.53406195  1
  O  O359  1  0.07601584  0.58275497  0.85966572  1
  O  O360  1  0.58422808  0.08739772  0.19512340  1
  O  O361  1  0.60290881  0.09184707  0.54347766  1
  O  O362  1  0.58788331  0.08331253  0.86566168  1
  O  O363  1  0.58874885  0.57943549  0.19339791  1
  O  O364  1  0.59047921  0.57887237  0.55759708  1
  O  O365  1  0.59758707  0.58981929  0.88148944  1
  O  O366  1  0.13967922  0.21331879  0.05989457  1
  O  O367  1  0.13459633  0.22047021  0.38419132  1
  O  O368  1  0.14036689  0.22988353  0.73408885  1
  O  O369  1  0.13779900  0.72396411  0.05753575  1
  O  O370  1  0.13999970  0.71316040  0.38650565  1
  O  O371  1  0.13892459  0.72081298  0.72328533  1
  O  O372  1  0.63546509  0.21230037  0.04834168  1
  O  O373  1  0.63742282  0.22385982  0.39094583  1
  O  O374  1  0.64241712  0.22961259  0.72907063  1
  O  O375  1  0.63811066  0.73054390  0.06102517  1
  O  O376  1  0.63986034  0.71641226  0.38707142  1
  O  O377  1  0.63196631  0.73102195  0.73507010  1
  O  O378  1  0.27679909  0.36131173  0.10932032  1
  O  O379  1  0.28554812  0.36382092  0.44733464  1
  O  O380  1  0.27317925  0.36603374  0.77097455  1
  O  O381  1  0.27489638  0.86331752  0.10746830  1
  O  O382  1  0.26206233  0.86512056  0.43749218  1
  O  O383  1  0.27132559  0.86484234  0.77545141  1
  O  O384  1  0.78399375  0.36731088  0.10434359  1
  O  O385  1  0.78522351  0.35655444  0.44145118  1
  O  O386  1  0.78935329  0.35876471  0.77829329  1
  O  O387  1  0.78744347  0.86258109  0.11190647  1
  O  O388  1  0.77464999  0.85890764  0.43892287  1
  O  O389  1  0.77584615  0.86197037  0.77508948  1
  O  O390  1  0.36304710  0.27325471  0.26923752  1
  O  O391  1  0.36697158  0.28402421  0.61034442  1
  O  O392  1  0.36569317  0.27769718  0.93758413  1
  O  O393  1  0.35828928  0.78430026  0.27763482  1
  O  O394  1  0.35791063  0.78448074  0.61408715  1
  O  O395  1  0.35550983  0.78341411  0.94351842  1
  O  O396  1  0.86600147  0.27768943  0.28333642  1
  O  O397  1  0.86506840  0.27903016  0.61012628  1
  O  O398  1  0.86563354  0.28427865  0.94765448  1
  O  O399  1  0.86206913  0.78160799  0.27170660  1
  O  O400  1  0.86313440  0.76540080  0.60225222  1
  O  O401  1  0.85979705  0.77875150  0.93873471  1
  O  O402  1  0.21826884  0.13677090  0.21838205  1
  O  O403  1  0.20856835  0.13475385  0.55055998  1
  O  O404  1  0.22460829  0.14114341  0.89616845  1
  O  O405  1  0.22179107  0.64183230  0.22422604  1
  O  O406  1  0.21472747  0.63972459  0.55881428  1
  O  O407  1  0.21137792  0.63875851  0.88999909  1
  O  O408  1  0.71994274  0.14027684  0.22269653  1
  O  O409  1  0.73739866  0.13882081  0.56077061  1
  O  O410  1  0.72319800  0.13886115  0.89322389  1
  O  O411  1  0.72241041  0.63763534  0.21927672  1
  O  O412  1  0.72028533  0.62840378  0.56394295  1
  O  O413  1  0.72988138  0.63888935  0.89873894  1
  O  O414  1  0.49569540  0.32042867  0.02909297  1
  O  O415  1  0.49073841  0.32574061  0.36249517  1
  O  O416  1  0.49816143  0.33263673  0.69809198  1
  O  O417  1  0.48547148  0.83491623  0.03522867  1
  O  O418  1  0.48926809  0.84692079  0.36125167  1
  O  O419  1  0.48602598  0.84375859  0.70523444  1
  O  O420  1  1.00059648  0.33908393  0.02776555  1
  O  O421  1  0.99448240  0.34250764  0.36960800  1
  O  O422  1  0.99369974  0.33779177  0.70002722  1
  O  O423  1  0.99155034  0.82893766  0.02635383  1
  O  O424  1  0.99281405  0.82474862  0.36100017  1
  O  O425  1  0.99119138  0.82451131  0.69310274  1
  O  O426  1  0.15662319  0.00732767  0.13455489  1
  O  O427  1  0.15388850  0.00339459  0.46568525  1
  O  O428  1  0.16826257  0.01241159  0.80496212  1
  O  O429  1  0.16870617  0.51020139  0.13685154  1
  O  O430  1  0.16848320  0.50675480  0.47244686  1
  O  O431  1  0.16346214  0.50698456  0.80237804  1
  O  O432  1  0.66905061  0.00817794  0.13875105  1
  O  O433  1  0.67639207  0.01162595  0.47001242  1
  O  O434  1  0.67091616  0.00885460  0.80177280  1
  O  O435  1  0.67247716  0.50750040  0.12867791  1
  O  O436  1  0.65441424  0.50350164  0.47179013  1
  O  O437  1  0.67235021  0.50916109  0.80881258  1
  O  O438  1  0.00147684  0.16865564  0.30239437  1
  O  O439  1  0.01276544  0.17484969  0.64144967  1
  O  O440  1  0.00801358  0.16651679  0.97071422  1
  O  O441  1  0.00787985  0.66236485  0.30204769  1
  O  O442  1  0.00883297  0.66295202  0.63605703  1
  O  O443  1  0.00842406  0.66524584  0.97001172  1
  O  O444  1  0.50982750  0.16206553  0.30045458  1
  O  O445  1  0.51420484  0.16916138  0.63710958  1
  O  O446  1  0.50508238  0.15412501  0.96253568  1
  O  O447  1  0.50525288  0.68389899  0.30533417  1
  O  O448  1  0.50188145  0.67454097  0.64710034  1
  O  O449  1  0.51079081  0.67356565  0.96715372  1
  O  O450  1  0.33490239  0.48895488  0.20186066  1
  O  O451  1  0.33774504  0.49440220  0.53451704  1
  O  O452  1  0.33369150  0.49531014  0.85679333  1
  O  O453  1  0.32434392  0.99527003  0.19542994  1
  O  O454  1  0.32060969  0.99362936  0.52732645  1
  O  O455  1  0.32723158  0.99490327  0.86572065  1
  O  O456  1  0.83407788  0.49552072  0.19689880  1
  O  O457  1  0.82854158  0.48841667  0.52924402  1
  O  O458  1  0.83656252  0.49133587  0.86425180  1
  O  O459  1  0.84104083  0.99811967  0.19091240  1
  O  O460  1  0.83704782  0.98613711  0.53173554  1
  O  O461  1  0.83642289  0.99096705  0.86506295  1
