# generated using pymatgen
data_Na31Fe20(SO4)36
_symmetry_space_group_name_H-M   'P 1'
_cell_length_a   18.06185817
_cell_length_b   18.07541535
_cell_length_c   19.70677109
_cell_angle_alpha   107.60701424
_cell_angle_beta   107.55754109
_cell_angle_gamma   90.69636588
_symmetry_Int_Tables_number   1
_chemical_formula_structural   Na31Fe20(SO4)36
_chemical_formula_sum   'Na62 Fe40 S72 O288'
_cell_volume   5808.72799423
_cell_formula_units_Z   2
loop_
 _symmetry_equiv_pos_site_id
 _symmetry_equiv_pos_as_xyz
  1  'x, y, z'
loop_
 _atom_site_type_symbol
 _atom_site_label
 _atom_site_symmetry_multiplicity
 _atom_site_fract_x
 _atom_site_fract_y
 _atom_site_fract_z
 _atom_site_occupancy
  Na  Na0  1  0.12781196  0.37584294  0.09032966  1
  Na  Na1  1  0.13413711  0.36502370  0.41509533  1
  Na  Na2  1  0.14931675  0.36719225  0.76080082  1
  Na  Na3  1  0.14105427  0.86892296  0.08971017  1
  Na  Na4  1  0.13187460  0.85367310  0.39593551  1
  Na  Na5  1  0.13358012  0.86223583  0.74464494  1
  Na  Na6  1  0.62979764  0.36332064  0.07543769  1
  Na  Na7  1  0.63648375  0.36693426  0.41755743  1
  Na  Na8  1  0.63475252  0.36605708  0.75329936  1
  Na  Na9  1  0.63820788  0.86524005  0.08508348  1
  Na  Na10  1  0.61697822  0.87512148  0.41803658  1
  Na  Na11  1  0.64095277  0.85597858  0.76079708  1
  Na  Na12  1  0.36542833  0.13630992  0.24797062  1
  Na  Na13  1  0.37385706  0.12985853  0.58464156  1
  Na  Na14  1  0.37153771  0.13759275  0.91246926  1
  Na  Na15  1  0.35534789  0.65332309  0.27421504  1
  Na  Na16  1  0.36877176  0.64135553  0.59208218  1
  Na  Na17  1  0.35824289  0.63010239  0.90481734  1
  Na  Na18  1  0.86257092  0.12984855  0.25208507  1
  Na  Na19  1  0.86967862  0.12529328  0.58697981  1
  Na  Na20  1  0.85405403  0.12790853  0.90696549  1
  Na  Na21  1  0.88452160  0.63218634  0.24586160  1
  Na  Na22  1  0.86915544  0.63320923  0.58551064  1
  Na  Na23  1  0.84411564  0.65825844  0.91867201  1
  Na  Na24  1  0.46914016  0.50737153  0.41384775  1
  Na  Na25  1  0.48008726  0.51782089  0.74844724  1
  Na  Na26  1  0.99900937  0.52244135  0.39223373  1
  Na  Na27  1  0.48711720  0.51403436  0.08670271  1
  Na  Na28  1  0.54598803  -0.01631387  0.70561652  1
  Na  Na29  1  0.99194301  0.01432489  0.73431841  1
  Na  Na30  1  0.95861265  0.00291152  0.42842208  1
  Na  Na31  1  1.01583974  0.49596784  0.75160300  1
  Na  Na32  1  0.98964513  0.00349001  0.09205000  1
  Na  Na33  1  -0.00754172  0.97888072  0.26270997  1
  Na  Na34  1  0.01234561  0.99247777  0.91854630  1
  Na  Na35  1  0.51469552  0.98573282  0.25247600  1
  Na  Na36  1  0.50633631  0.48720368  0.57973857  1
  Na  Na37  1  0.51167655  0.96323283  0.89623951  1
  Na  Na38  1  -0.01781778  0.51144814  0.94342014  1
  Na  Na39  1  0.47166364  0.51121025  0.25513029  1
  Na  Na40  1  0.05082598  0.49727801  0.59071966  1
  Na  Na41  1  0.51392162  0.48600442  0.91678192  1
  Na  Na42  1  0.25826501  0.26649860  0.32502497  1
  Na  Na43  1  0.24796563  0.74684714  0.00226190  1
  Na  Na44  1  0.74230333  0.23452448  0.67590917  1
  Na  Na45  1  0.25795190  0.26269047  -0.01516863  1
  Na  Na46  1  0.24214342  0.23797503  0.67858302  1
  Na  Na47  1  0.74736872  0.24565051  0.33991299  1
  Na  Na48  1  0.26825943  0.76265144  0.66163774  1
  Na  Na49  1  0.74417672  0.74636845  0.67414293  1
  Na  Na50  1  0.73195750  0.23575620  0.00240169  1
  Na  Na51  1  0.76021201  0.76301153  0.32401824  1
  Na  Na52  1  0.74053446  0.24046388  0.17025583  1
  Na  Na53  1  0.27486796  0.76502437  0.47833577  1
  Na  Na54  1  0.25860362  0.26766239  0.15867878  1
  Na  Na55  1  0.74541402  0.23934419  0.50728047  1
  Na  Na56  1  0.76577106  0.76438104  0.15379159  1
  Na  Na57  1  0.71696607  0.21907685  0.83420510  1
  Na  Na58  1  0.22531200  0.74155863  0.19087059  1
  Na  Na59  1  0.25889329  0.75185873  0.82508669  1
  Na  Na60  1  0.24719895  0.24830555  0.50537335  1
  Na  Na61  1  0.74445438  0.75247645  0.50032712  1
  Fe  Fe62  1  0.95904756  0.31083846  0.11885452  1
  Fe  Fe63  1  0.46746000  0.29975316  0.78696297  1
  Fe  Fe64  1  0.97086551  0.80416767  0.45357853  1
  Fe  Fe65  1  0.46175530  0.80671920  0.11792952  1
  Fe  Fe66  1  0.96444803  0.30864128  0.78623801  1
  Fe  Fe67  1  0.96555075  0.80568873  0.78538832  1
  Fe  Fe68  1  0.46706403  0.30783435  0.11734141  1
  Fe  Fe69  1  0.96844944  0.80107483  0.12048555  1
  Fe  Fe70  1  0.96602512  0.30914717  0.45466399  1
  Fe  Fe71  1  0.46636638  0.30610404  0.45043639  1
  Fe  Fe72  1  0.69256469  0.53483882  0.71570035  1
  Fe  Fe73  1  0.69159898  0.53499902  0.37982664  1
  Fe  Fe74  1  0.69332842  0.03016645  0.04584696  1
  Fe  Fe75  1  0.19225619  0.53575086  0.05520656  1
  Fe  Fe76  1  0.19452957  0.03755531  0.04911467  1
  Fe  Fe77  1  0.19722239  0.53062209  0.37063511  1
  Fe  Fe78  1  0.69245646  0.54026853  0.04898438  1
  Fe  Fe79  1  0.70222344  0.02701534  0.37631080  1
  Fe  Fe80  1  0.19158620  0.03752172  0.71267518  1
  Fe  Fe81  1  0.19286759  0.04030321  0.38181031  1
  Fe  Fe82  1  0.03701452  0.69279968  0.88179048  1
  Fe  Fe83  1  0.52581631  0.70267680  0.54609051  1
  Fe  Fe84  1  0.53298841  0.69968012  0.87805703  1
  Fe  Fe85  1  0.53586316  0.18613555  0.20682536  1
  Fe  Fe86  1  0.52850830  0.69587453  0.21995409  1
  Fe  Fe87  1  0.04122284  0.69257739  0.55011084  1
  Fe  Fe88  1  0.03476310  0.19559720  0.88436614  1
  Fe  Fe89  1  0.53716561  0.18687738  0.54211158  1
  Fe  Fe90  1  0.03449449  0.19221175  0.55032656  1
  Fe  Fe91  1  0.03053955  0.19644054  0.21625106  1
  Fe  Fe92  1  0.80409674  0.46754170  0.28318421  1
  Fe  Fe93  1  0.31583850  0.96524793  0.29239198  1
  Fe  Fe94  1  0.31290348  0.96449862  0.61851301  1
  Fe  Fe95  1  0.79819245  0.96406870  0.62553237  1
  Fe  Fe96  1  0.81039318  0.95560699  0.95118891  1
  Fe  Fe97  1  0.30391486  0.46550359  0.94982040  1
  Fe  Fe98  1  0.31280777  0.96756994  0.95415194  1
  Fe  Fe99  1  0.30090417  0.46904612  0.62297002  1
  Fe  Fe100  1  0.80366354  0.46904787  0.95153055  1
  Fe  Fe101  1  0.80856184  0.46642336  0.61853711  1
  S  S102  1  0.35643110  0.14447876  0.08191048  1
  S  S103  1  0.35841790  0.14519637  0.41399778  1
  S  S104  1  0.35663193  0.13954957  0.74614086  1
  S  S105  1  0.35761467  0.63973950  0.08488366  1
  S  S106  1  0.36054967  0.63395477  0.41838966  1
  S  S107  1  0.35932027  0.63942063  0.75113785  1
  S  S108  1  0.86044541  0.13977633  0.08252494  1
  S  S109  1  0.86184262  0.14316786  0.41973449  1
  S  S110  1  0.86273787  0.14128688  0.75143277  1
  S  S111  1  0.85818030  0.63963779  0.07761226  1
  S  S112  1  0.86140231  0.63968386  0.41667716  1
  S  S113  1  0.86115915  0.63829965  0.75124894  1
  S  S114  1  0.13445930  0.35830184  0.25079690  1
  S  S115  1  0.14015928  0.35649320  0.58534212  1
  S  S116  1  0.13548076  0.36304178  0.91850049  1
  S  S117  1  0.13806358  0.87207537  0.24779767  1
  S  S118  1  0.14382675  0.86045308  0.58494626  1
  S  S119  1  0.14336553  0.86180943  0.91692511  1
  S  S120  1  0.64229003  0.35925327  0.24899007  1
  S  S121  1  0.64211811  0.35904386  0.58017895  1
  S  S122  1  0.64135695  0.36411274  0.91643428  1
  S  S123  1  0.63776745  0.85499485  0.24916136  1
  S  S124  1  0.64269754  0.85244155  0.58890137  1
  S  S125  1  0.64493428  0.85477447  0.92118823  1
  S  S126  1  0.06531512  0.17055237  0.04379174  1
  S  S127  1  0.06386060  0.17104334  0.37710087  1
  S  S128  1  0.06832549  0.17389124  0.71193528  1
  S  S129  1  0.07022309  0.67474412  0.04307851  1
  S  S130  1  0.07497985  0.67044589  0.38009139  1
  S  S131  1  0.06608127  0.66698329  0.71150946  1
  S  S132  1  0.56665055  0.17008149  0.04285463  1
  S  S133  1  0.57078002  0.16960621  0.37289786  1
  S  S134  1  0.56923749  0.17447747  0.70598327  1
  S  S135  1  0.56362005  0.66965274  0.04307265  1
  S  S136  1  0.56382133  0.66075822  0.37703031  1
  S  S137  1  0.57166868  0.66474221  0.70551740  1
  S  S138  1  0.32989154  0.43679046  0.12291934  1
  S  S139  1  0.32731588  0.42997552  0.45951020  1
  S  S140  1  0.33685384  0.42897010  0.79142321  1
  S  S141  1  0.33076569  0.93689834  0.12420221  1
  S  S142  1  0.32675453  0.93742675  0.45327470  1
  S  S143  1  0.32526774  0.93652422  0.78901140  1
  S  S144  1  0.82396120  0.43121684  0.12046562  1
  S  S145  1  0.83306874  0.43455985  0.45808979  1
  S  S146  1  0.83076398  0.43248520  0.78793774  1
  S  S147  1  0.83881834  0.93625601  0.12667771  1
  S  S148  1  0.82654126  0.92608264  0.46279943  1
  S  S149  1  0.83986706  0.93249633  0.79458091  1
  S  S150  1  0.44026718  0.33032855  0.28843721  1
  S  S151  1  0.43561610  0.33196164  0.62305024  1
  S  S152  1  0.43260366  0.33596835  0.95919315  1
  S  S153  1  0.43039956  0.83118644  0.28657362  1
  S  S154  1  0.43726951  0.83118884  0.62789092  1
  S  S155  1  0.42994813  0.82847274  0.95771623  1
  S  S156  1  0.92707992  0.33042584  0.29222869  1
  S  S157  1  0.93452931  0.33300658  0.62534715  1
  S  S158  1  0.92439874  0.32726121  0.95298413  1
  S  S159  1  0.93281053  0.83170819  0.29293892  1
  S  S160  1  0.93319112  0.82615649  0.62359644  1
  S  S161  1  0.94198884  0.83409556  0.95938023  1
  S  S162  1  0.16849436  0.07648803  0.20950570  1
  S  S163  1  0.16510963  0.06643237  0.53894466  1
  S  S164  1  0.16431206  0.06693282  0.87501599  1
  S  S165  1  0.16539800  0.56702078  0.21193261  1
  S  S166  1  0.17221002  0.56566622  0.53715853  1
  S  S167  1  0.16784043  0.56433216  0.88004341  1
  S  S168  1  0.67193087  0.06691869  0.21093729  1
  S  S169  1  0.67651391  0.06756765  0.54034333  1
  S  S170  1  0.66859138  0.05263129  0.87964748  1
  S  S171  1  0.66677883  0.56937155  0.20960099  1
  S  S172  1  0.66907256  0.56458983  0.54128650  1
  S  S173  1  0.66177492  0.56572562  0.87077818  1
  O  O174  1  0.36586422  0.22551020  0.07779953  1
  O  O175  1  0.36912926  0.22296335  0.40253896  1
  O  O176  1  0.36884486  0.21715683  0.73452674  1
  O  O177  1  0.36621282  0.71794791  0.07558652  1
  O  O178  1  0.36232118  0.71144327  0.41069080  1
  O  O179  1  0.36607490  0.71528661  0.73992320  1
  O  O180  1  0.86803148  0.21842298  0.07291266  1
  O  O181  1  0.87020499  0.22481440  0.41596183  1
  O  O182  1  0.87604974  0.21734794  0.73730881  1
  O  O183  1  0.86848824  0.71885025  0.06983462  1
  O  O184  1  0.87059363  0.71818917  0.40839671  1
  O  O185  1  0.86870245  0.71630142  0.74082686  1
  O  O186  1  0.27722527  0.13599471  0.09079575  1
  O  O187  1  0.27933867  0.13983070  0.42265496  1
  O  O188  1  0.27311481  0.13403977  0.74627066  1
  O  O189  1  0.28021401  0.63185133  0.09533151  1
  O  O190  1  0.28200983  0.61723621  0.42862747  1
  O  O191  1  0.28698671  0.62559710  0.76663807  1
  O  O192  1  0.78103634  0.13118318  0.08990160  1
  O  O193  1  0.78078685  0.13268911  0.42293866  1
  O  O194  1  0.78641948  0.13803223  0.76191465  1
  O  O195  1  0.77624939  0.63244629  0.08285691  1
  O  O196  1  0.78207899  0.62982578  0.42418287  1
  O  O197  1  0.78243378  0.62625489  0.75760569  1
  O  O198  1  0.11987068  0.28460424  0.26856352  1
  O  O199  1  0.13197263  0.27414087  0.58671945  1
  O  O200  1  0.12678116  0.28395315  0.92733152  1
  O  O201  1  0.13654768  0.79659778  0.25932443  1
  O  O202  1  0.13520483  0.78397255  0.59933110  1
  O  O203  1  0.13386439  0.78222403  0.92329003  1
  O  O204  1  0.63570257  0.27928811  0.25547207  1
  O  O205  1  0.63477889  0.27792263  0.58291473  1
  O  O206  1  0.63689754  0.28729818  0.92583665  1
  O  O207  1  0.62246409  0.77857102  0.26171904  1
  O  O208  1  0.63022459  0.76700535  0.58690246  1
  O  O209  1  0.63094621  0.77777462  0.93133377  1
  O  O210  1  0.21121420  0.35851936  0.24075207  1
  O  O211  1  0.21976588  0.36768624  0.57921056  1
  O  O212  1  0.21414668  0.37157746  0.91028125  1
  O  O213  1  0.21423506  0.88868120  0.23533414  1
  O  O214  1  0.22450604  0.86874291  0.58012843  1
  O  O215  1  0.22248838  0.87163692  0.90987279  1
  O  O216  1  0.72085158  0.36982208  0.23965825  1
  O  O217  1  0.71936798  0.37029404  0.56893272  1
  O  O218  1  0.71768350  0.37672783  0.90308920  1
  O  O219  1  0.71564115  0.85806833  0.24211442  1
  O  O220  1  0.72866298  0.85995244  0.59470023  1
  O  O221  1  0.72518790  0.86155927  0.91596400  1
  O  O222  1  0.41501945  0.13399930  0.14850294  1
  O  O223  1  0.41673441  0.14027546  0.48302942  1
  O  O224  1  0.41085967  0.13312469  0.81429513  1
  O  O225  1  0.41863146  0.62997945  0.15159654  1
  O  O226  1  0.42008914  0.62920360  0.49040109  1
  O  O227  1  0.42646320  0.63034331  0.81580328  1
  O  O228  1  0.91866952  0.13436616  0.15275401  1
  O  O229  1  0.91740581  0.13642755  0.49128652  1
  O  O230  1  0.92445101  0.13397209  0.81924321  1
  O  O231  1  0.91438291  0.62824181  0.14206832  1
  O  O232  1  0.92060668  0.63116882  0.48432780  1
  O  O233  1  0.92023920  0.63322699  0.82051393  1
  O  O234  1  0.36081306  0.08823510  0.01133086  1
  O  O235  1  0.36524316  0.08500710  0.34632312  1
  O  O236  1  0.36399245  0.07929398  0.67746097  1
  O  O237  1  0.36560606  0.58054477  0.01632856  1
  O  O238  1  0.37405971  0.57418922  0.35505677  1
  O  O239  1  0.36713136  0.57749945  0.68202144  1
  O  O240  1  0.87264111  0.08002033  0.01750434  1
  O  O241  1  0.87600092  0.08644942  0.35587617  1
  O  O242  1  0.87037033  0.07815059  0.68506508  1
  O  O243  1  0.86143891  0.58157315  0.00499615  1
  O  O244  1  0.86984493  0.57981049  0.34846513  1
  O  O245  1  0.87186039  0.57873069  0.68401802  1
  O  O246  1  0.07362023  0.36325178  0.18268213  1
  O  O247  1  0.08248258  0.36579244  0.51564040  1
  O  O248  1  0.07657058  0.36989547  0.84963657  1
  O  O249  1  0.07553540  0.87730482  0.17948066  1
  O  O250  1  0.08694464  0.86192682  0.51348108  1
  O  O251  1  0.08413334  0.87152759  0.84973270  1
  O  O252  1  0.58240040  0.36892960  0.18268561  1
  O  O253  1  0.58026895  0.37120113  0.51520271  1
  O  O254  1  0.57848208  0.37247834  0.85035827  1
  O  O255  1  0.57850153  0.86352606  0.18076650  1
  O  O256  1  0.59480780  0.86258602  0.51958185  1
  O  O257  1  0.58745639  0.86426661  0.85470331  1
  O  O258  1  0.12995006  0.42302599  0.31831339  1
  O  O259  1  0.12832291  0.41145887  0.65178113  1
  O  O260  1  0.12558223  0.42143236  0.98573658  1
  O  O261  1  0.12582717  0.93355915  0.31337478  1
  O  O262  1  0.13206872  0.92207443  0.64964524  1
  O  O263  1  0.13460875  0.92033069  0.98573181  1
  O  O264  1  0.63698913  0.41647733  0.31911971  1
  O  O265  1  0.63591091  0.41508226  0.65047975  1
  O  O266  1  0.63371028  0.42550540  0.98468982  1
  O  O267  1  0.62906118  0.91810949  0.31529189  1
  O  O268  1  0.63090948  0.90344992  0.65703908  1
  O  O269  1  0.63710026  0.91579398  0.99011512  1
  O  O270  1  0.03012097  0.20034601  0.10547707  1
  O  O271  1  0.02731686  0.19991158  0.43828815  1
  O  O272  1  0.03456476  0.20533272  0.77475429  1
  O  O273  1  0.03682870  0.70690659  0.10383883  1
  O  O274  1  0.03854074  0.69468880  0.44415704  1
  O  O275  1  0.02819960  0.70387288  0.77116353  1
  O  O276  1  0.53169958  0.20390308  0.10718601  1
  O  O277  1  0.53241532  0.19840615  0.43291509  1
  O  O278  1  0.53155600  0.20679345  0.76440259  1
  O  O279  1  0.52472863  0.69614960  0.10259390  1
  O  O280  1  0.53026936  0.68267113  0.43877069  1
  O  O281  1  0.53842613  0.68752405  0.76694204  1
  O  O282  1  0.29700425  0.46759321  0.05743630  1
  O  O283  1  0.29323351  0.46095657  0.39686445  1
  O  O284  1  0.31423987  0.46268936  0.73004394  1
  O  O285  1  0.30312004  0.97602343  0.06415304  1
  O  O286  1  0.29173033  0.97899983  0.39396284  1
  O  O287  1  0.29221893  0.97384556  0.72831176  1
  O  O288  1  0.79538926  0.47057028  0.06143775  1
  O  O289  1  0.80242087  0.46966823  0.39630430  1
  O  O290  1  0.79919412  0.46710243  0.72560622  1
  O  O291  1  0.80611644  0.96954014  0.06285540  1
  O  O292  1  0.80281332  0.96645159  0.40542668  1
  O  O293  1  0.81704071  0.97218187  0.73783233  1
  O  O294  1  0.47598594  0.29363351  0.22766667  1
  O  O295  1  0.47317599  0.30293984  0.56209085  1
  O  O296  1  0.46622420  0.31056649  0.89822100  1
  O  O297  1  0.46248740  0.79649288  0.22086429  1
  O  O298  1  0.46929205  0.79770131  0.56359169  1
  O  O299  1  0.46684442  0.79799462  0.89928321  1
  O  O300  1  0.95867421  0.29917061  0.22817010  1
  O  O301  1  0.97159815  0.30157827  0.56498523  1
  O  O302  1  0.96390035  0.29819306  0.89372377  1
  O  O303  1  0.96711017  0.81065711  0.23131596  1
  O  O304  1  0.97205292  0.79978518  0.56382157  1
  O  O305  1  0.97601263  0.80149477  0.89614725  1
  O  O306  1  0.19954535  0.04668351  0.27349697  1
  O  O307  1  0.19390328  0.02973018  0.59902792  1
  O  O308  1  0.19380432  0.03053664  0.93614853  1
  O  O309  1  0.19931165  0.52949509  0.27301859  1
  O  O310  1  0.19446424  0.52495523  0.59406240  1
  O  O311  1  0.20016953  0.53437513  0.94624936  1
  O  O312  1  0.69917841  0.03265373  0.27185975  1
  O  O313  1  0.70120605  0.02842181  0.59779258  1
  O  O314  1  0.71294561  0.02237976  0.94461717  1
  O  O315  1  0.69811547  0.53189470  0.27021653  1
  O  O316  1  0.70100931  0.52908583  0.60315158  1
  O  O317  1  0.69450791  0.53272480  0.93391130  1
  O  O318  1  0.08358018  0.08826373  0.03866381  1
  O  O319  1  0.08146387  0.08912111  0.36998381  1
  O  O320  1  0.08630767  0.09281813  0.70919580  1
  O  O321  1  0.08885299  0.59333465  0.03893336  1
  O  O322  1  0.10244813  0.59071793  0.37876109  1
  O  O323  1  0.07549152  0.58596177  0.70984884  1
  O  O324  1  0.59314539  0.09355178  0.04720586  1
  O  O325  1  0.59248944  0.08995066  0.36764964  1
  O  O326  1  0.59510749  0.09933283  0.70858925  1
  O  O327  1  0.57944490  0.58571892  0.03630223  1
  O  O328  1  0.58163148  0.57651281  0.36439341  1
  O  O329  1  0.58404749  0.57833783  0.69064347  1
  O  O330  1  0.41123592  0.41533748  0.12414930  1
  O  O331  1  0.41040049  0.41413188  0.46126098  1
  O  O332  1  0.42066147  0.41178397  0.80315439  1
  O  O333  1  0.41246811  0.91883077  0.13185314  1
  O  O334  1  0.40334702  0.91984292  0.45054416  1
  O  O335  1  0.40446362  0.92043785  0.79259517  1
  O  O336  1  0.90315048  0.40993671  0.12366446  1
  O  O337  1  0.91554561  0.41837306  0.46515528  1
  O  O338  1  0.91436962  0.41907698  0.79516238  1
  O  O339  1  0.91618280  0.90814311  0.12070239  1
  O  O340  1  0.90677161  0.90359460  0.46606274  1
  O  O341  1  0.92394369  0.91465887  0.80345848  1
  O  O342  1  0.43086746  0.41190907  0.29284668  1
  O  O343  1  0.41915579  0.41453379  0.62812086  1
  O  O344  1  0.41541581  0.42015417  0.96972879  1
  O  O345  1  0.41789228  0.91413598  0.28774200  1
  O  O346  1  0.41488187  0.91054184  0.62541173  1
  O  O347  1  0.41083445  0.90929408  0.95898217  1
  O  O348  1  0.90949636  0.41218612  0.29847673  1
  O  O349  1  0.91793126  0.41501700  0.62917861  1
  O  O350  1  0.90625907  0.40828228  0.95576567  1
  O  O351  1  0.91660607  0.91395325  0.30940553  1
  O  O352  1  0.91148129  0.90631209  0.63162714  1
  O  O353  1  0.93070600  0.91871281  0.96589638  1
  O  O354  1  0.08493390  0.09155136  0.20158577  1
  O  O355  1  0.08308308  0.08535480  0.53347582  1
  O  O356  1  0.08104076  0.08318121  0.87024719  1
  O  O357  1  0.08627180  0.58183774  0.20626233  1
  O  O358  1  0.08746166  0.58056657  0.52712640  1
  O  O359  1  0.08602698  0.58491903  0.87637026  1
  O  O360  1  0.58882482  0.08322099  0.20208097  1
  O  O361  1  0.59742404  0.09177891  0.53450002  1
  O  O362  1  0.58951475  0.06263802  0.88318767  1
  O  O363  1  0.58487179  0.58636556  0.20634811  1
  O  O364  1  0.58633224  0.57817460  0.53486560  1
  O  O365  1  0.57881884  0.57965881  0.86667709  1
  O  O366  1  0.13559128  0.22244150  0.05760550  1
  O  O367  1  0.13524370  0.22318131  0.39434957  1
  O  O368  1  0.13723839  0.22555679  0.72331696  1
  O  O369  1  0.14183652  0.72523520  0.05505574  1
  O  O370  1  0.14275062  0.72666904  0.39836650  1
  O  O371  1  0.13932243  0.71571400  0.72781624  1
  O  O372  1  0.63631127  0.22642934  0.05978595  1
  O  O373  1  0.64047493  0.22572368  0.39121257  1
  O  O374  1  0.63776436  0.23144885  0.71974107  1
  O  O375  1  0.63611779  0.72020066  0.06331652  1
  O  O376  1  0.63413823  0.71240672  0.39132480  1
  O  O377  1  0.64461417  0.71231659  0.72065209  1
  O  O378  1  0.27778233  0.36566653  0.10844031  1
  O  O379  1  0.28019605  0.35676331  0.44812238  1
  O  O380  1  0.28451255  0.35881234  0.77629305  1
  O  O381  1  0.27744585  0.86552488  0.10348991  1
  O  O382  1  0.27005702  0.86948455  0.43636860  1
  O  O383  1  0.27186350  0.86484904  0.77189697  1
  O  O384  1  0.76911403  0.36160090  0.10395379  1
  O  O385  1  0.78189054  0.36284308  0.44266966  1
  O  O386  1  0.78202338  0.35970443  0.77191662  1
  O  O387  1  0.78373443  0.87177878  0.11877407  1
  O  O388  1  0.77058199  0.85625201  0.44398483  1
  O  O389  1  0.78872281  0.86102052  0.77709458  1
  O  O390  1  0.36547322  0.28248125  0.27153258  1
  O  O391  1  0.36361167  0.28045881  0.60481570  1
  O  O392  1  0.36221984  0.28515841  0.94648612  1
  O  O393  1  0.35506500  0.78557047  0.26923127  1
  O  O394  1  0.36551464  0.77873053  0.61197899  1
  O  O395  1  0.35792808  0.77719792  0.94367714  1
  O  O396  1  0.85682831  0.27886277  0.28021351  1
  O  O397  1  0.86317291  0.28226973  0.61034666  1
  O  O398  1  0.85334308  0.27456427  0.93543400  1
  O  O399  1  0.86169221  0.77647964  0.27299273  1
  O  O400  1  0.86453015  0.76965001  0.60546652  1
  O  O401  1  0.86834632  0.78920400  0.94422534  1
  O  O402  1  0.21735187  0.14812918  0.22014977  1
  O  O403  1  0.21760642  0.13821167  0.55575252  1
  O  O404  1  0.21454414  0.13842786  0.89071086  1
  O  O405  1  0.22053249  0.63603770  0.22792161  1
  O  O406  1  0.22269660  0.63855337  0.55834251  1
  O  O407  1  0.21894096  0.63509646  0.89264687  1
  O  O408  1  0.72266048  0.14067306  0.22847063  1
  O  O409  1  0.73335730  0.13807039  0.55990215  1
  O  O410  1  0.71508335  0.12857662  0.89480353  1
  O  O411  1  0.71872363  0.63960814  0.22474677  1
  O  O412  1  0.72025900  0.63631368  0.55735361  1
  O  O413  1  0.70933130  0.63576319  0.88021378  1
  O  O414  1  0.49396208  0.33766307  0.03164566  1
  O  O415  1  0.49597257  0.32905295  0.36230645  1
  O  O416  1  0.49304091  0.33360850  0.69587455  1
  O  O417  1  0.48738652  0.83401723  0.03277520  1
  O  O418  1  0.48924254  0.82912030  0.35433570  1
  O  O419  1  0.49759832  0.83990687  0.69911288  1
  O  O420  1  0.98311875  0.32961693  0.02578109  1
  O  O421  1  0.98980193  0.33293903  0.36316004  1
  O  O422  1  0.99407512  0.33755584  0.69871739  1
  O  O423  1  1.00198827  0.83399065  0.03026011  1
  O  O424  1  0.99210690  0.82461538  0.36323738  1
  O  O425  1  0.99342981  0.82768591  0.69601122  1
  O  O426  1  0.16662740  0.01429855  0.13799500  1
  O  O427  1  0.16237256  0.00860862  0.46590918  1
  O  O428  1  0.15993479  0.00797053  0.80153226  1
  O  O429  1  0.16946511  0.50665758  0.14007628  1
  O  O430  1  0.17324964  0.50917262  0.46319002  1
  O  O431  1  0.16179450  0.50111135  0.81092357  1
  O  O432  1  0.67598389  0.00941177  0.14017383  1
  O  O433  1  0.67357051  0.01130974  0.46567166  1
  O  O434  1  0.66919111  -0.00473929  0.80908087  1
  O  O435  1  0.66223412  0.50979443  0.13623853  1
  O  O436  1  0.66999715  0.50548996  0.46935833  1
  O  O437  1  0.65882482  0.50283519  0.79872836  1
  O  O438  1  0.00420443  0.16996272  0.30515296  1
  O  O439  1  0.00616406  0.16945263  0.64001004  1
  O  O440  1  0.00467168  0.16621794  0.97121678  1
  O  O441  1  0.01282657  0.66289031  0.31137283  1
  O  O442  1  0.01081018  0.66551192  0.63619436  1
  O  O443  1  0.00904858  0.66827626  0.96914021  1
  O  O444  1  0.51138439  0.16690726  0.29998761  1
  O  O445  1  0.51081027  0.16784411  0.63031884  1
  O  O446  1  0.50605063  0.16366545  0.97323419  1
  O  O447  1  0.50190885  0.65941892  0.30525082  1
  O  O448  1  0.51163942  0.66811890  0.63404049  1
  O  O449  1  0.50689594  0.66851252  0.96986305  1
  O  O450  1  0.33751455  0.49887206  0.19280997  1
  O  O451  1  0.33344781  0.48951777  0.53305303  1
  O  O452  1  0.33565894  0.48988053  0.86291676  1
  O  O453  1  0.32967364  0.99494124  0.19617384  1
  O  O454  1  0.32827620  0.99566726  0.52729883  1
  O  O455  1  0.32359511  0.99473956  0.86184937  1
  O  O456  1  0.82751480  0.49056669  0.19386874  1
  O  O457  1  0.83317089  0.49409127  0.52990389  1
  O  O458  1  0.83088460  0.49249430  0.85931209  1
  O  O459  1  0.85728229  1.00000587  0.19829897  1
  O  O460  1  0.83113290  0.98329655  0.53730963  1
  O  O461  1  0.84224153  0.98980727  0.86892019  1
