# generated using pymatgen
data_Na31Fe20(SO4)36
_symmetry_space_group_name_H-M   'P 1'
_cell_length_a   18.06705217
_cell_length_b   18.06752462
_cell_length_c   19.70091568
_cell_angle_alpha   107.60882706
_cell_angle_beta   107.57621819
_cell_angle_gamma   90.69856154
_symmetry_Int_Tables_number   1
_chemical_formula_structural   Na31Fe20(SO4)36
_chemical_formula_sum   'Na62 Fe40 S72 O288'
_cell_volume   5805.36589943
_cell_formula_units_Z   2
loop_
 _symmetry_equiv_pos_site_id
 _symmetry_equiv_pos_as_xyz
  1  'x, y, z'
loop_
 _atom_site_type_symbol
 _atom_site_label
 _atom_site_symmetry_multiplicity
 _atom_site_fract_x
 _atom_site_fract_y
 _atom_site_fract_z
 _atom_site_occupancy
  Na  Na0  1  0.12834777  0.36340531  0.08049183  1
  Na  Na1  1  0.13374330  0.37632160  0.42620617  1
  Na  Na2  1  0.14094426  0.36266841  0.75375230  1
  Na  Na3  1  0.13566856  0.86228815  0.08077388  1
  Na  Na4  1  0.13985458  0.86422462  0.41588702  1
  Na  Na5  1  0.14130097  0.85902696  0.74931959  1
  Na  Na6  1  0.63484081  0.36927093  0.09048207  1
  Na  Na7  1  0.63852717  0.35544994  0.40568680  1
  Na  Na8  1  0.63690079  0.37174364  0.75762447  1
  Na  Na9  1  0.62393265  0.87066808  0.08812340  1
  Na  Na10  1  0.63312723  0.87415261  0.42414936  1
  Na  Na11  1  0.63485165  0.86041961  0.75307848  1
  Na  Na12  1  0.36630634  0.13460610  0.24534232  1
  Na  Na13  1  0.37979287  0.14326690  0.58981020  1
  Na  Na14  1  0.36291411  0.13491417  0.91103605  1
  Na  Na15  1  0.36230537  0.64529970  0.25509137  1
  Na  Na16  1  0.36804092  0.63279418  0.59221509  1
  Na  Na17  1  0.36812960  0.63631541  0.91562750  1
  Na  Na18  1  0.86568294  0.14128659  0.25908715  1
  Na  Na19  1  0.86648812  0.13031037  0.58570760  1
  Na  Na20  1  0.85759054  0.12888772  0.90541600  1
  Na  Na21  1  0.86708102  0.63889023  0.25593233  1
  Na  Na22  1  0.85799149  0.62610956  0.57033512  1
  Na  Na23  1  0.86263521  0.62789255  0.91500900  1
  Na  Na24  1  0.98476720  0.00441982  0.43795299  1
  Na  Na25  1  0.50390752  0.52519213  0.06425089  1
  Na  Na26  1  0.95693962  0.50459091  0.07804752  1
  Na  Na27  1  0.98691556  0.01233340  0.08257598  1
  Na  Na28  1  0.99320097  0.01350858  0.72884912  1
  Na  Na29  1  0.49542762  0.04156416  0.43927560  1
  Na  Na30  1  0.45875308  0.50516364  0.74898354  1
  Na  Na31  1  0.54286632  -0.01537827  0.69996320  1
  Na  Na32  1  0.99658211  0.50401862  0.74383509  1
  Na  Na33  1  -0.00374134  0.49003890  0.91805621  1
  Na  Na34  1  -0.00264686  0.49370471  0.27234153  1
  Na  Na35  1  0.50491580  0.96180600  0.90302609  1
  Na  Na36  1  0.50183349  0.48605974  0.57344258  1
  Na  Na37  1  0.00873359  0.99266427  0.25716203  1
  Na  Na38  1  0.50076056  1.01016511  0.21144928  1
  Na  Na39  1  0.01396552  0.98849284  0.91235869  1
  Na  Na40  1  0.02236025  0.49895840  0.56660022  1
  Na  Na41  1  0.53111955  0.48173125  0.29630724  1
  Na  Na42  1  0.73992436  0.24618873  0.00642433  1
  Na  Na43  1  0.73556240  0.73779424  0.34078214  1
  Na  Na44  1  0.25884514  0.25458275  -0.01325312  1
  Na  Na45  1  0.25539408  0.25880405  0.33087422  1
  Na  Na46  1  0.25241714  0.25639479  0.66903360  1
  Na  Na47  1  0.74331377  0.74662046  0.00742080  1
  Na  Na48  1  0.25990300  0.75363319  0.67266907  1
  Na  Na49  1  0.72809096  0.23166175  0.67034343  1
  Na  Na50  1  0.74444643  0.74246251  0.66759604  1
  Na  Na51  1  0.27052833  0.76402617  -0.01298965  1
  Na  Na52  1  0.73749493  0.23727407  0.83709552  1
  Na  Na53  1  0.26386823  0.76053036  0.49280035  1
  Na  Na54  1  0.73465298  0.73526472  0.50207942  1
  Na  Na55  1  0.26150573  0.26807196  0.50177327  1
  Na  Na56  1  0.73750236  0.24162322  0.49717524  1
  Na  Na57  1  0.74555454  0.74471961  0.17323568  1
  Na  Na58  1  0.26126516  0.75709767  0.16372983  1
  Na  Na59  1  0.74709810  0.74252470  0.83758987  1
  Na  Na60  1  0.72852678  0.23951245  0.18729900  1
  Na  Na61  1  0.25444449  0.25597362  0.15875947  1
  Fe  Fe62  1  0.96794757  0.80744455  0.45398103  1
  Fe  Fe63  1  0.46709625  0.31002873  0.78847823  1
  Fe  Fe64  1  0.47004090  0.29434713  0.45674680  1
  Fe  Fe65  1  0.96371405  0.30600319  0.78330961  1
  Fe  Fe66  1  0.96028722  0.30992855  0.11918412  1
  Fe  Fe67  1  0.47083672  0.29664724  0.12489919  1
  Fe  Fe68  1  0.46162434  0.81465921  0.45409354  1
  Fe  Fe69  1  0.96847496  0.80759696  0.11932369  1
  Fe  Fe70  1  0.96830541  0.80038996  0.78351987  1
  Fe  Fe71  1  0.96111310  0.30716592  0.45079527  1
  Fe  Fe72  1  0.19265490  0.03602289  0.38275778  1
  Fe  Fe73  1  0.69309247  0.53153077  0.71019863  1
  Fe  Fe74  1  0.69816753  0.53036581  0.03694746  1
  Fe  Fe75  1  0.68898686  0.03484224  0.04916727  1
  Fe  Fe76  1  0.19039962  0.03434250  0.04734391  1
  Fe  Fe77  1  0.19142987  0.03996015  0.71449334  1
  Fe  Fe78  1  0.68843445  0.03644325  0.37865954  1
  Fe  Fe79  1  0.19752816  0.53423696  0.38364421  1
  Fe  Fe80  1  0.19290082  0.53172678  0.05173040  1
  Fe  Fe81  1  0.20269903  0.53306285  0.71598673  1
  Fe  Fe82  1  0.53537807  0.18697198  0.87585467  1
  Fe  Fe83  1  0.03199891  0.19711776  0.21744715  1
  Fe  Fe84  1  0.04067428  0.69001152  0.88235653  1
  Fe  Fe85  1  0.52759746  0.70199667  0.87227613  1
  Fe  Fe86  1  0.03515291  0.19320664  0.88247312  1
  Fe  Fe87  1  0.03367091  0.19602940  0.55164791  1
  Fe  Fe88  1  0.53231085  0.68961140  0.54125454  1
  Fe  Fe89  1  0.52939387  0.70474332  0.20843148  1
  Fe  Fe90  1  0.03647986  0.69400554  0.54807773  1
  Fe  Fe91  1  0.03901648  0.69118583  0.21625486  1
  Fe  Fe92  1  0.80627078  0.96475149  0.95136053  1
  Fe  Fe93  1  0.30957431  0.96516522  0.28686714  1
  Fe  Fe94  1  0.31213316  0.96870067  0.62243846  1
  Fe  Fe95  1  0.30936201  0.46051335  0.95559996  1
  Fe  Fe96  1  0.79587618  0.47191944  0.29074978  1
  Fe  Fe97  1  0.31379988  0.96191675  0.95218233  1
  Fe  Fe98  1  0.80865275  0.96344496  0.28564811  1
  Fe  Fe99  1  0.80426432  0.46384614  0.61308978  1
  Fe  Fe100  1  0.80091578  0.96396419  0.62111959  1
  Fe  Fe101  1  0.31350772  0.46406743  0.29171747  1
  S  S102  1  0.35274176  0.13631244  0.08015607  1
  S  S103  1  0.35021527  0.14122009  0.41393473  1
  S  S104  1  0.35672786  0.14486677  0.74935923  1
  S  S105  1  0.35646235  0.63878500  0.08449463  1
  S  S106  1  0.35840701  0.64193181  0.41575316  1
  S  S107  1  0.36017183  0.64058275  0.75090660  1
  S  S108  1  0.85879309  0.14055619  0.08371643  1
  S  S109  1  0.86240488  0.13675436  0.41685778  1
  S  S110  1  0.86352611  0.13812423  0.74975388  1
  S  S111  1  0.86293564  0.64519900  0.08423467  1
  S  S112  1  0.86206514  0.64397263  0.41546218  1
  S  S113  1  0.86484502  0.63599769  0.75050994  1
  S  S114  1  0.13774156  0.36111728  0.25033591  1
  S  S115  1  0.13669657  0.36275861  0.58551459  1
  S  S116  1  0.13751413  0.36075286  0.91830919  1
  S  S117  1  0.14054510  0.86025770  0.24979668  1
  S  S118  1  0.14075934  0.86250120  0.58461249  1
  S  S119  1  0.14085246  0.85906097  0.91663618  1
  S  S120  1  0.64034198  0.36024835  0.24887381  1
  S  S121  1  0.64053135  0.35710170  0.57914642  1
  S  S122  1  0.64134356  0.35760949  0.91745320  1
  S  S123  1  0.64441126  0.86292704  0.25123831  1
  S  S124  1  0.63888923  0.85645293  0.58482280  1
  S  S125  1  0.64593027  0.85843733  0.91966312  1
  S  S126  1  0.06155175  0.16728197  0.04233140  1
  S  S127  1  0.06771896  0.17316689  0.37829687  1
  S  S128  1  0.06876886  0.17274956  0.70973815  1
  S  S129  1  0.06816813  0.66751626  0.04386259  1
  S  S130  1  0.07221425  0.67210751  0.37813761  1
  S  S131  1  0.06876904  0.66448777  0.70691274  1
  S  S132  1  0.56553778  0.16678993  0.03869573  1
  S  S133  1  0.55770774  0.16089657  0.36924551  1
  S  S134  1  0.56854493  0.17495845  0.71661302  1
  S  S135  1  0.57252469  0.67357525  0.03845823  1
  S  S136  1  0.56314980  0.67884815  0.37543990  1
  S  S137  1  0.56908852  0.66798828  0.70705221  1
  S  S138  1  0.32578866  0.42330848  0.12401329  1
  S  S139  1  0.33164138  0.43044844  0.45788417  1
  S  S140  1  0.32927074  0.43117169  0.79572766  1
  S  S141  1  0.32310890  0.93347307  0.12041564  1
  S  S142  1  0.32800107  0.93803916  0.45865433  1
  S  S143  1  0.32680225  0.94024365  0.78657720  1
  S  S144  1  0.83040641  0.43732305  0.12837928  1
  S  S145  1  0.83340900  0.42927477  0.45747158  1
  S  S146  1  0.83425013  0.43282949  0.78690922  1
  S  S147  1  0.83956148  0.93604910  0.12680404  1
  S  S148  1  0.83228428  0.92918161  0.45901031  1
  S  S149  1  0.83588681  0.92606739  0.79282238  1
  S  S150  1  0.42993789  0.32506438  0.29288561  1
  S  S151  1  0.43886245  0.33409915  0.62462415  1
  S  S152  1  0.43300332  0.32834043  0.96309130  1
  S  S153  1  0.43541086  0.83799478  0.29427654  1
  S  S154  1  0.43448461  0.83088756  0.62234372  1
  S  S155  1  0.43766347  0.83018447  0.95713126  1
  S  S156  1  0.92939209  0.33069697  0.28928209  1
  S  S157  1  0.93026141  0.32944895  0.62238355  1
  S  S158  1  0.93279141  0.32887108  0.95546719  1
  S  S159  1  0.93822350  0.83415221  0.29279102  1
  S  S160  1  0.92922409  0.82534570  0.62307804  1
  S  S161  1  0.93657190  0.82864698  0.95708973  1
  S  S162  1  0.16140016  0.06653603  0.20762721  1
  S  S163  1  0.16929765  0.07087919  0.54321055  1
  S  S164  1  0.16081707  0.06335557  0.87273678  1
  S  S165  1  0.16435717  0.56398550  0.20787635  1
  S  S166  1  0.17061153  0.57270430  0.54441888  1
  S  S167  1  0.16921538  0.56439698  0.87877694  1
  S  S168  1  0.67817055  0.06528883  0.21197175  1
  S  S169  1  0.67766091  0.06729462  0.54447704  1
  S  S170  1  0.66976460  0.06046743  0.87824444  1
  S  S171  1  0.67054180  0.57541443  0.20377447  1
  S  S172  1  0.66738979  0.56360174  0.54081645  1
  S  S173  1  0.66789494  0.57510372  0.87261269  1
  O  O174  1  0.36510174  0.21814687  0.07838850  1
  O  O175  1  0.36424327  0.22299532  0.41217664  1
  O  O176  1  0.36780020  0.22362905  0.74137127  1
  O  O177  1  0.35647290  0.71424544  0.07218160  1
  O  O178  1  0.36468111  0.72121130  0.40897698  1
  O  O179  1  0.36711676  0.71755860  0.74312519  1
  O  O180  1  0.86756842  0.21885063  0.07411135  1
  O  O181  1  0.87360235  0.21293277  0.40554444  1
  O  O182  1  0.87553305  0.21420987  0.73585935  1
  O  O183  1  0.87219265  0.72619707  0.07861949  1
  O  O184  1  0.87696917  0.71957430  0.40061677  1
  O  O185  1  0.87191769  0.71495148  0.74141065  1
  O  O186  1  0.27084181  0.13146621  0.08658434  1
  O  O187  1  0.26857225  0.13701435  0.41829623  1
  O  O188  1  0.27817844  0.13653592  0.75790558  1
  O  O189  1  0.27995434  0.62222710  0.09680602  1
  O  O190  1  0.28050416  0.63014556  0.42604648  1
  O  O191  1  0.28589608  0.62733919  0.76721126  1
  O  O192  1  0.78000158  0.13081951  0.09052463  1
  O  O193  1  0.78363311  0.12850071  0.42437785  1
  O  O194  1  0.78789732  0.13334128  0.76128475  1
  O  O195  1  0.78148544  0.63532591  0.08618266  1
  O  O196  1  0.78461465  0.64205781  0.42418101  1
  O  O197  1  0.78719297  0.62714350  0.76090676  1
  O  O198  1  0.12895277  0.28246337  0.25999802  1
  O  O199  1  0.12428063  0.28500494  0.59677855  1
  O  O200  1  0.12828458  0.28301853  0.92946581  1
  O  O201  1  0.13035021  0.78216332  0.25737085  1
  O  O202  1  0.13092217  0.78459227  0.59548260  1
  O  O203  1  0.13200252  0.78129936  0.92781883  1
  O  O204  1  0.63723549  0.28030735  0.25043642  1
  O  O205  1  0.63888647  0.27945439  0.58620931  1
  O  O206  1  0.62851067  0.27786289  0.92539570  1
  O  O207  1  0.63312503  0.78001922  0.25102657  1
  O  O208  1  0.62956982  0.77258738  0.58445147  1
  O  O209  1  0.63224269  0.77563161  0.92000883  1
  O  O210  1  0.21665812  0.36938206  0.24253835  1
  O  O211  1  0.21215164  0.36851296  0.57440397  1
  O  O212  1  0.21685618  0.36956358  0.91303853  1
  O  O213  1  0.21921554  0.87094781  0.24224446  1
  O  O214  1  0.22003289  0.87078491  0.57684282  1
  O  O215  1  0.22059926  0.86999008  0.91306683  1
  O  O216  1  0.71440108  0.37683055  0.23124909  1
  O  O217  1  0.71493752  0.37331567  0.56383145  1
  O  O218  1  0.71630864  0.36354905  0.90459584  1
  O  O219  1  0.72497289  0.86848581  0.24237867  1
  O  O220  1  0.71822411  0.86380470  0.57533902  1
  O  O221  1  0.72824860  0.86387872  0.91673019  1
  O  O222  1  0.40822635  0.11949528  0.14259783  1
  O  O223  1  0.40508067  0.12507018  0.47753976  1
  O  O224  1  0.41599906  0.13563752  0.81644840  1
  O  O225  1  0.41882618  0.63693639  0.15378696  1
  O  O226  1  0.41851415  0.63243194  0.48242438  1
  O  O227  1  0.42528721  0.63457911  0.82088757  1
  O  O228  1  0.91799837  0.13365929  0.15281905  1
  O  O229  1  0.92149603  0.12944032  0.48628228  1
  O  O230  1  0.92592459  0.13101655  0.81753963  1
  O  O231  1  0.91823319  0.64008132  0.15650636  1
  O  O232  1  0.92174809  0.63844172  0.48460027  1
  O  O233  1  0.92592573  0.62953024  0.81857202  1
  O  O234  1  0.35295877  0.08233837  0.00590032  1
  O  O235  1  0.35395439  0.08611210  0.34152462  1
  O  O236  1  0.36294136  0.08622509  0.67993583  1
  O  O237  1  0.36743681  0.57619665  0.01922147  1
  O  O238  1  0.36369066  0.58362518  0.34575331  1
  O  O239  1  0.36873224  0.57847043  0.68658449  1
  O  O240  1  0.87044707  0.08057670  0.01724495  1
  O  O241  1  0.87367252  0.07452867  0.35165659  1
  O  O242  1  0.87258095  0.07497498  0.68391830  1
  O  O243  1  0.87783623  0.58785962  0.02072100  1
  O  O244  1  0.86817448  0.58044939  0.34900339  1
  O  O245  1  0.87378616  0.57688305  0.68304495  1
  O  O246  1  0.07858041  0.36683584  0.18139399  1
  O  O247  1  0.07368888  0.37096915  0.51864312  1
  O  O248  1  0.07910124  0.36744429  0.84910257  1
  O  O249  1  0.08172615  0.86909713  0.18103534  1
  O  O250  1  0.08242607  0.86656883  0.51415005  1
  O  O251  1  0.08326447  0.86332940  0.84579872  1
  O  O252  1  0.57481288  0.37186909  0.18475250  1
  O  O253  1  0.57527420  0.36480232  0.51328187  1
  O  O254  1  0.57826403  0.37019578  0.85421157  1
  O  O255  1  0.58655453  0.88088658  0.19085876  1
  O  O256  1  0.58034903  0.86923372  0.51927120  1
  O  O257  1  0.59127343  0.87373780  0.85544970  1
  O  O258  1  0.12827187  0.42123833  0.31743874  1
  O  O259  1  0.12956789  0.42386579  0.65368528  1
  O  O260  1  0.12576817  0.42114793  0.98441025  1
  O  O261  1  0.12999120  0.92048277  0.31669207  1
  O  O262  1  0.13095335  0.92300567  0.65051113  1
  O  O263  1  0.12544135  0.91919103  0.98105146  1
  O  O264  1  0.63809734  0.41747122  0.31914523  1
  O  O265  1  0.63404993  0.41703919  0.64820857  1
  O  O266  1  0.63932321  0.41550005  0.98957262  1
  O  O267  1  0.64514976  0.91527168  0.32603447  1
  O  O268  1  0.63503971  0.90922752  0.65569050  1
  O  O269  1  0.64085776  0.91261362  0.99152139  1
  O  O270  1  0.02724090  0.19814236  0.10462808  1
  O  O271  1  0.03269320  0.20225115  0.44009578  1
  O  O272  1  0.03667265  0.20528190  0.77373683  1
  O  O273  1  0.03195994  0.69852682  0.10520362  1
  O  O274  1  0.03589910  0.70203977  0.43907253  1
  O  O275  1  0.03458697  0.69664251  0.77016154  1
  O  O276  1  0.52749963  0.19399969  0.09666626  1
  O  O277  1  0.51986276  0.19166397  0.42974585  1
  O  O278  1  0.52895577  0.21010028  0.77768189  1
  O  O279  1  0.53020735  0.69142289  0.09375482  1
  O  O280  1  0.52329296  0.71099810  0.43454312  1
  O  O281  1  0.53613644  0.69546714  0.76965484  1
  O  O282  1  0.29794324  0.46238779  0.06446787  1
  O  O283  1  0.30028796  0.46231900  0.39158511  1
  O  O284  1  0.29976220  0.46737416  0.73615506  1
  O  O285  1  0.28978784  0.97041258  0.05888331  1
  O  O286  1  0.29525513  0.97303668  0.39558787  1
  O  O287  1  0.29180329  0.97866310  0.72599869  1
  O  O288  1  0.80693836  0.47613906  0.07019889  1
  O  O289  1  0.80980546  0.46358280  0.39669242  1
  O  O290  1  0.80096775  0.46292648  0.72088880  1
  O  O291  1  0.80893976  0.97134368  0.06567145  1
  O  O292  1  0.80610131  0.96770714  0.39952682  1
  O  O293  1  0.81215386  0.95915369  0.73155131  1
  O  O294  1  0.46447639  0.29925711  0.23231002  1
  O  O295  1  0.46880344  0.29518537  0.56106603  1
  O  O296  1  0.46672000  0.30169079  0.90052297  1
  O  O297  1  0.47382615  0.80904379  0.23665854  1
  O  O298  1  0.46466209  0.79640581  0.55613909  1
  O  O299  1  0.47628028  0.79935788  0.89640746  1
  O  O300  1  0.96859032  0.30135662  0.22866982  1
  O  O301  1  0.96352675  0.29602945  0.55937415  1
  O  O302  1  0.96943533  0.29364030  0.89459053  1
  O  O303  1  0.97421544  0.80474650  0.23163096  1
  O  O304  1  0.96668339  0.79916942  0.56247013  1
  O  O305  1  0.97221193  0.79758040  0.89572710  1
  O  O306  1  0.19116758  0.03029813  0.26800519  1
  O  O307  1  0.19891441  0.03392236  0.60323101  1
  O  O308  1  0.18773467  0.02587258  0.93252842  1
  O  O309  1  0.19572505  0.53094393  0.27091285  1
  O  O310  1  0.18961169  0.53783815  0.60518893  1
  O  O311  1  0.19822887  0.52751617  0.93943454  1
  O  O312  1  0.70948538  0.02787973  0.27401115  1
  O  O313  1  0.70897070  0.02873325  0.60253880  1
  O  O314  1  0.70286820  0.02775388  0.94386677  1
  O  O315  1  0.69539564  0.53901031  0.26333307  1
  O  O316  1  0.70415162  0.53592949  0.60912908  1
  O  O317  1  0.68780619  0.53827945  0.93168822  1
  O  O318  1  0.07771237  0.08434007  0.03728945  1
  O  O319  1  0.08542271  0.09091571  0.37206586  1
  O  O320  1  0.08578061  0.09120745  0.70724249  1
  O  O321  1  0.08304938  0.58475406  0.03768831  1
  O  O322  1  0.09106071  0.59076088  0.37230708  1
  O  O323  1  0.08540478  0.58258526  0.70409564  1
  O  O324  1  0.58475810  0.08463720  0.03157981  1
  O  O325  1  0.58172209  0.08181871  0.37444721  1
  O  O326  1  0.59942939  0.10460854  0.73038398  1
  O  O327  1  0.59350256  0.59201510  0.02598976  1
  O  O328  1  0.58247907  0.60106639  0.37565254  1
  O  O329  1  0.58488111  0.58457044  0.69509936  1
  O  O330  1  0.40425343  0.39981833  0.12826863  1
  O  O331  1  0.40692237  0.39745216  0.45596848  1
  O  O332  1  0.41025294  0.41231054  0.79777407  1
  O  O333  1  0.40260691  0.91857632  0.12470453  1
  O  O334  1  0.40887932  0.92185834  0.46096463  1
  O  O335  1  0.40711640  0.92919707  0.78947684  1
  O  O336  1  0.91520737  0.42074011  0.13750263  1
  O  O337  1  0.91782567  0.41331276  0.47080660  1
  O  O338  1  0.91724971  0.41438096  0.78893653  1
  O  O339  1  0.92291899  0.92021977  0.13050941  1
  O  O340  1  0.91423070  0.91067198  0.46295000  1
  O  O341  1  0.91924100  0.90691044  0.80435578  1
  O  O342  1  0.41753956  0.40991691  0.30584180  1
  O  O343  1  0.43239645  0.41675003  0.62970586  1
  O  O344  1  0.41600179  0.41180440  0.97364709  1
  O  O345  1  0.41616496  0.92012169  0.29884286  1
  O  O346  1  0.40947207  0.90953853  0.61882953  1
  O  O347  1  0.41127583  0.90705861  0.94751221  1
  O  O348  1  0.91025351  0.41073965  0.29248429  1
  O  O349  1  0.91556987  0.41194860  0.62732734  1
  O  O350  1  0.92379658  0.41063685  0.95959622  1
  O  O351  1  0.92297340  0.91766842  0.29972622  1
  O  O352  1  0.90817215  0.90594108  0.63065257  1
  O  O353  1  0.92028474  0.91125958  0.96282025  1
  O  O354  1  0.07863753  0.08387435  0.20373670  1
  O  O355  1  0.08797331  0.09044064  0.53899333  1
  O  O356  1  0.07701748  0.07985082  0.86646359  1
  O  O357  1  0.08072874  0.57912042  0.20146987  1
  O  O358  1  0.08697376  0.59068340  0.53008016  1
  O  O359  1  0.08474366  0.57847140  0.87179842  1
  O  O360  1  0.59923223  0.08225799  0.20717060  1
  O  O361  1  0.59968633  0.08754991  0.54255386  1
  O  O362  1  0.58983341  0.08102177  0.87698984  1
  O  O363  1  0.58974073  0.59850796  0.19534541  1
  O  O364  1  0.58850328  0.58632359  0.54349082  1
  O  O365  1  0.58728080  0.59993472  0.85949196  1
  O  O366  1  0.13305930  0.21748272  0.05663597  1
  O  O367  1  0.13708467  0.22596670  0.39205989  1
  O  O368  1  0.13816727  0.22218875  0.71911559  1
  O  O369  1  0.13988693  0.71817314  0.05992225  1
  O  O370  1  0.14138954  0.72511584  0.39243215  1
  O  O371  1  0.13807657  0.71529658  0.71839422  1
  O  O372  1  0.63845859  0.21921165  0.05762224  1
  O  O373  1  0.62782018  0.21423009  0.38581573  1
  O  O374  1  0.63475392  0.23455465  0.73140968  1
  O  O375  1  0.64344094  0.73037617  0.06289361  1
  O  O376  1  0.63435007  0.73387195  0.39443760  1
  O  O377  1  0.64275511  0.71876296  0.72490533  1
  O  O378  1  0.26761789  0.35485019  0.10487482  1
  O  O379  1  0.27149296  0.36614046  0.44502796  1
  O  O380  1  0.27758506  0.36076079  0.78221006  1
  O  O381  1  0.27023541  0.86129046  0.10244985  1
  O  O382  1  0.27707523  0.86710862  0.44417352  1
  O  O383  1  0.27552659  0.86786107  0.76776611  1
  O  O384  1  0.78052530  0.36412760  0.10904504  1
  O  O385  1  0.78372272  0.35822080  0.44396373  1
  O  O386  1  0.78541022  0.36125688  0.77493937  1
  O  O387  1  0.79066118  0.86414767  0.11326928  1
  O  O388  1  0.78035733  0.85760598  0.44177615  1
  O  O389  1  0.78364119  0.85555483  0.77941503  1
  O  O390  1  0.35394109  0.27695642  0.27329685  1
  O  O391  1  0.36301633  0.28942828  0.61158105  1
  O  O392  1  0.36125505  0.27725107  0.94678936  1
  O  O393  1  0.36346360  0.78639758  0.27770530  1
  O  O394  1  0.36573894  0.77792394  0.61167597  1
  O  O395  1  0.36912046  0.77506342  0.94108949  1
  O  O396  1  0.86021096  0.27627040  0.27156226  1
  O  O397  1  0.85865053  0.28032946  0.60925609  1
  O  O398  1  0.85988110  0.27992533  0.94007056  1
  O  O399  1  0.86606056  0.78424014  0.27641071  1
  O  O400  1  0.86027285  0.77012171  0.60687095  1
  O  O401  1  0.86544084  0.77772793  0.94249502  1
  O  O402  1  0.21136484  0.13823537  0.22164816  1
  O  O403  1  0.22130806  0.14119163  0.55700642  1
  O  O404  1  0.21076615  0.13530401  0.88925403  1
  O  O405  1  0.21276720  0.63490819  0.21866747  1
  O  O406  1  0.22353340  0.64375593  0.56175601  1
  O  O407  1  0.21776563  0.63737294  0.89637193  1
  O  O408  1  0.73307697  0.13386498  0.22813932  1
  O  O409  1  0.73280892  0.13763470  0.56012119  1
  O  O410  1  0.72306311  0.13196230  0.89515133  1
  O  O411  1  0.72713164  0.64526793  0.22190820  1
  O  O412  1  0.71986197  0.63462039  0.55376710  1
  O  O413  1  0.72615978  0.64388820  0.89248782  1
  O  O414  1  0.49306856  0.32776974  0.03429989  1
  O  O415  1  0.48573454  0.31727590  0.36329139  1
  O  O416  1  0.49550112  0.33124939  0.69716530  1
  O  O417  1  0.49496467  0.84464695  0.03063530  1
  O  O418  1  0.49171434  0.84321625  0.36996845  1
  O  O419  1  0.49877203  0.84318446  0.69184372  1
  O  O420  1  0.98992004  0.32811994  0.02935248  1
  O  O421  1  0.98954707  0.33217408  0.36136890  1
  O  O422  1  0.99235957  0.33187708  0.69375264  1
  O  O423  1  0.99666036  0.83116643  0.02951070  1
  O  O424  1  0.99724394  0.83580519  0.36518383  1
  O  O425  1  0.99095496  0.82732410  0.69472972  1
  O  O426  1  0.15595536  0.00715254  0.13375861  1
  O  O427  1  0.16317253  0.01011347  0.46952838  1
  O  O428  1  0.15725404  0.00525604  0.79904036  1
  O  O429  1  0.16169338  0.50149995  0.13634138  1
  O  O430  1  0.17429101  0.51259890  0.47391225  1
  O  O431  1  0.16756381  0.50658976  0.80571775  1
  O  O432  1  0.68018985  0.00462303  0.14019171  1
  O  O433  1  0.67568289  0.00939970  0.46965622  1
  O  O434  1  0.66672785  -0.00110453  0.80929507  1
  O  O435  1  0.66758969  0.51695224  0.12966388  1
  O  O436  1  0.66161974  0.50061133  0.47289912  1
  O  O437  1  0.66970883  0.51490830  0.80142605  1
  O  O438  1  0.00635889  0.16906196  0.30570744  1
  O  O439  1  0.00512362  0.16765832  0.63860052  1
  O  O440  1  0.00204978  0.16389746  0.96980026  1
  O  O441  1  0.01068339  0.66812908  0.30528965  1
  O  O442  1  0.00634541  0.65912246  0.63450283  1
  O  O443  1  0.00900782  0.66621011  0.97124608  1
  O  O444  1  0.49958490  0.14696529  0.29519074  1
  O  O445  1  0.50972857  0.16089939  0.64378515  1
  O  O446  1  0.50889753  0.16525063  0.96446946  1
  O  O447  1  0.50738691  0.67743862  0.30128472  1
  O  O448  1  0.51001701  0.67233835  0.63718669  1
  O  O449  1  0.51772391  0.67833708  0.96528034  1
  O  O450  1  0.32842800  0.48277295  0.19695485  1
  O  O451  1  0.34481862  0.49553943  0.52670481  1
  O  O452  1  0.33470245  0.49035804  0.87031124  1
  O  O453  1  0.31950694  0.99180127  0.19229662  1
  O  O454  1  0.32915686  0.99864991  0.52991717  1
  O  O455  1  0.32330690  0.99638257  0.85931607  1
  O  O456  1  0.83196876  0.49398643  0.20236078  1
  O  O457  1  0.83329162  0.49140973  0.52907230  1
  O  O458  1  0.84175409  0.49556651  0.85660099  1
  O  O459  1  0.84515403  0.99501944  0.20062114  1
  O  O460  1  0.83558626  0.98662467  0.53242872  1
  O  O461  1  0.83740938  0.98775250  0.86500669  1
