# generated using pymatgen
data_Na31Fe20(SO4)36
_symmetry_space_group_name_H-M   'P 1'
_cell_length_a   18.08211605
_cell_length_b   18.08559278
_cell_length_c   19.71598335
_cell_angle_alpha   107.54563112
_cell_angle_beta   107.56337602
_cell_angle_gamma   90.79801122
_symmetry_Int_Tables_number   1
_chemical_formula_structural   Na31Fe20(SO4)36
_chemical_formula_sum   'Na62 Fe40 S72 O288'
_cell_volume   5821.93708160
_cell_formula_units_Z   2
loop_
 _symmetry_equiv_pos_site_id
 _symmetry_equiv_pos_as_xyz
  1  'x, y, z'
loop_
 _atom_site_type_symbol
 _atom_site_label
 _atom_site_symmetry_multiplicity
 _atom_site_fract_x
 _atom_site_fract_y
 _atom_site_fract_z
 _atom_site_occupancy
  Na  Na0  1  0.13680282  0.36611212  0.08267018  1
  Na  Na1  1  0.13620578  0.35116859  0.41396340  1
  Na  Na2  1  0.13401754  0.36560057  0.74789666  1
  Na  Na3  1  0.15859890  0.86291707  0.09314823  1
  Na  Na4  1  0.13219600  0.86694097  0.41967345  1
  Na  Na5  1  0.15116352  0.87339534  0.77608558  1
  Na  Na6  1  0.63241863  0.36738441  0.08346266  1
  Na  Na7  1  0.62618902  0.36344018  0.41476745  1
  Na  Na8  1  0.63465114  0.36673515  0.74986472  1
  Na  Na9  1  0.63590199  0.87601115  0.09166680  1
  Na  Na10  1  0.63455577  0.85972047  0.40960169  1
  Na  Na11  1  0.61878236  0.86321651  0.73396098  1
  Na  Na12  1  0.35761777  0.12988269  0.23644369  1
  Na  Na13  1  0.37169766  0.12768295  0.58220645  1
  Na  Na14  1  0.35979327  0.12619798  0.91272998  1
  Na  Na15  1  0.34431257  0.63520250  0.22570133  1
  Na  Na16  1  0.37166092  0.63722139  0.58245658  1
  Na  Na17  1  0.35722984  0.63546498  0.91091811  1
  Na  Na18  1  0.86828486  0.14110367  0.26368872  1
  Na  Na19  1  0.88278599  0.13208040  0.58912131  1
  Na  Na20  1  0.87000968  0.12871132  0.91717132  1
  Na  Na21  1  0.86019204  0.65032549  0.25894264  1
  Na  Na22  1  0.86070723  0.63199733  0.57934813  1
  Na  Na23  1  0.86570152  0.63320021  0.91988691  1
  Na  Na24  1  0.48301088  0.53419076  0.42823418  1
  Na  Na25  1  0.48452932  0.00146319  0.43957628  1
  Na  Na26  1  0.43778811  0.00612048  0.04476154  1
  Na  Na27  1  0.99167938  0.51187789  0.75805249  1
  Na  Na28  1  0.98280163  0.04414147  0.44356365  1
  Na  Na29  1  0.48644698  0.51196342  0.74499264  1
  Na  Na30  1  1.02745446  -0.01426267  0.07749019  1
  Na  Na31  1  1.00867374  0.48282093  0.41960561  1
  Na  Na32  1  0.47710371  0.51036965  0.08629979  1
  Na  Na33  1  0.05951716  0.99825469  0.92501075  1
  Na  Na34  1  0.50591560  0.49177012  0.91921327  1
  Na  Na35  1  0.51443453  0.99693143  0.24916728  1
  Na  Na36  1  0.50431042  0.48947205  0.25694006  1
  Na  Na37  1  -0.01776819  1.00461470  0.25613504  1
  Na  Na38  1  0.00619725  0.49624286  0.23694225  1
  Na  Na39  1  0.51288561  0.46568665  0.57017821  1
  Na  Na40  1  0.00486042  0.44703788  0.57192366  1
  Na  Na41  1  0.05178019  0.49478644  0.95171330  1
  Na  Na42  1  0.24329636  0.74646376  0.67878269  1
  Na  Na43  1  0.26564800  0.25380134  0.33081488  1
  Na  Na44  1  0.25514016  0.75192365  0.32092501  1
  Na  Na45  1  0.26227763  0.76697951  -0.01588959  1
  Na  Na46  1  0.75178990  0.75581595  0.00365801  1
  Na  Na47  1  0.75141402  0.25350268  0.33537408  1
  Na  Na48  1  0.23047419  0.23616761  0.67174038  1
  Na  Na49  1  0.74391805  0.24624634  0.00076281  1
  Na  Na50  1  0.74231361  0.74577105  0.66027830  1
  Na  Na51  1  0.75839479  0.25570994  0.66379284  1
  Na  Na52  1  0.75323159  0.25132346  0.83409248  1
  Na  Na53  1  0.24915806  0.75128176  0.49701753  1
  Na  Na54  1  0.25761880  0.25895935  0.15171282  1
  Na  Na55  1  0.74964126  0.24738480  0.17080760  1
  Na  Na56  1  0.75223673  0.76068217  0.48843166  1
  Na  Na57  1  0.74690250  0.75338099  0.82817510  1
  Na  Na58  1  0.75255497  0.75730183  0.17595102  1
  Na  Na59  1  0.24068585  0.23616430  0.50765210  1
  Na  Na60  1  0.23833576  0.23741729  0.84836476  1
  Na  Na61  1  0.76932897  0.25281887  0.49717588  1
  Fe  Fe62  1  0.96577822  0.80419326  0.78701430  1
  Fe  Fe63  1  0.96081691  0.81451141  0.45542322  1
  Fe  Fe64  1  0.46075750  0.81488552  0.78979839  1
  Fe  Fe65  1  0.46342668  0.30895923  0.11672360  1
  Fe  Fe66  1  0.96524728  0.81037462  0.12485911  1
  Fe  Fe67  1  0.46597064  0.80583616  0.11626880  1
  Fe  Fe68  1  0.96998164  0.30644776  0.78813206  1
  Fe  Fe69  1  0.47059114  0.80021266  0.45995580  1
  Fe  Fe70  1  0.46234314  0.30896757  0.78286381  1
  Fe  Fe71  1  0.96392253  0.30502757  0.11805581  1
  Fe  Fe72  1  0.18876389  0.03251406  0.71162438  1
  Fe  Fe73  1  0.70110801  0.03083753  0.37289119  1
  Fe  Fe74  1  0.18940155  0.53555676  0.37943507  1
  Fe  Fe75  1  0.18933357  0.53624012  0.71244539  1
  Fe  Fe76  1  0.69030517  0.03761319  0.70897027  1
  Fe  Fe77  1  0.19505284  0.03060338  0.38105320  1
  Fe  Fe78  1  0.69278745  0.53377735  0.71509417  1
  Fe  Fe79  1  0.69106092  0.53860500  0.38454469  1
  Fe  Fe80  1  0.69373081  0.53465361  0.05166379  1
  Fe  Fe81  1  0.68856008  0.03338954  0.04242815  1
  Fe  Fe82  1  0.03076271  0.69295366  0.54837298  1
  Fe  Fe83  1  0.03562894  0.18767848  0.21367817  1
  Fe  Fe84  1  0.03809939  0.18846538  0.87930549  1
  Fe  Fe85  1  0.53364254  0.19866079  0.54134709  1
  Fe  Fe86  1  0.53265266  0.18970946  0.87352690  1
  Fe  Fe87  1  0.03646255  0.68833870  0.21257574  1
  Fe  Fe88  1  0.53271783  0.19773626  0.21248202  1
  Fe  Fe89  1  0.53411902  0.69510472  0.21798857  1
  Fe  Fe90  1  0.53665312  0.69002879  0.87976519  1
  Fe  Fe91  1  0.03305315  0.69060276  0.88860436  1
  Fe  Fe92  1  0.80868990  0.46719844  0.28836508  1
  Fe  Fe93  1  0.29931613  0.46861277  0.95227478  1
  Fe  Fe94  1  0.80757736  0.46513521  0.61893019  1
  Fe  Fe95  1  0.30827306  0.96147971  0.28307498  1
  Fe  Fe96  1  0.30308151  0.46785883  0.28122250  1
  Fe  Fe97  1  0.30724338  0.46689698  0.61418677  1
  Fe  Fe98  1  0.31036655  0.96307626  0.62462639  1
  Fe  Fe99  1  0.81394427  0.46540822  0.95822382  1
  Fe  Fe100  1  0.80718335  0.96569665  0.95275104  1
  Fe  Fe101  1  0.81003848  0.96752137  0.62068279  1
  S  S102  1  0.35912044  0.14905271  0.08612875  1
  S  S103  1  0.36217923  0.13560714  0.41709214  1
  S  S104  1  0.35790939  0.14395907  0.74799377  1
  S  S105  1  0.36237662  0.64007668  0.07939484  1
  S  S106  1  0.35226195  0.64159163  0.41181671  1
  S  S107  1  0.36003665  0.63754722  0.74908188  1
  S  S108  1  0.85709219  0.14003298  0.08370759  1
  S  S109  1  0.85684799  0.14196586  0.41532229  1
  S  S110  1  0.85934769  0.14215398  0.75181904  1
  S  S111  1  0.85696600  0.64175976  0.08846080  1
  S  S112  1  0.85772005  0.64235545  0.41680077  1
  S  S113  1  0.85866786  0.63995399  0.75233434  1
  S  S114  1  0.13870010  0.35872403  0.25090079  1
  S  S115  1  0.14666001  0.36079493  0.57948523  1
  S  S116  1  0.14313566  0.35701159  0.91779274  1
  S  S117  1  0.14215233  0.85803817  0.24864728  1
  S  S118  1  0.13884085  0.85526613  0.58443125  1
  S  S119  1  0.13557165  0.85337924  0.92061062  1
  S  S120  1  0.63898269  0.36361253  0.24880992  1
  S  S121  1  0.64600250  0.35806411  0.58511272  1
  S  S122  1  0.63988711  0.36195551  0.91602315  1
  S  S123  1  0.63777251  0.86073270  0.25030796  1
  S  S124  1  0.64232293  0.86339196  0.58292859  1
  S  S125  1  0.64118489  0.85786893  0.91436790  1
  S  S126  1  0.06175676  0.16897296  0.04551182  1
  S  S127  1  0.07007014  0.16120592  0.37425446  1
  S  S128  1  0.06894403  0.17603660  0.71147898  1
  S  S129  1  0.06200958  0.67399818  0.04804292  1
  S  S130  1  0.06160909  0.66589002  0.37488763  1
  S  S131  1  0.06117816  0.66335376  0.70510232  1
  S  S132  1  0.57062988  0.17629662  0.04143932  1
  S  S133  1  0.57657295  0.16976898  0.37448911  1
  S  S134  1  0.57100596  0.17769871  0.70942484  1
  S  S135  1  0.57091274  0.66797679  0.04206372  1
  S  S136  1  0.56170159  0.66545926  0.37452143  1
  S  S137  1  0.56479886  0.65901281  0.70741785  1
  S  S138  1  0.33449581  0.43515547  0.12447293  1
  S  S139  1  0.33073161  0.44172662  0.45349382  1
  S  S140  1  0.32953960  0.43422559  0.78929425  1
  S  S141  1  0.34273336  0.93380073  0.12618960  1
  S  S142  1  0.32965706  0.92532316  0.45758057  1
  S  S143  1  0.32842461  0.93510524  0.78986606  1
  S  S144  1  0.82770262  0.43180790  0.12427152  1
  S  S145  1  0.83107784  0.43901081  0.45589784  1
  S  S146  1  0.83265570  0.43460821  0.79583504  1
  S  S147  1  0.83067650  0.93722205  0.12400329  1
  S  S148  1  0.82714052  0.93385940  0.45826699  1
  S  S149  1  0.82536155  0.92833942  0.78834455  1
  S  S150  1  0.43507940  0.33602613  0.29248712  1
  S  S151  1  0.43486366  0.33307303  0.62349112  1
  S  S152  1  0.43358730  0.33525652  0.95524998  1
  S  S153  1  0.43170667  0.82734842  0.29447621  1
  S  S154  1  0.42756429  0.82526068  0.62282488  1
  S  S155  1  0.43776044  0.82317555  0.95227985  1
  S  S156  1  0.93509834  0.33369646  0.28919126  1
  S  S157  1  0.93494583  0.33970606  0.63207488  1
  S  S158  1  0.93421769  0.33070357  0.95840637  1
  S  S159  1  0.94155594  0.83274385  0.29323942  1
  S  S160  1  0.92664688  0.82427511  0.62245116  1
  S  S161  1  0.92835074  0.82745279  0.95834633  1
  S  S162  1  0.17120450  0.06315724  0.21097093  1
  S  S163  1  0.17451735  0.06252685  0.54547116  1
  S  S164  1  0.16783027  0.06607440  0.87244811  1
  S  S165  1  0.16407696  0.56106591  0.20811851  1
  S  S166  1  0.16735773  0.56940044  0.54159861  1
  S  S167  1  0.16709853  0.56569058  0.87487815  1
  S  S168  1  0.66700151  0.07108709  0.20702242  1
  S  S169  1  0.67591248  0.07446927  0.53935448  1
  S  S170  1  0.67362964  0.07090396  0.87527087  1
  S  S171  1  0.66666462  0.56815119  0.20916765  1
  S  S172  1  0.66640389  0.55788768  0.54270693  1
  S  S173  1  0.66947293  0.56471680  0.87862384  1
  O  O174  1  0.36942265  0.23215485  0.08570543  1
  O  O175  1  0.36937912  0.21176574  0.40792440  1
  O  O176  1  0.36757914  0.22257415  0.73802630  1
  O  O177  1  0.37650991  0.71695449  0.06774578  1
  O  O178  1  0.36539554  0.72211561  0.40853572  1
  O  O179  1  0.37138772  0.71625773  0.74272962  1
  O  O180  1  0.86383862  0.21890955  0.07408493  1
  O  O181  1  0.85917504  0.22026656  0.40790376  1
  O  O182  1  0.86823246  0.22229233  0.74548912  1
  O  O183  1  0.86325550  0.72185892  0.08215992  1
  O  O184  1  0.86881965  0.72100324  0.41019973  1
  O  O185  1  0.86525898  0.72010561  0.74644103  1
  O  O186  1  0.28753811  0.13796209  0.10307882  1
  O  O187  1  0.28645841  0.12349171  0.43173130  1
  O  O188  1  0.27779649  0.13564843  0.75345938  1
  O  O189  1  0.28914775  0.63348168  0.09310560  1
  O  O190  1  0.27067098  0.63523138  0.41606812  1
  O  O191  1  0.28086512  0.62772251  0.75548038  1
  O  O192  1  0.77649827  0.12989449  0.08851920  1
  O  O193  1  0.77074358  0.12616172  0.41423538  1
  O  O194  1  0.77859979  0.13235119  0.75719124  1
  O  O195  1  0.77853718  0.63073358  0.09827372  1
  O  O196  1  0.77963921  0.63435611  0.42757831  1
  O  O197  1  0.78052142  0.62951130  0.76229155  1
  O  O198  1  0.12953949  0.27944901  0.25802541  1
  O  O199  1  0.14212928  0.28339993  0.58730773  1
  O  O200  1  0.13418299  0.27513503  0.91783451  1
  O  O201  1  0.13314069  0.77756797  0.25304134  1
  O  O202  1  0.12886442  0.77504581  0.59106355  1
  O  O203  1  0.12350755  0.77117714  0.92356839  1
  O  O204  1  0.63131963  0.28398857  0.25596062  1
  O  O205  1  0.63443875  0.27980167  0.59389353  1
  O  O206  1  0.63023079  0.28184822  0.92090307  1
  O  O207  1  0.62294385  0.78558377  0.26363237  1
  O  O208  1  0.63474800  0.78966405  0.59743881  1
  O  O209  1  0.63527639  0.77904129  0.92396844  1
  O  O210  1  0.21735855  0.36772915  0.24181003  1
  O  O211  1  0.22613283  0.37419099  0.57019424  1
  O  O212  1  0.22025998  0.36797534  0.90553783  1
  O  O213  1  0.22034275  0.86882288  0.23962930  1
  O  O214  1  0.21689306  0.86321526  0.57433931  1
  O  O215  1  0.21273856  0.86299080  0.91441988  1
  O  O216  1  0.71830249  0.37327662  0.24098428  1
  O  O217  1  0.72760098  0.36405521  0.58099667  1
  O  O218  1  0.71923565  0.37186587  0.90904936  1
  O  O219  1  0.71271283  0.86695199  0.23897733  1
  O  O220  1  0.72155499  0.87438526  0.57417092  1
  O  O221  1  0.72082765  0.86862746  0.90747221  1
  O  O222  1  0.42600810  0.13677072  0.14985774  1
  O  O223  1  0.42544469  0.12657437  0.48392392  1
  O  O224  1  0.41540062  0.14173342  0.81945185  1
  O  O225  1  0.42818576  0.63043334  0.14446729  1
  O  O226  1  0.40732710  0.62742540  0.47674394  1
  O  O227  1  0.41885842  0.62508683  0.81555357  1
  O  O228  1  0.91408832  0.13491518  0.15355787  1
  O  O229  1  0.90688137  0.13754910  0.48746027  1
  O  O230  1  0.91609906  0.13577004  0.82093574  1
  O  O231  1  0.91659751  0.63230881  0.15460603  1
  O  O232  1  0.91712038  0.63016709  0.48247990  1
  O  O233  1  0.91886286  0.62951618  0.81862878  1
  O  O234  1  0.36392215  0.09675412  0.01536130  1
  O  O235  1  0.36845781  0.07319065  0.34958554  1
  O  O236  1  0.36874678  0.08401365  0.68282785  1
  O  O237  1  0.36898927  0.57883075  0.01037955  1
  O  O238  1  0.35878864  0.58515813  0.34095674  1
  O  O239  1  0.36899111  0.57876088  0.68041485  1
  O  O240  1  0.86767763  0.08118276  0.01701345  1
  O  O241  1  0.87176756  0.08263846  0.35245975  1
  O  O242  1  0.86692542  0.08393836  0.68393355  1
  O  O243  1  0.86133764  0.58486372  0.01788981  1
  O  O244  1  0.86186507  0.58363841  0.34656033  1
  O  O245  1  0.86579211  0.58312090  0.68312246  1
  O  O246  1  0.07875383  0.36916600  0.18438755  1
  O  O247  1  0.08742805  0.37232232  0.51480436  1
  O  O248  1  0.08178936  0.37105474  0.85293364  1
  O  O249  1  0.08226430  0.87035505  0.18323658  1
  O  O250  1  0.07912060  0.86171993  0.51593203  1
  O  O251  1  0.07498266  0.86193956  0.85086769  1
  O  O252  1  0.58007238  0.37188495  0.18084145  1
  O  O253  1  0.58987929  0.36903348  0.51937216  1
  O  O254  1  0.58087192  0.37360570  0.84976255  1
  O  O255  1  0.57501009  0.87005982  0.18426802  1
  O  O256  1  0.58362735  0.86614225  0.51202245  1
  O  O257  1  0.58305674  0.86247502  0.84492969  1
  O  O258  1  0.13144621  0.41677400  0.31997053  1
  O  O259  1  0.14044601  0.42029450  0.65029710  1
  O  O260  1  0.13878283  0.41148504  0.98775275  1
  O  O261  1  0.13662816  0.91358286  0.31956937  1
  O  O262  1  0.13245243  0.91308252  0.65266075  1
  O  O263  1  0.12090220  0.90819487  0.98634729  1
  O  O264  1  0.62982489  0.42205971  0.31637414  1
  O  O265  1  0.63943678  0.41715169  0.65499157  1
  O  O266  1  0.63146290  0.41932938  0.98517425  1
  O  O267  1  0.63157601  0.92478809  0.31860080  1
  O  O268  1  0.63347882  0.92814254  0.64749595  1
  O  O269  1  0.63314049  0.91686021  0.98216658  1
  O  O270  1  0.02299757  0.20226486  0.10588636  1
  O  O271  1  0.03576879  0.17805956  0.43351574  1
  O  O272  1  0.02984288  0.20309306  0.77305365  1
  O  O273  1  0.02208334  0.70890283  0.10731677  1
  O  O274  1  0.02694732  0.69539007  0.43649930  1
  O  O275  1  0.02603127  0.69351776  0.76694844  1
  O  O276  1  0.53424677  0.20798924  0.10218919  1
  O  O277  1  0.54291318  0.18946396  0.43567788  1
  O  O278  1  0.53044544  0.20631137  0.76826657  1
  O  O279  1  0.53907457  0.70232574  0.10485817  1
  O  O280  1  0.52549213  0.69374323  0.43375917  1
  O  O281  1  0.53631515  0.69153451  0.77405792  1
  O  O282  1  0.31324597  0.46737551  0.06209110  1
  O  O283  1  0.29275484  0.47591576  0.39125768  1
  O  O284  1  0.30246212  0.47022584  0.72815451  1
  O  O285  1  0.32571811  0.97154151  0.06920139  1
  O  O286  1  0.30205799  0.96258511  0.39691006  1
  O  O287  1  0.29520946  0.97167782  0.72699043  1
  O  O288  1  0.79761600  0.46723229  0.06221168  1
  O  O289  1  0.79250401  0.47461717  0.39480617  1
  O  O290  1  0.80243609  0.47128967  0.73520810  1
  O  O291  1  0.79755394  0.96698786  0.05764524  1
  O  O292  1  0.79382348  0.97056018  0.39870854  1
  O  O293  1  0.79936496  0.96866782  0.72996870  1
  O  O294  1  0.47136282  0.30737581  0.22991266  1
  O  O295  1  0.47434171  0.30386209  0.56696520  1
  O  O296  1  0.47162971  0.30659401  0.89514931  1
  O  O297  1  0.46445219  0.79684830  0.23081656  1
  O  O298  1  0.46539450  0.80250484  0.56422811  1
  O  O299  1  0.47529958  0.78777168  0.89107496  1
  O  O300  1  0.96450735  0.29829376  0.22344311  1
  O  O301  1  0.96740731  0.32156991  0.57141867  1
  O  O302  1  0.97138300  0.29897360  0.89860312  1
  O  O303  1  0.97744742  0.79446901  0.23193171  1
  O  O304  1  0.96421543  0.79569071  0.56139556  1
  O  O305  1  0.96186735  0.79376381  0.89615246  1
  O  O306  1  0.20385263  0.03087269  0.27569764  1
  O  O307  1  0.20773752  0.02350235  0.60505898  1
  O  O308  1  0.18676747  0.02919744  0.93035074  1
  O  O309  1  0.19613818  0.52685433  0.27256465  1
  O  O310  1  0.19956493  0.53543824  0.60378779  1
  O  O311  1  0.19591641  0.52714511  0.93252940  1
  O  O312  1  0.68959180  0.03213295  0.26563743  1
  O  O313  1  0.70383779  0.03590037  0.59881874  1
  O  O314  1  0.70136014  0.03183469  0.93495532  1
  O  O315  1  0.69782903  0.53457924  0.27189603  1
  O  O316  1  0.70629054  0.52480951  0.60577738  1
  O  O317  1  0.69970671  0.53119118  0.94131453  1
  O  O318  1  0.07205718  0.08766259  0.04176530  1
  O  O319  1  0.08987817  0.07744469  0.35685779  1
  O  O320  1  0.09373230  0.09804748  0.71004958  1
  O  O321  1  0.08194820  0.59807438  0.05362347  1
  O  O322  1  0.07846060  0.58291269  0.36911025  1
  O  O323  1  0.07569883  0.57985201  0.69877035  1
  O  O324  1  0.58959488  0.09636330  0.03858485  1
  O  O325  1  0.60003134  0.08760347  0.36195673  1
  O  O326  1  0.59157958  0.09875482  0.70682780  1
  O  O327  1  0.58459877  0.58480743  0.03856936  1
  O  O328  1  0.58073717  0.58276048  0.37183943  1
  O  O329  1  0.58390040  0.57609742  0.70591475  1
  O  O330  1  0.41939243  0.41893281  0.13709419  1
  O  O331  1  0.41320829  0.43768876  0.45907134  1
  O  O332  1  0.41413551  0.42094657  0.79875451  1
  O  O333  1  0.42696641  0.91414388  0.14131590  1
  O  O334  1  0.40981382  0.90443054  0.46045813  1
  O  O335  1  0.40670977  0.91227428  0.78673619  1
  O  O336  1  0.90816170  0.41210008  0.12828601  1
  O  O337  1  0.91147678  0.42933739  0.45588497  1
  O  O338  1  0.91442074  0.41802740  0.80202325  1
  O  O339  1  0.91050641  0.91276312  0.12369570  1
  O  O340  1  0.90681673  0.91512634  0.45603894  1
  O  O341  1  0.90426709  0.90493221  0.79313122  1
  O  O342  1  0.41402429  0.41781291  0.29451534  1
  O  O343  1  0.41673178  0.41533984  0.62563550  1
  O  O344  1  0.41643292  0.41762894  0.95950825  1
  O  O345  1  0.41949513  0.91162814  0.30400557  1
  O  O346  1  0.40738462  0.90638674  0.63303848  1
  O  O347  1  0.42073598  0.90012219  0.94863310  1
  O  O348  1  0.91536473  0.41533606  0.28931288  1
  O  O349  1  0.91344075  0.42402598  0.64551332  1
  O  O350  1  0.91750529  0.41195811  0.96112738  1
  O  O351  1  0.93663141  0.91477366  0.29881449  1
  O  O352  1  0.90648481  0.90361679  0.62654092  1
  O  O353  1  0.91196326  0.90898117  0.96180407  1
  O  O354  1  0.08830144  0.08090076  0.20560863  1
  O  O355  1  0.09618728  0.07961259  0.54401685  1
  O  O356  1  0.08489477  0.08798195  0.86255534  1
  O  O357  1  0.08409145  0.58282041  0.21057904  1
  O  O358  1  0.08520890  0.58542963  0.53688472  1
  O  O359  1  0.08454901  0.58252806  0.87245507  1
  O  O360  1  0.58481214  0.08968165  0.19644626  1
  O  O361  1  0.59455961  0.09262119  0.53385201  1
  O  O362  1  0.59599376  0.09564461  0.87462904  1
  O  O363  1  0.58335560  0.58227336  0.20243840  1
  O  O364  1  0.58489933  0.56273483  0.54005201  1
  O  O365  1  0.58552809  0.57790680  0.87092254  1
  O  O366  1  0.13379967  0.22002678  0.06443943  1
  O  O367  1  0.14171169  0.21438374  0.39055217  1
  O  O368  1  0.13979141  0.23326596  0.73469192  1
  O  O369  1  0.12791808  0.72835691  0.05814292  1
  O  O370  1  0.13285582  0.71678475  0.38916717  1
  O  O371  1  0.13302430  0.71195715  0.71883382  1
  O  O372  1  0.64254375  0.22935023  0.05857291  1
  O  O373  1  0.64487391  0.22633169  0.39077090  1
  O  O374  1  0.64167974  0.23300310  0.72979846  1
  O  O375  1  0.64351505  0.71557381  0.05389199  1
  O  O376  1  0.63293185  0.71543073  0.38776535  1
  O  O377  1  0.63735242  0.70788823  0.71983401  1
  O  O378  1  0.28280067  0.36577165  0.11135128  1
  O  O379  1  0.28628174  0.36574134  0.43686693  1
  O  O380  1  0.28073320  0.36119720  0.77208086  1
  O  O381  1  0.29059623  0.86157935  0.10656627  1
  O  O382  1  0.27451439  0.85560044  0.44034743  1
  O  O383  1  0.27536189  0.86388593  0.77203097  1
  O  O384  1  0.77437486  0.36163414  0.10867819  1
  O  O385  1  0.78276866  0.36585325  0.44132730  1
  O  O386  1  0.78097548  0.36260254  0.77918196  1
  O  O387  1  0.77737313  0.86807985  0.11235160  1
  O  O388  1  0.77597367  0.86362779  0.44554079  1
  O  O389  1  0.76783914  0.85986159  0.77001345  1
  O  O390  1  0.36260417  0.28352475  0.27300840  1
  O  O391  1  0.36412555  0.28188526  0.60954637  1
  O  O392  1  0.36382263  0.28318864  0.93970800  1
  O  O393  1  0.35907652  0.77913151  0.27934549  1
  O  O394  1  0.35655738  0.77067784  0.60387678  1
  O  O395  1  0.36890701  0.76964410  0.93860684  1
  O  O396  1  0.86313470  0.28456186  0.27777294  1
  O  O397  1  0.86520795  0.28631099  0.61849953  1
  O  O398  1  0.86166047  0.28014096  0.94261403  1
  O  O399  1  0.86586320  0.78690766  0.27471156  1
  O  O400  1  0.85566540  0.76934990  0.60375552  1
  O  O401  1  0.85626284  0.77666538  0.94415332  1
  O  O402  1  0.22114710  0.13568715  0.22673083  1
  O  O403  1  0.22956312  0.13316078  0.56341549  1
  O  O404  1  0.22222956  0.13508524  0.88756914  1
  O  O405  1  0.21543253  0.63220239  0.22421297  1
  O  O406  1  0.21817198  0.64020786  0.55491487  1
  O  O407  1  0.21752651  0.63658781  0.88909449  1
  O  O408  1  0.72107732  0.14260102  0.22701326  1
  O  O409  1  0.72983831  0.14483541  0.55730312  1
  O  O410  1  0.73080384  0.13991789  0.89344636  1
  O  O411  1  0.71515665  0.63936643  0.22102934  1
  O  O412  1  0.71123593  0.63308636  0.55725801  1
  O  O413  1  0.71788508  0.63805815  0.89414555  1
  O  O414  1  0.49274599  0.34034457  0.02931494  1
  O  O415  1  0.49334924  0.33950043  0.36286224  1
  O  O416  1  0.49196016  0.34222001  0.70056043  1
  O  O417  1  0.49773385  0.82786147  0.02624100  1
  O  O418  1  0.49238262  0.82576417  0.36512829  1
  O  O419  1  0.48547801  0.82216838  0.69461925  1
  O  O420  1  0.99153241  0.33333875  0.03190696  1
  O  O421  1  0.99773654  0.34146402  0.35883900  1
  O  O422  1  0.99494462  0.34328721  0.70571349  1
  O  O423  1  0.98831402  0.83178458  0.03080824  1
  O  O424  1  0.99585450  0.82644938  0.36539928  1
  O  O425  1  0.98548185  0.82433936  0.69381894  1
  O  O426  1  0.16768425  0.00179147  0.14152689  1
  O  O427  1  0.17359428  0.00529179  0.47157377  1
  O  O428  1  0.16422479  0.00740265  0.79794965  1
  O  O429  1  0.15863329  0.50024770  0.13888936  1
  O  O430  1  0.16240115  0.50840176  0.46875921  1
  O  O431  1  0.15999877  0.50813192  0.79885640  1
  O  O432  1  0.67009550  0.01328244  0.13557447  1
  O  O433  1  0.67364124  0.01607277  0.46548962  1
  O  O434  1  0.66879111  0.01282678  0.80203614  1
  O  O435  1  0.66501064  0.50595623  0.13762120  1
  O  O436  1  0.66969629  0.50144405  0.47045597  1
  O  O437  1  0.67039968  0.50572671  0.80749066  1
  O  O438  1  0.01070211  0.16399132  0.30133289  1
  O  O439  1  0.01217436  0.17544705  0.64146906  1
  O  O440  1  0.00597839  0.17024259  0.97200772  1
  O  O441  1  0.00234053  0.66228254  0.30200526  1
  O  O442  1  0.00077102  0.66188564  0.63304372  1
  O  O443  1  0.00004718  0.66357424  0.97264962  1
  O  O444  1  0.51459081  0.16783041  0.30343260  1
  O  O445  1  0.51412476  0.17654806  0.63646919  1
  O  O446  1  0.51239026  0.17521025  0.96923375  1
  O  O447  1  0.50322587  0.65721473  0.29910139  1
  O  O448  1  0.50330622  0.65329333  0.63851534  1
  O  O449  1  0.51075758  0.66266331  0.96897587  1
  O  O450  1  0.33474423  0.49712285  0.19545410  1
  O  O451  1  0.32558056  0.49798393  0.52527381  1
  O  O452  1  0.32784132  0.49261295  0.86079712  1
  O  O453  1  0.34190126  0.98982099  0.20080818  1
  O  O454  1  0.33360328  0.98423519  0.53039758  1
  O  O455  1  0.33440371  0.99382685  0.86055365  1
  O  O456  1  0.83056024  0.49278672  0.19572124  1
  O  O457  1  0.83306121  0.49543141  0.53016552  1
  O  O458  1  0.83236125  0.49342007  0.86795173  1
  O  O459  1  0.84097082  1.00062168  0.19357441  1
  O  O460  1  0.83610681  0.99296265  0.53311940  1
  O  O461  1  0.82904732  0.98733720  0.86192694  1
