# generated using pymatgen
data_Na31Fe20(SO4)36
_symmetry_space_group_name_H-M   'P 1'
_cell_length_a   18.09252601
_cell_length_b   18.08655685
_cell_length_c   19.72709859
_cell_angle_alpha   107.52324494
_cell_angle_beta   107.55895890
_cell_angle_gamma   90.79139368
_symmetry_Int_Tables_number   1
_chemical_formula_structural   Na31Fe20(SO4)36
_chemical_formula_sum   'Na62 Fe40 S72 O288'
_cell_volume   5829.94434117
_cell_formula_units_Z   2
loop_
 _symmetry_equiv_pos_site_id
 _symmetry_equiv_pos_as_xyz
  1  'x, y, z'
loop_
 _atom_site_type_symbol
 _atom_site_label
 _atom_site_symmetry_multiplicity
 _atom_site_fract_x
 _atom_site_fract_y
 _atom_site_fract_z
 _atom_site_occupancy
  Na  Na0  1  0.13051443  0.37331530  0.08431833  1
  Na  Na1  1  0.13667916  0.36527755  0.41923310  1
  Na  Na2  1  0.12785954  0.35442583  0.74263136  1
  Na  Na3  1  0.13379730  0.86225596  0.08393334  1
  Na  Na4  1  0.13610032  0.87362054  0.42311820  1
  Na  Na5  1  0.14330747  0.87195794  0.75464819  1
  Na  Na6  1  0.64759396  0.35734655  0.08898895  1
  Na  Na7  1  0.63085367  0.35589477  0.40549071  1
  Na  Na8  1  0.63565310  0.36404214  0.75036847  1
  Na  Na9  1  0.63072750  0.86987175  0.08523518  1
  Na  Na10  1  0.63184117  0.86970016  0.41603783  1
  Na  Na11  1  0.63234256  0.87059201  0.74861970  1
  Na  Na12  1  0.37038063  0.14333641  0.25283352  1
  Na  Na13  1  0.37615987  0.12273630  0.58099746  1
  Na  Na14  1  0.35757999  0.12780449  0.89971573  1
  Na  Na15  1  0.34330954  0.62934737  0.22537756  1
  Na  Na16  1  0.36353257  0.63278271  0.58035640  1
  Na  Na17  1  0.36594846  0.63490091  0.92176873  1
  Na  Na18  1  0.85464425  0.14475523  0.23979386  1
  Na  Na19  1  0.86821210  0.14041990  0.59760448  1
  Na  Na20  1  0.87713004  0.14126500  0.93010820  1
  Na  Na21  1  0.86297065  0.63920643  0.25355157  1
  Na  Na22  1  0.86349816  0.63489126  0.58213374  1
  Na  Na23  1  0.86583431  0.62193891  0.91537042  1
  Na  Na24  1  0.99099637  0.01714641  0.40925875  1
  Na  Na25  1  0.99090904  0.51047816  0.41747251  1
  Na  Na26  1  0.99622197  0.01235035  0.75847583  1
  Na  Na27  1  0.48555006  0.50700222  0.75576759  1
  Na  Na28  1  0.48367405  0.50195635  0.09009387  1
  Na  Na29  1  0.96231178  0.50008578  0.05682107  1
  Na  Na30  1  0.48597040  0.51055002  0.42384836  1
  Na  Na31  1  0.45157850  0.01203080  0.71601893  1
  Na  Na32  1  1.00714752  0.44734218  0.88863949  1
  Na  Na33  1  0.01393004  0.46956151  0.23592109  1
  Na  Na34  1  0.49400535  1.00044913  0.93803974  1
  Na  Na35  1  0.51226713  0.47397621  0.58613467  1
  Na  Na36  1  0.06449850  0.99683125  0.60050498  1
  Na  Na37  1  0.49131214  1.02449371  0.23012414  1
  Na  Na38  1  0.50901369  0.47253228  0.92299311  1
  Na  Na39  1  0.00143055  1.01463561  0.21605117  1
  Na  Na40  1  0.51097394  0.48086599  0.25728835  1
  Na  Na41  1  0.00814569  0.48548901  0.59873315  1
  Na  Na42  1  0.76900323  0.26298215  0.00294403  1
  Na  Na43  1  0.26310831  0.76859446  0.65824409  1
  Na  Na44  1  0.25675970  0.76264942  0.31475014  1
  Na  Na45  1  0.73727197  0.24200438  0.66737359  1
  Na  Na46  1  0.74256070  0.24632639  0.32503975  1
  Na  Na47  1  0.74746511  0.74479760  0.00228203  1
  Na  Na48  1  0.23816483  0.72571645  0.02210429  1
  Na  Na49  1  0.75779420  0.75623733  0.66147126  1
  Na  Na50  1  0.25250844  0.24754314  -0.00341497  1
  Na  Na51  1  0.24774263  0.24727157  0.33686182  1
  Na  Na52  1  0.75144378  0.75118221  0.83235740  1
  Na  Na53  1  0.26313890  0.76836208  0.48939550  1
  Na  Na54  1  0.24687956  0.24126139  0.51113262  1
  Na  Na55  1  0.75788209  0.76113256  0.48479330  1
  Na  Na56  1  0.24949429  0.24750105  0.82014385  1
  Na  Na57  1  0.78389117  0.28727501  0.83885241  1
  Na  Na58  1  0.74349631  0.74283192  0.17776008  1
  Na  Na59  1  0.73410469  0.23795754  0.50349536  1
  Na  Na60  1  0.25418540  0.25218908  0.16526845  1
  Na  Na61  1  0.24792439  0.74833858  0.83696929  1
  Fe  Fe62  1  0.96228793  0.30752423  0.44808327  1
  Fe  Fe63  1  0.46514742  0.80903139  0.12288581  1
  Fe  Fe64  1  0.96459611  0.80521468  0.11848533  1
  Fe  Fe65  1  0.46619754  0.30264628  0.78088526  1
  Fe  Fe66  1  0.46268797  0.81554506  0.45520358  1
  Fe  Fe67  1  0.47265373  0.29659265  0.12353148  1
  Fe  Fe68  1  0.47406421  0.29197589  0.45338435  1
  Fe  Fe69  1  0.96789247  0.80798083  0.79189098  1
  Fe  Fe70  1  0.46830638  0.80659092  0.78641297  1
  Fe  Fe71  1  0.96527432  0.81019430  0.45381117  1
  Fe  Fe72  1  0.69429588  0.53514609  0.71700273  1
  Fe  Fe73  1  0.19208237  0.53762835  0.38408686  1
  Fe  Fe74  1  0.68410282  0.03666997  0.70993970  1
  Fe  Fe75  1  0.69386759  0.53847022  0.38229002  1
  Fe  Fe76  1  0.69025201  0.03501289  0.38058428  1
  Fe  Fe77  1  0.18998752  0.03733971  0.37594432  1
  Fe  Fe78  1  0.19468697  0.53552393  0.71829501  1
  Fe  Fe79  1  0.69349201  0.03724342  0.04926950  1
  Fe  Fe80  1  0.18701842  0.03612278  0.04098658  1
  Fe  Fe81  1  0.69553742  0.53136990  0.04476184  1
  Fe  Fe82  1  0.53318165  0.69595635  0.88424960  1
  Fe  Fe83  1  0.53760713  0.69256315  0.21890063  1
  Fe  Fe84  1  0.53836249  0.18986827  0.88001516  1
  Fe  Fe85  1  0.53616704  0.69303469  0.54788352  1
  Fe  Fe86  1  0.03378277  0.69358430  0.55051840  1
  Fe  Fe87  1  0.03512609  0.68633040  0.88332932  1
  Fe  Fe88  1  0.02901090  0.20347981  0.20221038  1
  Fe  Fe89  1  0.03631315  0.68801858  0.21169671  1
  Fe  Fe90  1  0.03062963  0.19755760  0.55338742  1
  Fe  Fe91  1  0.03339101  0.20116432  0.87682966  1
  Fe  Fe92  1  0.30927051  0.96366854  0.28563297  1
  Fe  Fe93  1  0.80747888  0.96666991  0.61994135  1
  Fe  Fe94  1  0.80917681  0.96434975  0.95351854  1
  Fe  Fe95  1  0.80634794  0.96403516  0.28525561  1
  Fe  Fe96  1  0.80794239  0.46672740  0.28214163  1
  Fe  Fe97  1  0.30440246  0.46873882  0.28513180  1
  Fe  Fe98  1  0.30313533  0.46516249  0.95595872  1
  Fe  Fe99  1  0.30519585  0.46395325  0.62002843  1
  Fe  Fe100  1  0.30503749  0.96700531  0.95225434  1
  Fe  Fe101  1  0.81221322  0.46507969  0.62010212  1
  S  S102  1  0.35901854  0.13648202  0.08208181  1
  S  S103  1  0.35506986  0.13966758  0.41110406  1
  S  S104  1  0.36148015  0.14382760  0.75100000  1
  S  S105  1  0.36744063  0.63700493  0.08311125  1
  S  S106  1  0.35896154  0.64193221  0.41743796  1
  S  S107  1  0.35999790  0.64068589  0.74974845  1
  S  S108  1  0.86081436  0.13591704  0.08217298  1
  S  S109  1  0.85848332  0.14032850  0.41402040  1
  S  S110  1  0.85699720  0.13524602  0.75672437  1
  S  S111  1  0.85784312  0.64549135  0.08738790  1
  S  S112  1  0.86204847  0.64166764  0.41976108  1
  S  S113  1  0.86006375  0.64115473  0.74860322  1
  S  S114  1  0.14476138  0.36219100  0.25477984  1
  S  S115  1  0.13744434  0.36187129  0.58302530  1
  S  S116  1  0.14812523  0.35457125  0.91507232  1
  S  S117  1  0.13676491  0.86174073  0.24712858  1
  S  S118  1  0.14180245  0.85232683  0.58283104  1
  S  S119  1  0.14231573  0.85601394  0.91927818  1
  S  S120  1  0.64138553  0.36561860  0.25225998  1
  S  S121  1  0.64233074  0.36338002  0.57966970  1
  S  S122  1  0.63846495  0.35958874  0.91595057  1
  S  S123  1  0.64070137  0.85789339  0.25200989  1
  S  S124  1  0.64105225  0.85817889  0.58201250  1
  S  S125  1  0.64138244  0.85872344  0.91837068  1
  S  S126  1  0.07606441  0.17922875  0.04194301  1
  S  S127  1  0.06407834  0.17514092  0.36948983  1
  S  S128  1  0.05674165  0.16686223  0.71176215  1
  S  S129  1  0.05751583  0.66172756  0.04180868  1
  S  S130  1  0.06558044  0.66837374  0.37665762  1
  S  S131  1  0.06748190  0.67033716  0.71138886  1
  S  S132  1  0.57047363  0.16993735  0.03970429  1
  S  S133  1  0.56771846  0.16776091  0.37115442  1
  S  S134  1  0.56949885  0.17296442  0.71107589  1
  S  S135  1  0.56952960  0.66649898  0.04296409  1
  S  S136  1  0.56424576  0.66822653  0.37739114  1
  S  S137  1  0.56511096  0.66737234  0.70779106  1
  S  S138  1  0.33983331  0.42959218  0.12785888  1
  S  S139  1  0.33184904  0.43632551  0.45944085  1
  S  S140  1  0.32950585  0.43235399  0.79265930  1
  S  S141  1  0.32666350  0.92927917  0.11998061  1
  S  S142  1  0.32231876  0.93304116  0.45029930  1
  S  S143  1  0.34025763  0.92762430  0.79485523  1
  S  S144  1  0.83238424  0.44376725  0.12628101  1
  S  S145  1  0.83073671  0.43615226  0.45552872  1
  S  S146  1  0.82571030  0.43695225  0.78235339  1
  S  S147  1  0.82813316  0.93013806  0.12392647  1
  S  S148  1  0.83422860  0.93605296  0.46088481  1
  S  S149  1  0.82858840  0.92661875  0.78949241  1
  S  S150  1  0.43163942  0.33553218  0.29481133  1
  S  S151  1  0.43399840  0.33859919  0.62484673  1
  S  S152  1  0.43414540  0.32716834  0.96035342  1
  S  S153  1  0.43086982  0.82568023  0.28861972  1
  S  S154  1  0.43418644  0.82576575  0.61931266  1
  S  S155  1  0.43235988  0.82823627  0.95883631  1
  S  S156  1  0.93455855  0.33635466  0.29425186  1
  S  S157  1  0.93159628  0.33011291  0.61784715  1
  S  S158  1  0.94190333  0.33298611  0.95704466  1
  S  S159  1  0.93362643  0.83216077  0.29228340  1
  S  S160  1  0.93211079  0.82945305  0.62624563  1
  S  S161  1  0.92932777  0.82187797  0.95450309  1
  S  S162  1  0.16993399  0.07301669  0.20622855  1
  S  S163  1  0.16151175  0.07185990  0.53271850  1
  S  S164  1  0.16654724  0.06737889  0.87300769  1
  S  S165  1  0.16732046  0.56488481  0.21340800  1
  S  S166  1  0.16917558  0.56805308  0.54623908  1
  S  S167  1  0.17391155  0.56715902  0.87768745  1
  S  S168  1  0.67137181  0.06017025  0.20960286  1
  S  S169  1  0.67374540  0.06728202  0.54574695  1
  S  S170  1  0.67348396  0.06667438  0.87899353  1
  S  S171  1  0.66779421  0.56719447  0.20788049  1
  S  S172  1  0.66850435  0.56881074  0.54213483  1
  S  S173  1  0.66071252  0.56970761  0.87299736  1
  O  O174  1  0.37192499  0.21748625  0.07789885  1
  O  O175  1  0.37017476  0.21886566  0.40289472  1
  O  O176  1  0.37201422  0.22762187  0.75233685  1
  O  O177  1  0.38085858  0.71381065  0.07077816  1
  O  O178  1  0.36736332  0.72290522  0.41447029  1
  O  O179  1  0.37089205  0.71827756  0.74005517  1
  O  O180  1  0.86840344  0.21080582  0.07045215  1
  O  O181  1  0.86620571  0.21775716  0.40237962  1
  O  O182  1  0.85286735  0.21125229  0.74459025  1
  O  O183  1  0.86469526  0.72711555  0.08317676  1
  O  O184  1  0.87108974  0.72168545  0.41557408  1
  O  O185  1  0.87057447  0.72078705  0.74129703  1
  O  O186  1  0.27671319  0.13090961  0.08485448  1
  O  O187  1  0.27064952  0.13649314  0.40987548  1
  O  O188  1  0.29044747  0.13262572  0.76892316  1
  O  O189  1  0.29149723  0.63182883  0.09312860  1
  O  O190  1  0.28273864  0.63254779  0.43101620  1
  O  O191  1  0.28093285  0.63313730  0.75736949  1
  O  O192  1  0.78514949  0.12369535  0.09596640  1
  O  O193  1  0.77910158  0.13082106  0.42036519  1
  O  O194  1  0.78351241  0.11413957  0.76944867  1
  O  O195  1  0.77813225  0.63497837  0.09402659  1
  O  O196  1  0.78375255  0.63142531  0.42918215  1
  O  O197  1  0.78009556  0.63418280  0.75568005  1
  O  O198  1  0.13298980  0.28268577  0.26112404  1
  O  O199  1  0.12685850  0.28340477  0.58946331  1
  O  O200  1  0.13574055  0.26930419  0.91246417  1
  O  O201  1  0.12606784  0.78257256  0.25453370  1
  O  O202  1  0.12792088  0.77140455  0.58848778  1
  O  O203  1  0.13458269  0.77715176  0.92822170  1
  O  O204  1  0.63321515  0.29265345  0.26710729  1
  O  O205  1  0.63873128  0.28707344  0.58974356  1
  O  O206  1  0.62959585  0.28170990  0.92658451  1
  O  O207  1  0.63065522  0.77918234  0.25963565  1
  O  O208  1  0.63321204  0.78017348  0.59325383  1
  O  O209  1  0.63062857  0.78110870  0.92948284  1
  O  O210  1  0.22656340  0.36931569  0.25137445  1
  O  O211  1  0.21596487  0.37055507  0.57334775  1
  O  O212  1  0.23147590  0.36123370  0.91415243  1
  O  O213  1  0.21537092  0.87031117  0.23913430  1
  O  O214  1  0.21739664  0.85655942  0.57100300  1
  O  O215  1  0.22084164  0.86740112  0.91039389  1
  O  O216  1  0.71895471  0.37795515  0.24303067  1
  O  O217  1  0.71803228  0.37783715  0.56668744  1
  O  O218  1  0.71349559  0.37031649  0.90530421  1
  O  O219  1  0.71929317  0.86607226  0.24297339  1
  O  O220  1  0.72016730  0.86599235  0.57354069  1
  O  O221  1  0.72227915  0.86566551  0.91453811  1
  O  O222  1  0.41304192  0.12405044  0.14792691  1
  O  O223  1  0.40631100  0.13169900  0.47959580  1
  O  O224  1  0.42891530  0.12941992  0.81277465  1
  O  O225  1  0.42926085  0.62800832  0.15026516  1
  O  O226  1  0.42105442  0.62769851  0.48101858  1
  O  O227  1  0.41838756  0.63256454  0.81832533  1
  O  O228  1  0.92313927  0.12969501  0.15039975  1
  O  O229  1  0.91678741  0.13453435  0.48321638  1
  O  O230  1  0.92251595  0.13423387  0.82534375  1
  O  O231  1  0.91606093  0.63954578  0.15741701  1
  O  O232  1  0.92159322  0.63023544  0.48657501  1
  O  O233  1  0.91734415  0.63217528  0.81610701  1
  O  O234  1  0.36457716  0.08055323  0.01056688  1
  O  O235  1  0.36164578  0.08084647  0.34181082  1
  O  O236  1  0.36369751  0.09169106  0.67908303  1
  O  O237  1  0.37582126  0.57509887  0.01595893  1
  O  O238  1  0.36282785  0.58594669  0.34625267  1
  O  O239  1  0.36849760  0.57970208  0.68305575  1
  O  O240  1  0.86765376  0.07295206  0.01524626  1
  O  O241  1  0.86985679  0.07954628  0.34825419  1
  O  O242  1  0.87153349  0.07567093  0.69153422  1
  O  O243  1  0.86820851  0.58952896  0.02120502  1
  O  O244  1  0.87012142  0.58401060  0.35145123  1
  O  O245  1  0.86668441  0.58385861  0.67923383  1
  O  O246  1  0.08926347  0.37430576  0.18943258  1
  O  O247  1  0.07814234  0.37329197  0.51658400  1
  O  O248  1  0.09586934  0.36756083  0.84792871  1
  O  O249  1  0.07738101  0.87106793  0.17938770  1
  O  O250  1  0.07968697  0.86259687  0.51566637  1
  O  O251  1  0.08344320  0.86037915  0.84940445  1
  O  O252  1  0.58089680  0.37097464  0.18309973  1
  O  O253  1  0.57971385  0.36983478  0.51179513  1
  O  O254  1  0.57445044  0.36907142  0.84995592  1
  O  O255  1  0.58137716  0.86581588  0.18368874  1
  O  O256  1  0.58248729  0.86260945  0.51270416  1
  O  O257  1  0.58639726  0.86115299  0.84619760  1
  O  O258  1  0.13777866  0.41974519  0.32521261  1
  O  O259  1  0.13105389  0.42162890  0.65158867  1
  O  O260  1  0.13917177  0.40636259  0.98375544  1
  O  O261  1  0.12838469  0.92067200  0.31472849  1
  O  O262  1  0.13606445  0.90950720  0.65091879  1
  O  O263  1  0.13416704  0.91522775  0.98628819  1
  O  O264  1  0.63035646  0.43088865  0.31723522  1
  O  O265  1  0.63081724  0.42432695  0.64602741  1
  O  O266  1  0.62857878  0.41919665  0.98408118  1
  O  O267  1  0.63413384  0.91707766  0.31994955  1
  O  O268  1  0.63303611  0.91803183  0.64902881  1
  O  O269  1  0.62848956  0.91986724  0.98204719  1
  O  O270  1  0.03946046  0.20462875  0.10118051  1
  O  O271  1  0.02675176  0.20214429  0.42980066  1
  O  O272  1  0.02055725  0.20100174  0.77174844  1
  O  O273  1  0.02359967  0.70246289  0.10459830  1
  O  O274  1  0.02817910  0.69823783  0.43684483  1
  O  O275  1  0.03195570  0.69725986  0.77301442  1
  O  O276  1  0.53729456  0.20121500  0.10090027  1
  O  O277  1  0.53868137  0.19805221  0.43629448  1
  O  O278  1  0.53894814  0.20751630  0.77714142  1
  O  O279  1  0.53946983  0.69738061  0.10743259  1
  O  O280  1  0.52770060  0.69954423  0.43776054  1
  O  O281  1  0.53014797  0.69859210  0.76962383  1
  O  O282  1  0.31797127  0.46502365  0.06776611  1
  O  O283  1  0.30167740  0.47440417  0.39985190  1
  O  O284  1  0.30041846  0.47091679  0.73223589  1
  O  O285  1  0.29923516  0.96812482  0.06084095  1
  O  O286  1  0.29260227  0.96976472  0.38742561  1
  O  O287  1  0.32704359  0.95647694  0.73205537  1
  O  O288  1  0.79364324  0.47673117  0.06573829  1
  O  O289  1  0.80135746  0.47282949  0.39462636  1
  O  O290  1  0.79043059  0.47258291  0.71818660  1
  O  O291  1  0.79693877  0.96404559  0.06191877  1
  O  O292  1  0.80251867  0.97140450  0.39937753  1
  O  O293  1  0.79629120  0.95683518  0.72521204  1
  O  O294  1  0.46632847  0.31442768  0.23425379  1
  O  O295  1  0.46892637  0.31897496  0.56426248  1
  O  O296  1  0.47132813  0.30016854  0.90039132  1
  O  O297  1  0.46966651  0.79438468  0.22880320  1
  O  O298  1  0.47406162  0.79194262  0.56043022  1
  O  O299  1  0.47118063  0.79883986  0.89876479  1
  O  O300  1  0.96910997  0.30636206  0.23408155  1
  O  O301  1  0.96330263  0.29642789  0.55151139  1
  O  O302  1  0.97952961  0.29468397  0.89710198  1
  O  O303  1  0.96987511  0.80486362  0.23174525  1
  O  O304  1  0.96799320  0.80054506  0.56484849  1
  O  O305  1  0.96949365  0.79163767  0.89586703  1
  O  O306  1  0.19364637  0.03224699  0.26427342  1
  O  O307  1  0.18113639  0.03508396  0.59047724  1
  O  O308  1  0.19464624  0.03117977  0.93582346  1
  O  O309  1  0.19963790  0.53264753  0.27949016  1
  O  O310  1  0.19969525  0.53110099  0.60674795  1
  O  O311  1  0.20530916  0.52994768  0.93578484  1
  O  O312  1  0.70606910  0.02274413  0.27104565  1
  O  O313  1  0.70951380  0.02956706  0.60731197  1
  O  O314  1  0.70235183  0.02526570  0.93716282  1
  O  O315  1  0.70370030  0.53767178  0.27287872  1
  O  O316  1  0.70001057  0.53773482  0.60555168  1
  O  O317  1  0.68627498  0.53968161  0.93624758  1
  O  O318  1  0.09275803  0.09735588  0.03113970  1
  O  O319  1  0.07739923  0.09095831  0.35786866  1
  O  O320  1  0.06410717  0.08433067  0.70590816  1
  O  O321  1  0.06136659  0.58031877  0.03862472  1
  O  O322  1  0.07982420  0.58501210  0.37173068  1
  O  O323  1  0.08800737  0.58917971  0.70377209  1
  O  O324  1  0.59032724  0.08854100  0.03732780  1
  O  O325  1  0.58991865  0.08667203  0.36687679  1
  O  O326  1  0.58490589  0.09120664  0.71095700  1
  O  O327  1  0.58477220  0.58338463  0.03534735  1
  O  O328  1  0.58108184  0.58587582  0.37459802  1
  O  O329  1  0.58091852  0.58495169  0.70260122  1
  O  O330  1  0.42325248  0.41154380  0.13946687  1
  O  O331  1  0.41429986  0.42207047  0.46580200  1
  O  O332  1  0.41183869  0.41573592  0.79628839  1
  O  O333  1  0.40868235  0.91111330  0.12685394  1
  O  O334  1  0.40025379  0.90796548  0.44918303  1
  O  O335  1  0.42466960  0.90907290  0.81794512  1
  O  O336  1  0.91408167  0.43776052  0.12918317  1
  O  O337  1  0.91450420  0.42294732  0.46357567  1
  O  O338  1  0.90322963  0.41868359  0.78020621  1
  O  O339  1  0.90823442  0.90911110  0.12600161  1
  O  O340  1  0.91564047  0.91825606  0.46303059  1
  O  O341  1  0.90950039  0.90788093  0.79228625  1
  O  O342  1  0.41458713  0.42000947  0.30842916  1
  O  O343  1  0.41549090  0.42329408  0.63677907  1
  O  O344  1  0.41694694  0.41020853  0.96601900  1
  O  O345  1  0.40967376  0.90404526  0.28725466  1
  O  O346  1  0.41471633  0.90221273  0.61624604  1
  O  O347  1  0.41324134  0.90874904  0.96347562  1
  O  O348  1  0.91804752  0.41953720  0.29868908  1
  O  O349  1  0.91168062  0.41009197  0.61485250  1
  O  O350  1  0.91578488  0.40500183  0.94085412  1
  O  O351  1  0.91397621  0.91406783  0.29854632  1
  O  O352  1  0.91409876  0.91106978  0.63302535  1
  O  O353  1  0.90445782  0.89831814  0.95196743  1
  O  O354  1  0.09132737  0.09825864  0.20330774  1
  O  O355  1  0.07875509  0.09609138  0.52343841  1
  O  O356  1  0.08915636  0.09855414  0.87345120  1
  O  O357  1  0.08457785  0.58054700  0.20990957  1
  O  O358  1  0.08666757  0.58355995  0.54125760  1
  O  O359  1  0.09409127  0.58766780  0.87667739  1
  O  O360  1  0.59119468  0.07130075  0.20478808  1
  O  O361  1  0.59740678  0.08608350  0.54736281  1
  O  O362  1  0.59216465  0.08311493  0.87502587  1
  O  O363  1  0.58504236  0.58101103  0.20589653  1
  O  O364  1  0.58524222  0.58419424  0.53684851  1
  O  O365  1  0.57723801  0.58879329  0.86334913  1
  O  O366  1  0.14757718  0.23242176  0.05977664  1
  O  O367  1  0.13834306  0.22548302  0.39152591  1
  O  O368  1  0.13060209  0.21374571  0.72718704  1
  O  O369  1  0.13196555  0.70740596  0.05705727  1
  O  O370  1  0.13855865  0.71729349  0.39336496  1
  O  O371  1  0.13697719  0.72427255  0.72685526  1
  O  O372  1  0.63951524  0.21964096  0.04760624  1
  O  O373  1  0.63892888  0.22005253  0.38416535  1
  O  O374  1  0.64394725  0.22110184  0.72702681  1
  O  O375  1  0.64087085  0.71669168  0.05536221  1
  O  O376  1  0.63589940  0.71820624  0.39246151  1
  O  O377  1  0.63687345  0.71774491  0.72264390  1
  O  O378  1  0.28721370  0.35921783  0.11244887  1
  O  O379  1  0.28129371  0.36394684  0.44257600  1
  O  O380  1  0.27711703  0.36267672  0.77611702  1
  O  O381  1  0.27385797  0.85864349  0.10223275  1
  O  O382  1  0.26665526  0.86146071  0.42912820  1
  O  O383  1  0.28627010  0.85676160  0.77904043  1
  O  O384  1  0.78868703  0.36890272  0.11446887  1
  O  O385  1  0.78162443  0.36298555  0.43760906  1
  O  O386  1  0.77114374  0.36543957  0.76353347  1
  O  O387  1  0.77470253  0.86143548  0.11212443  1
  O  O388  1  0.78289219  0.86561317  0.44706493  1
  O  O389  1  0.77697208  0.85528729  0.77721235  1
  O  O390  1  0.35965760  0.28364508  0.27668981  1
  O  O391  1  0.36374695  0.28678544  0.60875320  1
  O  O392  1  0.36265752  0.27542852  0.94315069  1
  O  O393  1  0.36252906  0.77090314  0.27352363  1
  O  O394  1  0.36477338  0.76974002  0.60237764  1
  O  O395  1  0.36216166  0.77434792  0.94047648  1
  O  O396  1  0.86419155  0.28792226  0.28513661  1
  O  O397  1  0.85998227  0.27978237  0.60406752  1
  O  O398  1  0.87318760  0.27833613  0.94551447  1
  O  O399  1  0.86378632  0.77950346  0.27738168  1
  O  O400  1  0.86005174  0.77658318  0.60742700  1
  O  O401  1  0.86140059  0.76508890  0.93914078  1
  O  O402  1  0.22741494  0.14119945  0.22469512  1
  O  O403  1  0.21677134  0.13827128  0.54469646  1
  O  O404  1  0.22510859  0.13294647  0.88835061  1
  O  O405  1  0.21558498  0.63869594  0.23092998  1
  O  O406  1  0.22072915  0.63882280  0.56199988  1
  O  O407  1  0.22621770  0.63879629  0.89225362  1
  O  O408  1  0.72214433  0.13271079  0.22786049  1
  O  O409  1  0.73015352  0.13663333  0.56133290  1
  O  O410  1  0.72624118  0.13802788  0.89963251  1
  O  O411  1  0.71434687  0.63892528  0.21776764  1
  O  O412  1  0.71696872  0.64099373  0.55384398  1
  O  O413  1  0.71197455  0.64017951  0.88452508  1
  O  O414  1  0.49253656  0.33005313  0.03343623  1
  O  O415  1  0.49027163  0.33291621  0.36593125  1
  O  O416  1  0.49416893  0.34095191  0.69736291  1
  O  O417  1  0.49145200  0.82938443  0.03102867  1
  O  O418  1  0.49069557  0.83138401  0.36195809  1
  O  O419  1  0.49133670  0.83013461  0.69430423  1
  O  O420  1  0.99900159  0.35136478  0.03183910  1
  O  O421  1  0.99545751  0.34397793  0.36928945  1
  O  O422  1  0.99374851  0.33591813  0.68604598  1
  O  O423  1  0.98869249  0.82993350  0.02831777  1
  O  O424  1  0.99373608  0.83569501  0.36510035  1
  O  O425  1  0.99082333  0.82971651  0.69791816  1
  O  O426  1  0.16544685  0.01410428  0.13301178  1
  O  O427  1  0.15204897  0.01136358  0.45648936  1
  O  O428  1  0.15352941  0.00468981  0.80242274  1
  O  O429  1  0.16956281  0.50529944  0.14626893  1
  O  O430  1  0.16596921  0.50917682  0.47299768  1
  O  O431  1  0.16790542  0.50971090  0.80248195  1
  O  O432  1  0.67529374  0.00322286  0.13755719  1
  O  O433  1  0.67389279  0.00820932  0.47325174  1
  O  O434  1  0.67163375  0.00957867  0.80543130  1
  O  O435  1  0.66299612  0.50514808  0.13642632  1
  O  O436  1  0.66578200  0.50827900  0.47038360  1
  O  O437  1  0.65690804  0.50794131  0.80100314  1
  O  O438  1  0.00801784  0.17887452  0.29785877  1
  O  O439  1  0.00100319  0.16952458  0.63820359  1
  O  O440  1  0.01799662  0.18251824  0.96993091  1
  O  O441  1  0.00793278  0.66815934  0.30428979  1
  O  O442  1  0.00621385  0.66719793  0.63931928  1
  O  O443  1  0.00081378  0.66634028  0.96963407  1
  O  O444  1  0.50567421  0.16140514  0.30097995  1
  O  O445  1  0.50948160  0.17236552  0.64300907  1
  O  O446  1  0.50747358  0.16008844  0.96561706  1
  O  O447  1  0.50547784  0.66346229  0.30413711  1
  O  O448  1  0.50575355  0.66513706  0.63547052  1
  O  O449  1  0.50774902  0.66605990  0.97241934  1
  O  O450  1  0.33987595  0.49020799  0.19990863  1
  O  O451  1  0.33104794  0.49410396  0.53211778  1
  O  O452  1  0.33471348  0.49169807  0.86611713  1
  O  O453  1  0.32968183  0.98811012  0.19331779  1
  O  O454  1  0.32504765  0.99029543  0.52035983  1
  O  O455  1  0.33419706  0.98886188  0.86423319  1
  O  O456  1  0.83219859  0.50135591  0.20075083  1
  O  O457  1  0.82960089  0.49472770  0.52717585  1
  O  O458  1  0.82467680  0.49575960  0.85132998  1
  O  O459  1  0.83699003  0.99169678  0.19720596  1
  O  O460  1  0.83933595  0.99550621  0.53419067  1
  O  O461  1  0.83181690  0.98707532  0.86080451  1
