# generated using pymatgen
data_Na31Fe20(SO4)36
_symmetry_space_group_name_H-M   'P 1'
_cell_length_a   18.07115764
_cell_length_b   18.07072771
_cell_length_c   19.70727913
_cell_angle_alpha   107.58893621
_cell_angle_beta   107.57447637
_cell_angle_gamma   90.73765335
_symmetry_Int_Tables_number   1
_chemical_formula_structural   Na31Fe20(SO4)36
_chemical_formula_sum   'Na62 Fe40 S72 O288'
_cell_volume   5809.87079115
_cell_formula_units_Z   2
loop_
 _symmetry_equiv_pos_site_id
 _symmetry_equiv_pos_as_xyz
  1  'x, y, z'
loop_
 _atom_site_type_symbol
 _atom_site_label
 _atom_site_symmetry_multiplicity
 _atom_site_fract_x
 _atom_site_fract_y
 _atom_site_fract_z
 _atom_site_occupancy
  Na  Na0  1  0.14763334  0.37630584  0.10128850  1
  Na  Na1  1  0.13546335  0.35610013  0.41345152  1
  Na  Na2  1  0.13665348  0.36657888  0.75200465  1
  Na  Na3  1  0.12034663  0.86998060  0.08227519  1
  Na  Na4  1  0.14479824  0.87534698  0.42705199  1
  Na  Na5  1  0.14981758  0.84951443  0.74807412  1
  Na  Na6  1  0.63499910  0.36365052  0.08103708  1
  Na  Na7  1  0.63387042  0.36690305  0.41672154  1
  Na  Na8  1  0.65129465  0.34901597  0.75076312  1
  Na  Na9  1  0.63315589  0.85943975  0.07291376  1
  Na  Na10  1  0.62486124  0.87128679  0.41468168  1
  Na  Na11  1  0.62924387  0.86093273  0.74647383  1
  Na  Na12  1  0.36644635  0.14434343  0.25675060  1
  Na  Na13  1  0.36558583  0.12072822  0.56790691  1
  Na  Na14  1  0.36680118  0.13746377  0.91756918  1
  Na  Na15  1  0.35201934  0.63384957  0.25228658  1
  Na  Na16  1  0.33498292  0.61745050  0.56768159  1
  Na  Na17  1  0.36101426  0.65030495  0.90822234  1
  Na  Na18  1  0.88049078  0.13925147  0.25679971  1
  Na  Na19  1  0.87116709  0.13566852  0.59152800  1
  Na  Na20  1  0.85508447  0.13587877  0.90705041  1
  Na  Na21  1  0.87133380  0.63172341  0.24842275  1
  Na  Na22  1  0.86708328  0.62834256  0.58172947  1
  Na  Na23  1  0.86987582  0.64009936  0.92622461  1
  Na  Na24  1  0.48905440  0.00507461  0.73636647  1
  Na  Na25  1  1.02231403  -0.00224410  0.40563031  1
  Na  Na26  1  0.99758537  0.48810462  0.11338951  1
  Na  Na27  1  0.49309480  0.51237157  0.08154480  1
  Na  Na28  1  0.42644959  0.49238381  0.39901415  1
  Na  Na29  1  0.47883925  0.52368478  0.74871839  1
  Na  Na30  1  0.48882370  0.00939434  0.09574947  1
  Na  Na31  1  1.04353333  0.48240729  0.35780572  1
  Na  Na32  1  0.99491610  0.50832811  0.74082069  1
  Na  Na33  1  0.46937309  0.50657530  0.58706082  1
  Na  Na34  1  0.03004727  0.99041553  0.23074586  1
  Na  Na35  1  0.48442585  0.50897970  0.25712169  1
  Na  Na36  1  0.00760009  0.49001631  0.92161535  1
  Na  Na37  1  0.51101862  0.98182213  0.91705846  1
  Na  Na38  1  -0.00005820  0.99475719  0.92439674  1
  Na  Na39  1  0.02055094  0.45737415  0.53952889  1
  Na  Na40  1  0.49116049  0.52730619  0.90981623  1
  Na  Na41  1  0.48487469  1.00248335  0.28742154  1
  Na  Na42  1  0.76594339  0.25676051  0.33651871  1
  Na  Na43  1  0.22005637  0.22598339  0.33296989  1
  Na  Na44  1  0.23451706  0.73224368  0.34132353  1
  Na  Na45  1  0.25533536  0.76259449  -0.01005608  1
  Na  Na46  1  0.24304510  0.24956415  0.00955105  1
  Na  Na47  1  0.75900347  0.75775624  -0.00384948  1
  Na  Na48  1  0.75726640  0.25504658  -0.01334966  1
  Na  Na49  1  0.26259146  0.25885694  0.66277622  1
  Na  Na50  1  0.75530858  0.75816824  0.32603872  1
  Na  Na51  1  0.75136407  0.74939866  0.66281834  1
  Na  Na52  1  0.24065488  0.75286205  0.16754082  1
  Na  Na53  1  0.25320165  0.25143701  0.83484104  1
  Na  Na54  1  0.25649917  0.24947583  0.50151138  1
  Na  Na55  1  0.74954403  0.23955423  0.51348167  1
  Na  Na56  1  0.23697625  0.25109995  0.18271979  1
  Na  Na57  1  0.75175991  0.75792906  0.49472474  1
  Na  Na58  1  0.74326931  0.74745503  0.83149840  1
  Na  Na59  1  0.76203247  0.25608776  0.16605089  1
  Na  Na60  1  0.76477814  0.76047324  0.15898234  1
  Na  Na61  1  0.23067684  0.73136748  0.51232099  1
  Fe  Fe62  1  0.46422107  0.81115059  0.45781858  1
  Fe  Fe63  1  0.46581343  0.31099742  0.11953949  1
  Fe  Fe64  1  0.95961587  0.30712579  0.78336785  1
  Fe  Fe65  1  0.96502323  0.80372449  0.78338803  1
  Fe  Fe66  1  0.46739437  0.30712683  0.78307821  1
  Fe  Fe67  1  0.47104518  0.30661920  0.45440104  1
  Fe  Fe68  1  0.46654091  0.81002051  0.11971615  1
  Fe  Fe69  1  0.96545850  0.81210166  0.45725673  1
  Fe  Fe70  1  0.46565187  0.79713912  0.78779769  1
  Fe  Fe71  1  0.97116887  0.29960179  0.12711137  1
  Fe  Fe72  1  0.69021788  0.53512370  0.38153283  1
  Fe  Fe73  1  0.69618804  0.03573293  0.38534491  1
  Fe  Fe74  1  0.68949289  0.53448777  0.04563071  1
  Fe  Fe75  1  0.69134772  0.53073288  0.71357883  1
  Fe  Fe76  1  0.19568628  0.53640334  0.05017366  1
  Fe  Fe77  1  0.19649948  0.53095444  0.70762797  1
  Fe  Fe78  1  0.68701858  0.03783235  0.71171652  1
  Fe  Fe79  1  0.19291059  0.03780670  0.04766178  1
  Fe  Fe80  1  0.18763843  0.03591573  0.71185490  1
  Fe  Fe81  1  0.69462510  0.03820841  0.04881311  1
  Fe  Fe82  1  0.03353772  0.19821586  0.54562897  1
  Fe  Fe83  1  0.03037702  0.70285582  0.20851943  1
  Fe  Fe84  1  0.53920346  0.19487029  0.21631740  1
  Fe  Fe85  1  0.54092606  0.19032632  0.55224683  1
  Fe  Fe86  1  0.53379275  0.69707248  0.21766947  1
  Fe  Fe87  1  0.03526958  0.69355264  0.87949943  1
  Fe  Fe88  1  0.03266046  0.68799643  0.54426108  1
  Fe  Fe89  1  0.53678736  0.19128323  0.87961994  1
  Fe  Fe90  1  0.53171360  0.69098821  0.54805533  1
  Fe  Fe91  1  0.03213594  0.19056227  0.87494016  1
  Fe  Fe92  1  0.80862086  0.96876851  0.28750960  1
  Fe  Fe93  1  0.30676433  0.96713113  0.94830927  1
  Fe  Fe94  1  0.80793483  0.46217045  0.94989331  1
  Fe  Fe95  1  0.81164753  0.96553000  0.95742079  1
  Fe  Fe96  1  0.80887379  0.96661882  0.62339641  1
  Fe  Fe97  1  0.30332726  0.96264070  0.61847954  1
  Fe  Fe98  1  0.30171995  0.96875138  0.29506519  1
  Fe  Fe99  1  0.81146502  0.46854937  0.29076918  1
  Fe  Fe100  1  0.30656227  0.46662135  0.94958771  1
  Fe  Fe101  1  0.80834652  0.46161170  0.61664386  1
  S  S102  1  0.36134921  0.14232135  0.08444560  1
  S  S103  1  0.36964324  0.13957637  0.41315358  1
  S  S104  1  0.36116633  0.13943862  0.75059388  1
  S  S105  1  0.36203956  0.64240254  0.08102842  1
  S  S106  1  0.35969068  0.64380096  0.41828633  1
  S  S107  1  0.35943962  0.63614458  0.74765817  1
  S  S108  1  0.85662685  0.14081308  0.07834713  1
  S  S109  1  0.86230452  0.14042129  0.42244818  1
  S  S110  1  0.85714645  0.13995371  0.75051111  1
  S  S111  1  0.85683739  0.63616159  0.08385168  1
  S  S112  1  0.85354540  0.64496555  0.41624854  1
  S  S113  1  0.85836120  0.63679511  0.74871391  1
  S  S114  1  0.14053723  0.36172051  0.24632333  1
  S  S115  1  0.14814883  0.35252086  0.59069187  1
  S  S116  1  0.13848117  0.36036699  0.91696575  1
  S  S117  1  0.14245688  0.86223253  0.25562506  1
  S  S118  1  0.13809382  0.86033080  0.58557595  1
  S  S119  1  0.13760675  0.86345804  0.91447720  1
  S  S120  1  0.64228341  0.36065148  0.24858513  1
  S  S121  1  0.64594849  0.35591029  0.58484867  1
  S  S122  1  0.63994547  0.36022454  0.91766828  1
  S  S123  1  0.63919381  0.86358600  0.25023481  1
  S  S124  1  0.63981839  0.85848735  0.58486220  1
  S  S125  1  0.64107119  0.86185504  0.91816926  1
  S  S126  1  0.06665976  0.17388599  0.03937965  1
  S  S127  1  0.06440598  0.16317782  0.37810603  1
  S  S128  1  0.07039118  0.17677905  0.71303364  1
  S  S129  1  0.06796581  0.66819334  0.03782456  1
  S  S130  1  0.06440971  0.68128412  0.37811771  1
  S  S131  1  0.06660885  0.66469562  0.70853991  1
  S  S132  1  0.56650494  0.16982428  0.04303683  1
  S  S133  1  0.57483712  0.17204007  0.37719604  1
  S  S134  1  0.56377313  0.16500877  0.70845420  1
  S  S135  1  0.56547386  0.67105331  0.04556103  1
  S  S136  1  0.56667823  0.67090607  0.37606515  1
  S  S137  1  0.56677105  0.66556094  0.70783452  1
  S  S138  1  0.33691132  0.43920461  0.12138010  1
  S  S139  1  0.32922677  0.41734961  0.45650359  1
  S  S140  1  0.33309144  0.43440738  0.79262409  1
  S  S141  1  0.33171748  0.93491051  0.12836931  1
  S  S142  1  0.33164000  0.92939989  0.45868033  1
  S  S143  1  0.33696898  0.93667286  0.79381152  1
  S  S144  1  0.82690673  0.42548070  0.12185014  1
  S  S145  1  0.82534341  0.43470218  0.45428876  1
  S  S146  1  0.83737224  0.43733676  0.79507854  1
  S  S147  1  0.83097685  0.93893526  0.12589767  1
  S  S148  1  0.82343732  0.92976237  0.45695262  1
  S  S149  1  0.82731378  0.92923908  0.79017119  1
  S  S150  1  0.43970864  0.33081526  0.28607830  1
  S  S151  1  0.44577241  0.32987545  0.62785985  1
  S  S152  1  0.43490879  0.33195480  0.95687653  1
  S  S153  1  0.42769494  0.82745862  0.28939510  1
  S  S154  1  0.42808088  0.82237083  0.62395802  1
  S  S155  1  0.43362538  0.84108968  0.96227987  1
  S  S156  1  0.93187051  0.33492538  0.29138490  1
  S  S157  1  0.93664367  0.33032739  0.62605147  1
  S  S158  1  0.93230751  0.32963826  0.96044233  1
  S  S159  1  0.93222176  0.83263233  0.29350937  1
  S  S160  1  0.92665578  0.82295925  0.62096046  1
  S  S161  1  0.93171356  0.82812240  0.95233351  1
  S  S162  1  0.17512552  0.06495296  0.20630029  1
  S  S163  1  0.17213043  0.07307133  0.54903214  1
  S  S164  1  0.17457604  0.07235336  0.87890379  1
  S  S165  1  0.16574224  0.57996892  0.20475887  1
  S  S166  1  0.15063608  0.55724672  0.53436939  1
  S  S167  1  0.17208250  0.56776939  0.87493500  1
  S  S168  1  0.67185757  0.06963263  0.20940965  1
  S  S169  1  0.67387357  0.06688436  0.54524288  1
  S  S170  1  0.66359214  0.06383443  0.87296206  1
  S  S171  1  0.66592753  0.56796855  0.20954247  1
  S  S172  1  0.66740115  0.56526680  0.54278762  1
  S  S173  1  0.66956103  0.56197658  0.87567153  1
  O  O174  1  0.37208058  0.22082983  0.07543500  1
  O  O175  1  0.38435449  0.21254785  0.39519849  1
  O  O176  1  0.37012561  0.21872875  0.74309826  1
  O  O177  1  0.37195381  0.72146472  0.07292673  1
  O  O178  1  0.37516898  0.72321274  0.41079509  1
  O  O179  1  0.36998456  0.71979262  0.75220296  1
  O  O180  1  0.87057580  0.22110434  0.07052580  1
  O  O181  1  0.86737374  0.21622606  0.41232273  1
  O  O182  1  0.86706226  0.21868773  0.74340644  1
  O  O183  1  0.85798865  0.71313339  0.07388825  1
  O  O184  1  0.86124296  0.72576537  0.41174288  1
  O  O185  1  0.86633424  0.71474804  0.73848783  1
  O  O186  1  0.28174178  0.13554028  0.09114269  1
  O  O187  1  0.29249164  0.13768593  0.42226241  1
  O  O188  1  0.28332410  0.13088397  0.76078995  1
  O  O189  1  0.28217821  0.63308015  0.08597786  1
  O  O190  1  0.28431828  0.64125506  0.43118930  1
  O  O191  1  0.27716484  0.62344160  0.74953428  1
  O  O192  1  0.77282792  0.13732111  0.07842176  1
  O  O193  1  0.78431860  0.12600832  0.43280490  1
  O  O194  1  0.77979577  0.12710317  0.75972737  1
  O  O195  1  0.78053734  0.62121900  0.09749772  1
  O  O196  1  0.77421200  0.63422124  0.42400067  1
  O  O197  1  0.77906150  0.62794336  0.75624032  1
  O  O198  1  0.13868474  0.28053696  0.24854064  1
  O  O199  1  0.12683522  0.27659033  0.60437817  1
  O  O200  1  0.12992087  0.28003025  0.92182140  1
  O  O201  1  0.13226633  0.77872707  0.25500714  1
  O  O202  1  0.12621996  0.77954041  0.58786070  1
  O  O203  1  0.12843301  0.78602941  0.92575212  1
  O  O204  1  0.63715594  0.28141551  0.25725426  1
  O  O205  1  0.63821050  0.27625133  0.59039637  1
  O  O206  1  0.62859499  0.28247879  0.92851701  1
  O  O207  1  0.62941610  0.78647512  0.26239903  1
  O  O208  1  0.62944675  0.77995203  0.59456325  1
  O  O209  1  0.63623402  0.78807204  0.93326401  1
  O  O210  1  0.20747962  0.37987994  0.22412825  1
  O  O211  1  0.22961177  0.35112087  0.59323905  1
  O  O212  1  0.21587795  0.36956801  0.90528755  1
  O  O213  1  0.22649569  0.87036952  0.25443645  1
  O  O214  1  0.21568722  0.86788701  0.57323347  1
  O  O215  1  0.21921744  0.87479944  0.91424654  1
  O  O216  1  0.72096519  0.37293172  0.24126180  1
  O  O217  1  0.72515384  0.36683154  0.57670986  1
  O  O218  1  0.71945622  0.36735066  0.91156350  1
  O  O219  1  0.71967415  0.87080773  0.24484544  1
  O  O220  1  0.72022227  0.86595208  0.57915852  1
  O  O221  1  0.71995058  0.87406087  0.90904365  1
  O  O222  1  0.41988084  0.13287140  0.15242304  1
  O  O223  1  0.42941088  0.13422286  0.48204749  1
  O  O224  1  0.42134066  0.13200602  0.81889310  1
  O  O225  1  0.41968618  0.63471427  0.15043307  1
  O  O226  1  0.42124699  0.63174885  0.48517564  1
  O  O227  1  0.41412997  0.62037763  0.81370922  1
  O  O228  1  0.90867386  0.13096032  0.14569452  1
  O  O229  1  0.92240696  0.13544525  0.49307831  1
  O  O230  1  0.91771973  0.13225776  0.81839008  1
  O  O231  1  0.91972538  0.63110478  0.15117270  1
  O  O232  1  0.91232272  0.63471394  0.48246938  1
  O  O233  1  0.91756514  0.62961864  0.81677838  1
  O  O234  1  0.36993316  0.08227067  0.01708609  1
  O  O235  1  0.37609239  0.07377271  0.34690496  1
  O  O236  1  0.36984535  0.07963416  0.68332886  1
  O  O237  1  0.37342008  0.58297920  0.01463358  1
  O  O238  1  0.36544150  0.58469600  0.35044743  1
  O  O239  1  0.37158177  0.58490081  0.67863666  1
  O  O240  1  0.86252881  0.08327194  0.00783514  1
  O  O241  1  0.87148821  0.07766108  0.35688652  1
  O  O242  1  0.86543627  0.08100321  0.68227623  1
  O  O243  1  0.86520787  0.57600284  0.01636667  1
  O  O244  1  0.85923343  0.58899685  0.34555370  1
  O  O245  1  0.86764944  0.57661253  0.68145014  1
  O  O246  1  0.06830772  0.36772970  0.17925855  1
  O  O247  1  0.09550228  0.35772242  0.52022361  1
  O  O248  1  0.07633612  0.37238195  0.85267148  1
  O  O249  1  0.09018975  0.87360885  0.18738676  1
  O  O250  1  0.07797888  0.87583849  0.52243724  1
  O  O251  1  0.08234410  0.86596052  0.84219879  1
  O  O252  1  0.58329927  0.36587385  0.17899860  1
  O  O253  1  0.58772920  0.36606390  0.51753905  1
  O  O254  1  0.58228622  0.36697630  0.84893196  1
  O  O255  1  0.58278365  0.86818777  0.17962272  1
  O  O256  1  0.58297696  0.86326167  0.51464611  1
  O  O257  1  0.58115727  0.86457634  0.84757334  1
  O  O258  1  0.13288801  0.41611749  0.31473341  1
  O  O259  1  0.13747646  0.41632297  0.65645175  1
  O  O260  1  0.13459042  0.41791253  0.98780076  1
  O  O261  1  0.13183884  0.91565337  0.32344463  1
  O  O262  1  0.13810833  0.91637126  0.65849515  1
  O  O263  1  0.12248248  0.92524139  0.97752663  1
  O  O264  1  0.63052713  0.41885330  0.31505613  1
  O  O265  1  0.63944083  0.41329696  0.65442417  1
  O  O266  1  0.63076320  0.42056899  0.98511608  1
  O  O267  1  0.62777538  0.92518870  0.31518296  1
  O  O268  1  0.63131479  0.91878502  0.65160205  1
  O  O269  1  0.62935956  0.92644496  0.98217989  1
  O  O270  1  0.02739362  0.20251458  0.09709601  1
  O  O271  1  0.03734109  0.18713474  0.44753175  1
  O  O272  1  0.02791766  0.20503347  0.77035071  1
  O  O273  1  0.03038855  0.69295203  0.09565232  1
  O  O274  1  0.02184865  0.71068370  0.43636278  1
  O  O275  1  0.02856272  0.69523845  0.76992674  1
  O  O276  1  0.52958770  0.19948016  0.10353996  1
  O  O277  1  0.54310117  0.20404228  0.44033802  1
  O  O278  1  0.52937308  0.19953396  0.77149382  1
  O  O279  1  0.53506525  0.70432396  0.11157793  1
  O  O280  1  0.53445760  0.70044346  0.43923913  1
  O  O281  1  0.53465224  0.69819677  0.76936056  1
  O  O282  1  0.30198237  0.47041677  0.05600382  1
  O  O283  1  0.30732714  0.43793418  0.38781693  1
  O  O284  1  0.29907293  0.46937352  0.73375887  1
  O  O285  1  0.30274899  0.97224146  0.06810087  1
  O  O286  1  0.31324963  0.97106737  0.40249732  1
  O  O287  1  0.30425124  0.97027228  0.73099234  1
  O  O288  1  0.80056492  0.46077264  0.06004512  1
  O  O289  1  0.79197839  0.47502167  0.39522968  1
  O  O290  1  0.80465585  0.47065220  0.73226167  1
  O  O291  1  0.79557576  0.97494770  0.06359709  1
  O  O292  1  0.79413297  0.96549651  0.39512768  1
  O  O293  1  0.79803414  0.96513404  0.72909325  1
  O  O294  1  0.47789608  0.29431182  0.22585076  1
  O  O295  1  0.47941452  0.29359838  0.56503291  1
  O  O296  1  0.46793154  0.30065877  0.89397003  1
  O  O297  1  0.46861654  0.80363067  0.23037273  1
  O  O298  1  0.46994809  0.79794306  0.56615442  1
  O  O299  1  0.46792464  0.81858586  0.90154611  1
  O  O300  1  0.95165051  0.30212261  0.22004389  1
  O  O301  1  0.97398917  0.29880049  0.56736341  1
  O  O302  1  0.96972994  0.30153708  0.90017176  1
  O  O303  1  0.96718615  0.80235668  0.23368697  1
  O  O304  1  0.96559129  0.79351591  0.56186321  1
  O  O305  1  0.96446301  0.79557416  0.88705866  1
  O  O306  1  0.20827907  0.02689004  0.26517486  1
  O  O307  1  0.20246317  0.03683722  0.61179269  1
  O  O308  1  0.20625277  0.03529303  0.94002291  1
  O  O309  1  0.19252096  0.55940316  0.27218850  1
  O  O310  1  0.17188642  0.52874227  0.60083916  1
  O  O311  1  0.20008784  0.52911117  0.93488650  1
  O  O312  1  0.70230680  0.03495434  0.27133425  1
  O  O313  1  0.70305054  0.02733530  0.60481410  1
  O  O314  1  0.69453716  0.02943149  0.93443975  1
  O  O315  1  0.69682786  0.53273771  0.27075293  1
  O  O316  1  0.69863077  0.52789658  0.60320608  1
  O  O317  1  0.70563242  0.52814319  0.93885513  1
  O  O318  1  0.08734079  0.09329125  0.03541936  1
  O  O319  1  0.07346736  0.07892421  0.36016476  1
  O  O320  1  0.08838334  0.09672043  0.70925788  1
  O  O321  1  0.08998283  0.58618084  0.02826994  1
  O  O322  1  0.08574891  0.60453934  0.37843513  1
  O  O323  1  0.08474015  0.58330141  0.70712809  1
  O  O324  1  0.58214421  0.08705920  0.03750075  1
  O  O325  1  0.59203428  0.09010083  0.37234560  1
  O  O326  1  0.57866844  0.08332692  0.70824814  1
  O  O327  1  0.58186597  0.58779577  0.04198095  1
  O  O328  1  0.58536146  0.58894824  0.36934978  1
  O  O329  1  0.58408054  0.58283532  0.70412333  1
  O  O330  1  0.41883864  0.42051911  0.12154869  1
  O  O331  1  0.41727220  0.40275616  0.47262114  1
  O  O332  1  0.41521951  0.41718367  0.79479284  1
  O  O333  1  0.41545099  0.91992212  0.13494001  1
  O  O334  1  0.41390013  0.91166202  0.47344729  1
  O  O335  1  0.41866746  0.91888477  0.79630416  1
  O  O336  1  0.90698368  0.40187814  0.12638288  1
  O  O337  1  0.90258779  0.41549151  0.45323870  1
  O  O338  1  0.92036235  0.42172468  0.79811962  1
  O  O339  1  0.91078073  0.92575556  0.13023104  1
  O  O340  1  0.90226713  0.90785554  0.45869791  1
  O  O341  1  0.90879982  0.91049405  0.79704526  1
  O  O342  1  0.43086665  0.41165403  0.28676525  1
  O  O343  1  0.43767647  0.41228258  0.63562363  1
  O  O344  1  0.41895256  0.41454476  0.96353660  1
  O  O345  1  0.40395876  0.90694500  0.29326875  1
  O  O346  1  0.40785371  0.90371945  0.63083962  1
  O  O347  1  0.41720567  0.92595007  0.97463767  1
  O  O348  1  0.90927725  0.41626102  0.29490693  1
  O  O349  1  0.91674669  0.41125763  0.62630188  1
  O  O350  1  0.91867411  0.41382660  0.96806974  1
  O  O351  1  0.91101326  0.91344023  0.29625659  1
  O  O352  1  0.90349529  0.90100307  0.62176044  1
  O  O353  1  0.91243644  0.90892108  0.95265125  1
  O  O354  1  0.09723574  0.08350937  0.20573597  1
  O  O355  1  0.09679212  0.10447363  0.55461114  1
  O  O356  1  0.09381093  0.08871438  0.87577698  1
  O  O357  1  0.08179993  0.59760019  0.18815088  1
  O  O358  1  0.06760370  0.57945455  0.52386159  1
  O  O359  1  0.08806639  0.58065778  0.86575676  1
  O  O360  1  0.59020964  0.08882796  0.20598698  1
  O  O361  1  0.59610107  0.09016432  0.54614181  1
  O  O362  1  0.57979146  0.07810235  0.86736031  1
  O  O363  1  0.58318724  0.58481244  0.20491420  1
  O  O364  1  0.58694613  0.58409117  0.53962694  1
  O  O365  1  0.58702266  0.56892006  0.86859970  1
  O  O366  1  0.13782575  0.22747092  0.05668844  1
  O  O367  1  0.14004722  0.21225367  0.39962437  1
  O  O368  1  0.14192043  0.23074621  0.73535144  1
  O  O369  1  0.13731370  0.72255796  0.05244329  1
  O  O370  1  0.13426223  0.73844290  0.39990684  1
  O  O371  1  0.13578296  0.71643759  0.72344418  1
  O  O372  1  0.63812226  0.22093643  0.05968981  1
  O  O373  1  0.64573126  0.22190189  0.38840572  1
  O  O374  1  0.63518669  0.21245308  0.72061016  1
  O  O375  1  0.63874431  0.71917732  0.05961931  1
  O  O376  1  0.63589074  0.72324952  0.38749783  1
  O  O377  1  0.63897314  0.71451154  0.71850897  1
  O  O378  1  0.28787912  0.36742735  0.10847898  1
  O  O379  1  0.28216306  0.34465750  0.44781809  1
  O  O380  1  0.28498413  0.36236921  0.78286543  1
  O  O381  1  0.28178288  0.86158110  0.10998634  1
  O  O382  1  0.27679594  0.85845843  0.43552465  1
  O  O383  1  0.28680814  0.86890022  0.78586861  1
  O  O384  1  0.77186487  0.35580721  0.10541488  1
  O  O385  1  0.77002911  0.36559460  0.43794994  1
  O  O386  1  0.78969573  0.36715168  0.78546995  1
  O  O387  1  0.77839267  0.86612810  0.10794123  1
  O  O388  1  0.76755362  0.86052134  0.44043149  1
  O  O389  1  0.77416447  0.85800865  0.77360311  1
  O  O390  1  0.36578457  0.28261627  0.26734688  1
  O  O391  1  0.37233385  0.28152051  0.61279286  1
  O  O392  1  0.36285761  0.28207258  0.94333997  1
  O  O393  1  0.35980040  0.77036078  0.26944449  1
  O  O394  1  0.35902723  0.76728954  0.60421379  1
  O  O395  1  0.36271636  0.79065875  0.94828161  1
  O  O396  1  0.86285653  0.28370133  0.28389241  1
  O  O397  1  0.86684084  0.27891309  0.61383606  1
  O  O398  1  0.85999601  0.27997277  0.94281105  1
  O  O399  1  0.86096564  0.77980895  0.27936893  1
  O  O400  1  0.85718697  0.76710575  0.60429991  1
  O  O401  1  0.85840598  0.77696074  0.93508596  1
  O  O402  1  0.22960668  0.13538657  0.22159635  1
  O  O403  1  0.23130790  0.13749981  0.56154182  1
  O  O404  1  0.22659382  0.14491624  0.89711386  1
  O  O405  1  0.21619778  0.64847692  0.20840858  1
  O  O406  1  0.20384296  0.62628795  0.54843382  1
  O  O407  1  0.22164500  0.64114633  0.89534183  1
  O  O408  1  0.72350429  0.13983860  0.22232950  1
  O  O409  1  0.73013474  0.13335990  0.55923385  1
  O  O410  1  0.71145127  0.13668117  0.88727530  1
  O  O411  1  0.71591145  0.63985309  0.22386468  1
  O  O412  1  0.72043574  0.63598499  0.55855496  1
  O  O413  1  0.71636339  0.63702004  0.89189260  1
  O  O414  1  0.49525887  0.33226247  0.02822835  1
  O  O415  1  0.49522764  0.33065349  0.35979216  1
  O  O416  1  0.50433195  0.32567983  0.69929494  1
  O  O417  1  0.49443220  0.84159119  0.03436077  1
  O  O418  1  0.48681927  0.83122367  0.36221792  1
  O  O419  1  0.48754761  0.82488577  0.69707347  1
  O  O420  1  0.99011009  0.33117929  0.03431037  1
  O  O421  1  0.99934697  0.34354296  0.35690242  1
  O  O422  1  0.99522586  0.34015037  0.70201410  1
  O  O423  1  0.99047177  0.82961504  0.02130151  1
  O  O424  1  0.99058389  0.84167633  0.36902789  1
  O  O425  1  0.98556795  0.82735764  0.69421054  1
  O  O426  1  0.17261487  0.00662901  0.13149169  1
  O  O427  1  0.15672326  0.01062698  0.47768047  1
  O  O428  1  0.17525627  0.01436984  0.80738126  1
  O  O429  1  0.16589399  0.51283836  0.13533030  1
  O  O430  1  0.14723135  0.49209691  0.46768129  1
  O  O431  1  0.17515150  0.51066578  0.80296371  1
  O  O432  1  0.66488161  0.00897022  0.13610208  1
  O  O433  1  0.66530605  0.00631164  0.47109022  1
  O  O434  1  0.66173728  0.00463673  0.80035452  1
  O  O435  1  0.66225689  0.50808337  0.13664026  1
  O  O436  1  0.66429686  0.50679594  0.46950740  1
  O  O437  1  0.67586888  0.50405073  0.80525929  1
  O  O438  1  0.00544111  0.17832793  0.31652422  1
  O  O439  1  0.01405855  0.17836598  0.64012205  1
  O  O440  1  0.00870425  0.16791536  0.96447484  1
  O  O441  1  0.00884816  0.67945648  0.30374682  1
  O  O442  1  0.00537657  0.66070867  0.63627793  1
  O  O443  1  0.00840651  0.66284005  0.96294807  1
  O  O444  1  0.51253562  0.16681761  0.30485282  1
  O  O445  1  0.50279445  0.16028414  0.63633875  1
  O  O446  1  0.50798036  0.16810947  0.97012838  1
  O  O447  1  0.50440700  0.66606767  0.30353984  1
  O  O448  1  0.50668500  0.65871590  0.63382158  1
  O  O449  1  0.50386352  0.66746583  0.97632573  1
  O  O450  1  0.34446917  0.50129763  0.19133307  1
  O  O451  1  0.33038478  0.48227166  0.52366054  1
  O  O452  1  0.34173204  0.49408541  0.86855903  1
  O  O453  1  0.33419666  0.99156188  0.20222123  1
  O  O454  1  0.32523812  0.98614324  0.52997693  1
  O  O455  1  0.34422476  1.00038484  0.86681116  1
  O  O456  1  0.82888913  0.48679964  0.19276344  1
  O  O457  1  0.82835516  0.49296951  0.52844915  1
  O  O458  1  0.84453814  0.49922815  0.86849621  1
  O  O459  1  0.82676939  0.99693415  0.19737213  1
  O  O460  1  0.82755052  0.98934932  0.52927534  1
  O  O461  1  0.82861465  0.98936174  0.86198076  1
