# generated using pymatgen
data_Na31Fe20(SO4)36
_symmetry_space_group_name_H-M   'P 1'
_cell_length_a   18.06741392
_cell_length_b   18.06931706
_cell_length_c   19.69792545
_cell_angle_alpha   107.58095716
_cell_angle_beta   107.57684700
_cell_angle_gamma   90.73668346
_symmetry_Int_Tables_number   1
_chemical_formula_structural   Na31Fe20(SO4)36
_chemical_formula_sum   'Na62 Fe40 S72 O288'
_cell_volume   5805.67297086
_cell_formula_units_Z   2
loop_
 _symmetry_equiv_pos_site_id
 _symmetry_equiv_pos_as_xyz
  1  'x, y, z'
loop_
 _atom_site_type_symbol
 _atom_site_label
 _atom_site_symmetry_multiplicity
 _atom_site_fract_x
 _atom_site_fract_y
 _atom_site_fract_z
 _atom_site_occupancy
  Na  Na0  1  0.12422500  0.36844015  0.08085228  1
  Na  Na1  1  0.14059623  0.35954046  0.42523062  1
  Na  Na2  1  0.13128839  0.36579544  0.74741106  1
  Na  Na3  1  0.13220446  0.86323639  0.08077794  1
  Na  Na4  1  0.13821874  0.86831545  0.42218850  1
  Na  Na5  1  0.15145133  0.83864840  0.73547026  1
  Na  Na6  1  0.62936587  0.35894328  0.07691340  1
  Na  Na7  1  0.64444421  0.36884985  0.42695816  1
  Na  Na8  1  0.63469548  0.35457204  0.74691879  1
  Na  Na9  1  0.63730031  0.86426759  0.08113051  1
  Na  Na10  1  0.62529502  0.88072153  0.41388338  1
  Na  Na11  1  0.62906304  0.87013278  0.75141626  1
  Na  Na12  1  0.37756363  0.13069322  0.25651847  1
  Na  Na13  1  0.35063987  0.13830970  0.56851442  1
  Na  Na14  1  0.38187641  0.14728168  0.92652801  1
  Na  Na15  1  0.36977027  0.62701032  0.24964618  1
  Na  Na16  1  0.36070751  0.64101622  0.58924472  1
  Na  Na17  1  0.35981958  0.63572467  0.90785565  1
  Na  Na18  1  0.86509918  0.13659934  0.25351971  1
  Na  Na19  1  0.85885921  0.12464749  0.56850872  1
  Na  Na20  1  0.86665007  0.13602258  0.91955871  1
  Na  Na21  1  0.85615507  0.62999988  0.24707566  1
  Na  Na22  1  0.86194354  0.63367187  0.58036772  1
  Na  Na23  1  0.86249029  0.63948929  0.92224056  1
  Na  Na24  1  0.49191077  0.05652323  0.77701622  1
  Na  Na25  1  0.51378774  0.50047844  0.38707436  1
  Na  Na26  1  0.49967229  0.02025076  0.07401523  1
  Na  Na27  1  0.98433838  0.01096501  0.08970300  1
  Na  Na28  1  0.98963720  0.00980451  0.41681963  1
  Na  Na29  1  0.99481934  0.00787487  0.75279517  1
  Na  Na30  1  0.95537365  0.51331280  0.64580992  1
  Na  Na31  1  0.97184759  0.52236930  0.43662768  1
  Na  Na32  1  0.50798134  0.47846908  0.75944303  1
  Na  Na33  1  0.50284220  0.45629962  0.91632101  1
  Na  Na34  1  0.01134571  0.98390476  0.91887574  1
  Na  Na35  1  0.51258920  0.49087584  0.58061972  1
  Na  Na36  1  0.49719192  1.01486682  0.55793022  1
  Na  Na37  1  0.04784832  0.99082073  0.26726460  1
  Na  Na38  1  0.51182416  0.45421430  0.14171839  1
  Na  Na39  1  0.00488728  0.49141440  0.91852284  1
  Na  Na40  1  0.01646327  0.98647732  0.58449656  1
  Na  Na41  1  -0.01949349  0.50592662  0.25532301  1
  Na  Na42  1  0.73219768  0.24336176  0.00225361  1
  Na  Na43  1  0.25949893  0.75979112  -0.01401474  1
  Na  Na44  1  0.26638490  0.26343708  -0.00224649  1
  Na  Na45  1  0.24383809  0.23126001  0.35225687  1
  Na  Na46  1  0.24565566  0.74468311  0.33779832  1
  Na  Na47  1  0.75120564  0.25253935  0.66502311  1
  Na  Na48  1  0.74752725  0.74900143  0.66980321  1
  Na  Na49  1  0.74832282  0.75057644  0.33075614  1
  Na  Na50  1  0.26322805  0.26223385  0.65116758  1
  Na  Na51  1  0.75459951  0.25911532  0.33579973  1
  Na  Na52  1  0.75606782  0.26162095  0.17347425  1
  Na  Na53  1  0.74082717  0.74197371  0.84411330  1
  Na  Na54  1  0.25453337  0.75641324  0.16436607  1
  Na  Na55  1  0.75658457  0.25313809  0.50094590  1
  Na  Na56  1  0.22929194  0.74071206  0.51933340  1
  Na  Na57  1  0.75635244  0.75136971  0.49624643  1
  Na  Na58  1  0.26064991  0.25397965  0.16408285  1
  Na  Na59  1  0.73358506  0.24069532  0.83857127  1
  Na  Na60  1  0.28067864  0.27099889  0.82796751  1
  Na  Na61  1  0.75423608  0.75674518  0.15440508  1
  Fe  Fe62  1  0.96104684  0.80809214  0.12044145  1
  Fe  Fe63  1  0.96815128  0.80357488  0.78302867  1
  Fe  Fe64  1  0.45783206  0.81722757  0.78862598  1
  Fe  Fe65  1  0.46419923  0.80627582  0.45230842  1
  Fe  Fe66  1  0.46670999  0.80992845  0.12181830  1
  Fe  Fe67  1  0.96982473  0.79856457  0.45549930  1
  Fe  Fe68  1  0.96612099  0.31171163  0.45682464  1
  Fe  Fe69  1  0.96496939  0.30806535  0.12333511  1
  Fe  Fe70  1  0.46553416  0.30654252  0.44874533  1
  Fe  Fe71  1  0.96299967  0.30547502  0.78444306  1
  Fe  Fe72  1  0.19118831  0.53075501  0.38346187  1
  Fe  Fe73  1  0.70238448  0.52845536  0.37463718  1
  Fe  Fe74  1  0.18993043  0.53792763  0.05097942  1
  Fe  Fe75  1  0.19342430  0.03516542  0.71886714  1
  Fe  Fe76  1  0.18875020  0.54299847  0.71419246  1
  Fe  Fe77  1  0.69223926  0.53268029  0.04629404  1
  Fe  Fe78  1  0.70259309  0.53127387  0.71209993  1
  Fe  Fe79  1  0.68760228  0.03704470  0.04157204  1
  Fe  Fe80  1  0.19424478  0.03284530  0.05092099  1
  Fe  Fe81  1  0.69104370  0.03405961  0.71033167  1
  Fe  Fe82  1  0.03607601  0.19229267  0.22212302  1
  Fe  Fe83  1  0.03600700  0.68722766  0.87848557  1
  Fe  Fe84  1  0.03232595  0.68818851  0.21231684  1
  Fe  Fe85  1  0.53330699  0.69263485  0.54435845  1
  Fe  Fe86  1  0.53659394  0.19094994  0.54062615  1
  Fe  Fe87  1  0.53443989  0.20162793  0.21398145  1
  Fe  Fe88  1  0.03626377  0.19318439  0.88514405  1
  Fe  Fe89  1  0.03986418  0.19270648  0.55110549  1
  Fe  Fe90  1  0.53506163  0.69000138  0.20844331  1
  Fe  Fe91  1  0.53448290  0.69154493  0.87791046  1
  Fe  Fe92  1  0.30596603  0.96990616  0.62073601  1
  Fe  Fe93  1  0.30832142  0.46655921  0.62006298  1
  Fe  Fe94  1  0.81184441  0.46436280  0.95581887  1
  Fe  Fe95  1  0.30722252  0.96468117  0.94965299  1
  Fe  Fe96  1  0.79671194  0.97067737  0.28715995  1
  Fe  Fe97  1  0.30251144  0.96585638  0.29063807  1
  Fe  Fe98  1  0.30691862  0.46252756  0.28704536  1
  Fe  Fe99  1  0.80513017  0.96625965  0.61525485  1
  Fe  Fe100  1  0.30546739  0.47118320  0.95657415  1
  Fe  Fe101  1  0.80653783  0.96215142  0.95107754  1
  S  S102  1  0.36049028  0.13783392  0.08748965  1
  S  S103  1  0.36300771  0.13698532  0.41474350  1
  S  S104  1  0.35112475  0.14408698  0.74945255  1
  S  S105  1  0.35626332  0.64543278  0.08444783  1
  S  S106  1  0.35970263  0.63836831  0.41656412  1
  S  S107  1  0.36011119  0.64348608  0.74902198  1
  S  S108  1  0.86169305  0.13818412  0.08321309  1
  S  S109  1  0.86411003  0.13924768  0.41793988  1
  S  S110  1  0.86088177  0.13846357  0.75268530  1
  S  S111  1  0.85877521  0.63944514  0.08452576  1
  S  S112  1  0.85847370  0.64061108  0.41269095  1
  S  S113  1  0.85863379  0.64687497  0.75426687  1
  S  S114  1  0.14326126  0.35367108  0.25174286  1
  S  S115  1  0.14077641  0.36349770  0.58932515  1
  S  S116  1  0.13790444  0.36026304  0.91744576  1
  S  S117  1  0.13881628  0.85189191  0.24829403  1
  S  S118  1  0.14052444  0.86283020  0.58621200  1
  S  S119  1  0.13920458  0.86040952  0.91599335  1
  S  S120  1  0.64416710  0.36068878  0.25618123  1
  S  S121  1  0.63895719  0.36105398  0.58478680  1
  S  S122  1  0.64296773  0.36295977  0.91186305  1
  S  S123  1  0.64053684  0.85631288  0.24550555  1
  S  S124  1  0.64057253  0.85883508  0.58159375  1
  S  S125  1  0.63782241  0.85878251  0.91441005  1
  S  S126  1  0.06663940  0.16557975  0.04508834  1
  S  S127  1  0.06214976  0.16795124  0.37872817  1
  S  S128  1  0.06576233  0.16817657  0.71314807  1
  S  S129  1  0.06462751  0.67133379  0.04322085  1
  S  S130  1  0.06716166  0.66784807  0.37491620  1
  S  S131  1  0.06065831  0.66426001  0.70963248  1
  S  S132  1  0.56973216  0.17265138  0.04703123  1
  S  S133  1  0.57617768  0.17620379  0.37748306  1
  S  S134  1  0.56667628  0.16005589  0.70129616  1
  S  S135  1  0.56500351  0.66806680  0.03896284  1
  S  S136  1  0.57292897  0.67341170  0.37542535  1
  S  S137  1  0.57117451  0.66852539  0.70781810  1
  S  S138  1  0.31678690  0.43154932  0.12278836  1
  S  S139  1  0.33168579  0.43322634  0.45731327  1
  S  S140  1  0.32828847  0.44201034  0.78965836  1
  S  S141  1  0.32418927  0.92808010  0.12272220  1
  S  S142  1  0.32928445  0.92822869  0.45748114  1
  S  S143  1  0.33443882  0.93990758  0.79599432  1
  S  S144  1  0.82987927  0.43113720  0.12401341  1
  S  S145  1  0.83426044  0.43775018  0.46457095  1
  S  S146  1  0.83248991  0.43393577  0.79301104  1
  S  S147  1  0.83208074  0.93408996  0.12644540  1
  S  S148  1  0.83827467  0.92871872  0.45769676  1
  S  S149  1  0.83265141  0.93424168  0.79127851  1
  S  S150  1  0.43433824  0.32921594  0.29041957  1
  S  S151  1  0.43579819  0.33379039  0.62169332  1
  S  S152  1  0.43210170  0.34536875  0.96610431  1
  S  S153  1  0.42846091  0.82365958  0.28742310  1
  S  S154  1  0.42981121  0.83003659  0.62161209  1
  S  S155  1  0.43263947  0.83101475  0.95882293  1
  S  S156  1  0.94253294  0.33328252  0.29521804  1
  S  S157  1  0.93036926  0.31870283  0.62246236  1
  S  S158  1  0.93192202  0.32691863  0.95645567  1
  S  S159  1  0.93133163  0.82861466  0.29091460  1
  S  S160  1  0.93156075  0.83433994  0.62657658  1
  S  S161  1  0.93462681  0.83437475  0.95876832  1
  S  S162  1  0.16667741  0.06236712  0.20940493  1
  S  S163  1  0.16370311  0.06347735  0.54308531  1
  S  S164  1  0.16897466  0.06849916  0.88074060  1
  S  S165  1  0.16829500  0.56461179  0.21216114  1
  S  S166  1  0.16817360  0.56091176  0.54065508  1
  S  S167  1  0.16775947  0.56578564  0.87925402  1
  S  S168  1  0.67194668  0.07513303  0.20764869  1
  S  S169  1  0.67435554  0.06731656  0.54155527  1
  S  S170  1  0.67506803  0.06745405  0.87852205  1
  S  S171  1  0.66640861  0.56521782  0.20715234  1
  S  S172  1  0.66715256  0.57043434  0.53800423  1
  S  S173  1  0.67226631  0.56917663  0.87480332  1
  O  O174  1  0.36110069  0.21339563  0.07555513  1
  O  O175  1  0.37664342  0.21347678  0.40142920  1
  O  O176  1  0.35388528  0.21994125  0.73752473  1
  O  O177  1  0.36562984  0.72715249  0.08186983  1
  O  O178  1  0.36960061  0.71599471  0.40578871  1
  O  O179  1  0.37407637  0.72110634  0.74050009  1
  O  O180  1  0.87118680  0.21625318  0.07332057  1
  O  O181  1  0.87451852  0.21757055  0.40743746  1
  O  O182  1  0.86834056  0.21852776  0.74715937  1
  O  O183  1  0.86767478  0.71881516  0.07757284  1
  O  O184  1  0.86712054  0.72215861  0.40747813  1
  O  O185  1  0.86671682  0.72951494  0.75230418  1
  O  O186  1  0.28560233  0.12235463  0.10231337  1
  O  O187  1  0.28860756  0.13355971  0.42839624  1
  O  O188  1  0.27138532  0.13030149  0.75774277  1
  O  O189  1  0.27763038  0.63534870  0.09374857  1
  O  O190  1  0.27889112  0.62887194  0.41992363  1
  O  O191  1  0.28256606  0.63578021  0.75878202  1
  O  O192  1  0.78179078  0.12959875  0.08850581  1
  O  O193  1  0.79147499  0.13267188  0.43423657  1
  O  O194  1  0.78350582  0.12822125  0.76315328  1
  O  O195  1  0.77985591  0.62887912  0.09263236  1
  O  O196  1  0.77313461  0.63124915  0.40964681  1
  O  O197  1  0.77789450  0.63608267  0.75941464  1
  O  O198  1  0.13553719  0.27488644  0.26096973  1
  O  O199  1  0.13092163  0.28596929  0.60139444  1
  O  O200  1  0.12973799  0.28338490  0.93053206  1
  O  O201  1  0.13093155  0.76906764  0.24868487  1
  O  O202  1  0.13582645  0.78654007  0.59552278  1
  O  O203  1  0.12949289  0.78333551  0.92741465  1
  O  O204  1  0.62572776  0.28189179  0.26620869  1
  O  O205  1  0.62372456  0.28358317  0.59543867  1
  O  O206  1  0.63659485  0.28402482  0.91672766  1
  O  O207  1  0.63345425  0.77258641  0.24501227  1
  O  O208  1  0.63080875  0.77860731  0.58713052  1
  O  O209  1  0.62872470  0.77959430  0.92126698  1
  O  O210  1  0.22232140  0.36350501  0.24415614  1
  O  O211  1  0.22034057  0.37010458  0.58211176  1
  O  O212  1  0.21734878  0.36920806  0.91099782  1
  O  O213  1  0.21763326  0.86398290  0.24077524  1
  O  O214  1  0.21788893  0.87770001  0.57540533  1
  O  O215  1  0.21937816  0.87079658  0.91261532  1
  O  O216  1  0.72589855  0.36320128  0.25932238  1
  O  O217  1  0.71468250  0.36392116  0.57332414  1
  O  O218  1  0.72346689  0.37598331  0.90481607  1
  O  O219  1  0.71917866  0.86833075  0.23514508  1
  O  O220  1  0.71946330  0.86779716  0.57287199  1
  O  O221  1  0.71610986  0.86788111  0.90383899  1
  O  O222  1  0.42518597  0.13480984  0.15619095  1
  O  O223  1  0.42691542  0.12802000  0.48045972  1
  O  O224  1  0.40957049  0.13899343  0.81739941  1
  O  O225  1  0.41590885  0.63384893  0.15008038  1
  O  O226  1  0.41633901  0.63486742  0.48786254  1
  O  O227  1  0.42040729  0.63442713  0.81680038  1
  O  O228  1  0.91936437  0.13106154  0.15279790  1
  O  O229  1  0.93018469  0.12684959  0.48031893  1
  O  O230  1  0.92213205  0.12801595  0.81904312  1
  O  O231  1  0.91716711  0.63165616  0.15316069  1
  O  O232  1  0.90847562  0.63502162  0.48430059  1
  O  O233  1  0.91514479  0.63945071  0.82416694  1
  O  O234  1  0.37061222  0.07546752  0.02195865  1
  O  O235  1  0.36614165  0.07554847  0.34514947  1
  O  O236  1  0.36068243  0.08234836  0.68150100  1
  O  O237  1  0.36021658  0.59100396  0.01301191  1
  O  O238  1  0.37301327  0.57744904  0.35200567  1
  O  O239  1  0.36745568  0.58280807  0.68104712  1
  O  O240  1  0.87353826  0.07744248  0.01758584  1
  O  O241  1  0.86686958  0.07915197  0.34703201  1
  O  O242  1  0.86885133  0.08125707  0.68356717  1
  O  O243  1  0.86736312  0.58130038  0.01651354  1
  O  O244  1  0.87406793  0.58423027  0.34877423  1
  O  O245  1  0.86701436  0.59236401  0.68649796  1
  O  O246  1  0.08453324  0.35891855  0.18205292  1
  O  O247  1  0.08256546  0.36830098  0.51974289  1
  O  O248  1  0.07957627  0.36389784  0.84699547  1
  O  O249  1  0.07952160  0.86262834  0.18034827  1
  O  O250  1  0.07899643  0.87038056  0.51810456  1
  O  O251  1  0.08219749  0.86699161  0.84597221  1
  O  O252  1  0.59119642  0.36807195  0.18688277  1
  O  O253  1  0.57693749  0.37405749  0.52014618  1
  O  O254  1  0.58482780  0.37729736  0.84797911  1
  O  O255  1  0.58099700  0.86420800  0.17692884  1
  O  O256  1  0.58092129  0.86921003  0.51526933  1
  O  O257  1  0.57770573  0.86714725  0.84714290  1
  O  O258  1  0.13412927  0.41313958  0.31857513  1
  O  O259  1  0.13176879  0.42443447  0.65552692  1
  O  O260  1  0.12520629  0.42209675  0.98174933  1
  O  O261  1  0.12886632  0.90566990  0.31615968  1
  O  O262  1  0.13013959  0.92414178  0.65339733  1
  O  O263  1  0.12575659  0.92159280  0.98123974  1
  O  O264  1  0.63247364  0.42105456  0.32392212  1
  O  O265  1  0.63497129  0.42198250  0.65459798  1
  O  O266  1  0.63636350  0.42045268  0.98348311  1
  O  O267  1  0.63523353  0.90977126  0.31436880  1
  O  O268  1  0.63567641  0.91552389  0.65198170  1
  O  O269  1  0.63404739  0.91779065  0.98414870  1
  O  O270  1  0.03179497  0.19566982  0.10681783  1
  O  O271  1  0.03372454  0.21064128  0.44315859  1
  O  O272  1  0.02866133  0.19859338  0.77411444  1
  O  O273  1  0.02550722  0.69880709  0.10220159  1
  O  O274  1  0.03348916  0.69824915  0.43585838  1
  O  O275  1  0.03139569  0.70115251  0.77760717  1
  O  O276  1  0.53975762  0.19441382  0.11328361  1
  O  O277  1  0.53725884  0.21159274  0.43728229  1
  O  O278  1  0.53413579  0.17743394  0.76209009  1
  O  O279  1  0.52414713  0.69573042  0.09725550  1
  O  O280  1  0.53244934  0.69981242  0.43436188  1
  O  O281  1  0.53478050  0.69659582  0.76815635  1
  O  O282  1  0.28783640  0.47323075  0.06466527  1
  O  O283  1  0.29942369  0.46881918  0.39535391  1
  O  O284  1  0.29252500  0.47926317  0.72975113  1
  O  O285  1  0.29450990  0.96407356  0.06093835  1
  O  O286  1  0.30454128  0.95970607  0.39481738  1
  O  O287  1  0.29799195  0.97113423  0.73193410  1
  O  O288  1  0.79936754  0.46429706  0.05983183  1
  O  O289  1  0.80245834  0.47487535  0.40444069  1
  O  O290  1  0.80544221  0.47293580  0.73573451  1
  O  O291  1  0.80351844  0.96848535  0.06367682  1
  O  O292  1  0.81450313  0.96188399  0.39605072  1
  O  O293  1  0.80258950  0.96941621  0.72971475  1
  O  O294  1  0.47018689  0.29720035  0.23067072  1
  O  O295  1  0.46199593  0.29971988  0.55370538  1
  O  O296  1  0.45471309  0.32908008  0.89847164  1
  O  O297  1  0.47116341  0.79670645  0.23037794  1
  O  O298  1  0.47097662  0.80076918  0.56318192  1
  O  O299  1  0.46815076  0.80245107  0.89684156  1
  O  O300  1  0.97527307  0.29475077  0.23100587  1
  O  O301  1  0.96902497  0.28844592  0.56206735  1
  O  O302  1  0.96955080  0.29537068  0.89594849  1
  O  O303  1  0.96916695  0.79876294  0.23014406  1
  O  O304  1  0.96284991  0.80822642  0.56408873  1
  O  O305  1  0.97325484  0.80778689  0.89992377  1
  O  O306  1  0.19399939  0.02376419  0.26716817  1
  O  O307  1  0.19705032  0.03379134  0.60907986  1
  O  O308  1  0.20129609  0.03327839  0.94249192  1
  O  O309  1  0.19874948  0.52498064  0.27096916  1
  O  O310  1  0.20536000  0.52870785  0.60483682  1
  O  O311  1  0.20018210  0.52913247  0.94071786  1
  O  O312  1  0.69893080  0.03778367  0.26599520  1
  O  O313  1  0.70530234  0.03291068  0.60680588  1
  O  O314  1  0.70956255  0.02777358  0.93771271  1
  O  O315  1  0.68666350  0.52819274  0.26660531  1
  O  O316  1  0.68769066  0.53715149  0.59965072  1
  O  O317  1  0.70182949  0.53635163  0.93814169  1
  O  O318  1  0.08044511  0.08189308  0.03784378  1
  O  O319  1  0.06849766  0.08676932  0.37835650  1
  O  O320  1  0.08157630  0.08557479  0.71017025  1
  O  O321  1  0.08303251  0.58956852  0.03676782  1
  O  O322  1  0.08555003  0.58556474  0.36918015  1
  O  O323  1  0.08101771  0.58425582  0.71280721  1
  O  O324  1  0.58687828  0.08862511  0.03478304  1
  O  O325  1  0.58821262  0.09694989  0.37245022  1
  O  O326  1  0.58457557  0.07476381  0.68347890  1
  O  O327  1  0.58465604  0.58701791  0.03296995  1
  O  O328  1  0.59872303  0.59521864  0.37450816  1
  O  O329  1  0.59269092  0.58771923  0.70252994  1
  O  O330  1  0.39222087  0.40576468  0.12358885  1
  O  O331  1  0.41370925  0.41746122  0.46108960  1
  O  O332  1  0.40952488  0.43166780  0.79285759  1
  O  O333  1  0.40457119  0.90926428  0.12629751  1
  O  O334  1  0.41225202  0.90862691  0.46913255  1
  O  O335  1  0.41660257  0.92731121  0.79779124  1
  O  O336  1  0.90976282  0.40691572  0.12502087  1
  O  O337  1  0.91302673  0.41362071  0.45905109  1
  O  O338  1  0.91410365  0.41283772  0.79898746  1
  O  O339  1  0.91668955  0.92060142  0.13478333  1
  O  O340  1  0.92165731  0.91071185  0.46891791  1
  O  O341  1  0.91503331  0.91645538  0.79617485  1
  O  O342  1  0.41185568  0.40881146  0.29013560  1
  O  O343  1  0.41518271  0.41611105  0.62384375  1
  O  O344  1  0.40712385  0.42869090  0.98272080  1
  O  O345  1  0.40066537  0.89922113  0.28573540  1
  O  O346  1  0.41242223  0.91130764  0.62690062  1
  O  O347  1  0.41324997  0.91250487  0.96494832  1
  O  O348  1  0.93504406  0.41494382  0.29976189  1
  O  O349  1  0.90394967  0.39353264  0.62128694  1
  O  O350  1  0.91810578  0.40882198  0.96058281  1
  O  O351  1  0.91445908  0.91042739  0.29632012  1
  O  O352  1  0.91486113  0.91873503  0.63784485  1
  O  O353  1  0.91885072  0.91828038  0.96557204  1
  O  O354  1  0.08358616  0.08050779  0.20549504  1
  O  O355  1  0.08094416  0.08177824  0.54266368  1
  O  O356  1  0.08504505  0.08164149  0.87619172  1
  O  O357  1  0.08908579  0.58541037  0.21213535  1
  O  O358  1  0.08813658  0.57375122  0.53699533  1
  O  O359  1  0.08643813  0.58152095  0.87898352  1
  O  O360  1  0.59102064  0.09870919  0.20216170  1
  O  O361  1  0.59342736  0.08674045  0.53841671  1
  O  O362  1  0.59779485  0.08543664  0.88011875  1
  O  O363  1  0.58345470  0.58414272  0.19374698  1
  O  O364  1  0.58155796  0.58424483  0.52049777  1
  O  O365  1  0.58901435  0.58512303  0.86652422  1
  O  O366  1  0.13934495  0.21412792  0.05968392  1
  O  O367  1  0.13514637  0.21091810  0.38586106  1
  O  O368  1  0.13696468  0.21943911  0.72973411  1
  O  O369  1  0.13564048  0.72411622  0.06110054  1
  O  O370  1  0.13859362  0.71902259  0.38792785  1
  O  O371  1  0.13001567  0.71228533  0.71850028  1
  O  O372  1  0.64415568  0.22337727  0.06707864  1
  O  O373  1  0.64776777  0.22971549  0.39558884  1
  O  O374  1  0.64005663  0.21164848  0.71891325  1
  O  O375  1  0.63499200  0.72256757  0.05810698  1
  O  O376  1  0.63966693  0.73189974  0.39251181  1
  O  O377  1  0.64031044  0.72397284  0.72333897  1
  O  O378  1  0.25779099  0.36427828  0.10510632  1
  O  O379  1  0.28153934  0.36166558  0.44220723  1
  O  O380  1  0.27858107  0.36786676  0.77100311  1
  O  O381  1  0.27027245  0.85670582  0.10436379  1
  O  O382  1  0.27711368  0.85783046  0.44415222  1
  O  O383  1  0.28891893  0.86799115  0.78682945  1
  O  O384  1  0.77586753  0.36154223  0.11010251  1
  O  O385  1  0.78197323  0.36640830  0.44920675  1
  O  O386  1  0.77951179  0.36259915  0.77606216  1
  O  O387  1  0.78360251  0.86107482  0.10966018  1
  O  O388  1  0.78513155  0.85890985  0.44367591  1
  O  O389  1  0.78048153  0.86404374  0.77717684  1
  O  O390  1  0.36534422  0.27633259  0.27909691  1
  O  O391  1  0.36710455  0.28381941  0.61361996  1
  O  O392  1  0.36337671  0.28890670  0.95234714  1
  O  O393  1  0.36227523  0.76393022  0.27022896  1
  O  O394  1  0.35880766  0.77659040  0.60118634  1
  O  O395  1  0.36354170  0.77761761  0.94437534  1
  O  O396  1  0.86817167  0.28569325  0.27924188  1
  O  O397  1  0.86439165  0.26025051  0.60891943  1
  O  O398  1  0.85905254  0.27667907  0.93887244  1
  O  O399  1  0.85918919  0.77615253  0.27180871  1
  O  O400  1  0.85955732  0.78442879  0.61397544  1
  O  O401  1  0.86256483  0.78425952  0.94134188  1
  O  O402  1  0.21719015  0.13404598  0.22481707  1
  O  O403  1  0.21140270  0.13561124  0.55499507  1
  O  O404  1  0.21621657  0.14172138  0.89602048  1
  O  O405  1  0.22322784  0.63405832  0.22858281  1
  O  O406  1  0.21908347  0.63078408  0.55111069  1
  O  O407  1  0.21747801  0.63821463  0.89574066  1
  O  O408  1  0.72636483  0.14499525  0.22233254  1
  O  O409  1  0.72589368  0.14045469  0.56155082  1
  O  O410  1  0.73020555  0.13775189  0.89617590  1
  O  O411  1  0.72035103  0.63616610  0.22632729  1
  O  O412  1  0.71796627  0.64371821  0.55634895  1
  O  O413  1  0.72285888  0.64032524  0.88924331  1
  O  O414  1  0.49658348  0.34838242  0.03390874  1
  O  O415  1  0.49478782  0.34148060  0.36597802  1
  O  O416  1  0.50160013  0.34315218  0.69004182  1
  O  O417  1  0.49383858  0.83469930  0.03098942  1
  O  O418  1  0.48679446  0.83117326  0.36242599  1
  O  O419  1  0.48697725  0.82983770  0.69470055  1
  O  O420  1  0.98949596  0.32584758  0.02859006  1
  O  O421  1  1.00028819  0.32911087  0.36618429  1
  O  O422  1  0.99182551  0.32505846  0.69604367  1
  O  O423  1  0.99164933  0.83686889  0.03283054  1
  O  O424  1  0.98987456  0.82850988  0.36295015  1
  O  O425  1  0.99327369  0.83457937  0.69759332  1
  O  O426  1  0.15962472  0.00465572  0.13362721  1
  O  O427  1  0.15639995  0.00111445  0.47349100  1
  O  O428  1  0.16601601  0.00874467  0.80853874  1
  O  O429  1  0.16142690  0.50759829  0.13708658  1
  O  O430  1  0.16902341  0.49866454  0.46901102  1
  O  O431  1  0.16555000  0.50818542  0.80681036  1
  O  O432  1  0.66519436  0.01519303  0.13284446  1
  O  O433  1  0.67530528  0.00799525  0.47365308  1
  O  O434  1  0.67231285  0.01028078  0.80400626  1
  O  O435  1  0.66880082  0.50623907  0.13575323  1
  O  O436  1  0.67342035  0.51194672  0.46759466  1
  O  O437  1  0.67083293  0.50803288  0.80319880  1
  O  O438  1  0.00141942  0.16592891  0.30555020  1
  O  O439  1  0.00710577  0.16368563  0.63989913  1
  O  O440  1  0.00720769  0.16499166  0.97273500  1
  O  O441  1  0.00656564  0.66256545  0.30105173  1
  O  O442  1  -0.00565093  0.65510126  0.64234141  1
  O  O443  1  0.00643565  0.67001562  0.97018086  1
  O  O444  1  0.51810586  0.18137660  0.30417017  1
  O  O445  1  0.50845856  0.16360256  0.62930278  1
  O  O446  1  0.51074057  0.17898470  0.98148668  1
  O  O447  1  0.51344101  0.66662187  0.30166662  1
  O  O448  1  0.51146220  0.66356389  0.63406310  1
  O  O449  1  0.50681799  0.66660189  0.96580710  1
  O  O450  1  0.32121205  0.49095935  0.19686178  1
  O  O451  1  0.33451285  0.49375974  0.52919769  1
  O  O452  1  0.32744784  0.49664123  0.86371830  1
  O  O453  1  0.32404176  0.98635984  0.19445329  1
  O  O454  1  0.33071157  0.99110287  0.52832975  1
  O  O455  1  0.33640429  1.00194576  0.86758314  1
  O  O456  1  0.83909832  0.49321584  0.19455138  1
  O  O457  1  0.84620442  0.49586683  0.53822501  1
  O  O458  1  0.83851182  0.49172484  0.86863257  1
  O  O459  1  0.83071849  0.99328539  0.19748518  1
  O  O460  1  0.83958553  0.98955882  0.53007365  1
  O  O461  1  0.83745908  0.99387844  0.86468167  1
