# generated using pymatgen
data_Na31Fe20(SO4)36
_symmetry_space_group_name_H-M   'P 1'
_cell_length_a   18.07652641
_cell_length_b   18.07270195
_cell_length_c   19.72210334
_cell_angle_alpha   107.59464866
_cell_angle_beta   107.61213007
_cell_angle_gamma   90.71017599
_symmetry_Int_Tables_number   1
_chemical_formula_structural   Na31Fe20(SO4)36
_chemical_formula_sum   'Na62 Fe40 S72 O288'
_cell_volume   5815.38357962
_cell_formula_units_Z   2
loop_
 _symmetry_equiv_pos_site_id
 _symmetry_equiv_pos_as_xyz
  1  'x, y, z'
loop_
 _atom_site_type_symbol
 _atom_site_label
 _atom_site_symmetry_multiplicity
 _atom_site_fract_x
 _atom_site_fract_y
 _atom_site_fract_z
 _atom_site_occupancy
  Na  Na0  1  0.13208563  0.35967418  0.08552977  1
  Na  Na1  1  0.12980408  0.36063431  0.40548451  1
  Na  Na2  1  0.13290863  0.36672532  0.74937836  1
  Na  Na3  1  0.14154108  0.86155482  0.08792587  1
  Na  Na4  1  0.13699960  0.86840801  0.41604638  1
  Na  Na5  1  0.13701404  0.87001213  0.75626674  1
  Na  Na6  1  0.63857854  0.36721540  0.08760243  1
  Na  Na7  1  0.63077870  0.37118124  0.41781364  1
  Na  Na8  1  0.64261351  0.36592315  0.75083081  1
  Na  Na9  1  0.63813462  0.86397380  0.09003768  1
  Na  Na10  1  0.63154662  0.87606831  0.41599250  1
  Na  Na11  1  0.62351807  0.85588436  0.74295993  1
  Na  Na12  1  0.37311957  0.12840280  0.25502464  1
  Na  Na13  1  0.36714922  0.13057015  0.58629075  1
  Na  Na14  1  0.37109888  0.12159313  0.91965613  1
  Na  Na15  1  0.34540129  0.64859975  0.24957804  1
  Na  Na16  1  0.36867571  0.64892303  0.58774504  1
  Na  Na17  1  0.36157894  0.63617332  0.91463870  1
  Na  Na18  1  0.86841805  0.14306059  0.25636279  1
  Na  Na19  1  0.85081661  0.12588259  0.56198753  1
  Na  Na20  1  0.87830975  0.14076076  0.93327096  1
  Na  Na21  1  0.86319676  0.63686570  0.24651234  1
  Na  Na22  1  0.86597681  0.63911169  0.58894323  1
  Na  Na23  1  0.85971430  0.62989343  0.91112021  1
  Na  Na24  1  0.99056909  0.50063718  0.08481137  1
  Na  Na25  1  0.99676789  0.05923498  0.10068797  1
  Na  Na26  1  0.46257853  -0.01313811  0.74438643  1
  Na  Na27  1  0.98193500  0.00199437  0.76658333  1
  Na  Na28  1  0.49109212  0.51321405  0.08909362  1
  Na  Na29  1  0.52486973  0.49542293  0.72768212  1
  Na  Na30  1  0.97829376  0.51350254  0.75182257  1
  Na  Na31  1  0.99142635  0.51410637  0.41632527  1
  Na  Na32  1  0.46982285  0.00605054  0.07011950  1
  Na  Na33  1  0.01208824  0.48839616  0.92096377  1
  Na  Na34  1  0.02569793  0.99489357  0.57040128  1
  Na  Na35  1  0.50201157  0.53505745  0.55558297  1
  Na  Na36  1  0.50851048  0.49514869  0.91037647  1
  Na  Na37  1  0.00254227  1.00057427  0.26351930  1
  Na  Na38  1  0.50097821  0.98772300  0.57194663  1
  Na  Na39  1  0.00300795  0.44494676  0.23313336  1
  Na  Na40  1  0.48256258  0.51086147  0.27427669  1
  Na  Na41  1  0.00553131  0.48919781  0.58357541  1
  Na  Na42  1  0.23919252  0.24048829  0.33665773  1
  Na  Na43  1  0.74327234  0.74206013  0.01233192  1
  Na  Na44  1  0.75267237  0.25405535  0.65800907  1
  Na  Na45  1  0.28763016  0.78666334  0.66727304  1
  Na  Na46  1  0.24484275  0.24094333  0.00770143  1
  Na  Na47  1  0.74631496  0.24429913  0.00675345  1
  Na  Na48  1  0.75788858  0.76284038  0.32240959  1
  Na  Na49  1  0.25889432  0.76029111  -0.00184563  1
  Na  Na50  1  0.24516741  0.24643017  0.67225999  1
  Na  Na51  1  0.72363891  0.72660836  0.66754539  1
  Na  Na52  1  0.74720566  0.24001310  0.17786156  1
  Na  Na53  1  0.73382499  0.73309446  0.83576410  1
  Na  Na54  1  0.23353933  0.23470824  0.17587446  1
  Na  Na55  1  0.24478517  0.24439958  0.50309434  1
  Na  Na56  1  0.27744866  0.77645838  0.83035433  1
  Na  Na57  1  0.24938554  0.24397444  0.84033681  1
  Na  Na58  1  0.74968876  0.25134940  0.48140851  1
  Na  Na59  1  0.26404820  0.76599260  0.48558269  1
  Na  Na60  1  0.73877112  0.74658089  0.50217179  1
  Na  Na61  1  0.75337145  0.24734657  0.83715330  1
  Fe  Fe62  1  0.46814605  0.79880147  0.45226440  1
  Fe  Fe63  1  0.46538068  0.30651291  0.78394069  1
  Fe  Fe64  1  0.96363623  0.81058787  0.12288230  1
  Fe  Fe65  1  0.96716737  0.80554350  0.45092019  1
  Fe  Fe66  1  0.96613715  0.30508243  0.78444027  1
  Fe  Fe67  1  0.96389813  0.30506122  0.44618202  1
  Fe  Fe68  1  0.46345478  0.31014766  0.45371233  1
  Fe  Fe69  1  0.46591182  0.81556974  0.12815302  1
  Fe  Fe70  1  0.96444609  0.80894668  0.79102254  1
  Fe  Fe71  1  0.46591866  0.30982070  0.12148367  1
  Fe  Fe72  1  0.19124674  0.53715402  0.71779023  1
  Fe  Fe73  1  0.20335718  0.02953233  0.70988042  1
  Fe  Fe74  1  0.69214971  0.03406670  0.71253707  1
  Fe  Fe75  1  0.68595580  0.02924163  0.04207672  1
  Fe  Fe76  1  0.19376954  0.53818448  0.05487000  1
  Fe  Fe77  1  0.19247542  0.53792585  0.38223969  1
  Fe  Fe78  1  0.69221000  0.53569722  0.38004837  1
  Fe  Fe79  1  0.69130280  0.53958063  0.05103390  1
  Fe  Fe80  1  0.19854391  0.02979340  0.37837306  1
  Fe  Fe81  1  0.20061056  0.02836429  0.03901191  1
  Fe  Fe82  1  0.03740806  0.69325166  0.21838130  1
  Fe  Fe83  1  0.03299919  0.69302808  0.88751283  1
  Fe  Fe84  1  0.53636586  0.69656735  0.21655203  1
  Fe  Fe85  1  0.53472937  0.19076853  0.87944601  1
  Fe  Fe86  1  0.53037978  0.69466950  0.87588089  1
  Fe  Fe87  1  0.53756835  0.18596947  0.54039967  1
  Fe  Fe88  1  0.03728069  0.19472953  0.88111828  1
  Fe  Fe89  1  0.03603267  0.19001864  0.54078574  1
  Fe  Fe90  1  0.53886274  0.19150438  0.22021334  1
  Fe  Fe91  1  0.03248908  0.69479889  0.55237533  1
  Fe  Fe92  1  0.80532109  0.46520713  0.95175046  1
  Fe  Fe93  1  0.80519274  0.96688592  0.61585684  1
  Fe  Fe94  1  0.31462414  0.95754511  0.28634980  1
  Fe  Fe95  1  0.79843616  0.46829662  0.61824246  1
  Fe  Fe96  1  0.30695122  0.46887079  0.28788994  1
  Fe  Fe97  1  0.30478206  0.46860241  0.61970991  1
  Fe  Fe98  1  0.79950551  0.96968387  0.28896815  1
  Fe  Fe99  1  0.80528982  0.46425675  0.28406089  1
  Fe  Fe100  1  0.30723173  0.46899260  0.95351073  1
  Fe  Fe101  1  0.80356883  0.96006891  0.95214736  1
  S  S102  1  0.36297284  0.14632058  0.08773260  1
  S  S103  1  0.35989644  0.14194453  0.41907212  1
  S  S104  1  0.36162284  0.14460293  0.75121521  1
  S  S105  1  0.36087858  0.64138449  0.08518528  1
  S  S106  1  0.36003961  0.63724299  0.41622042  1
  S  S107  1  0.35671913  0.63908976  0.75284557  1
  S  S108  1  0.85107043  0.13617551  0.07765584  1
  S  S109  1  0.86235759  0.14002612  0.41623499  1
  S  S110  1  0.86181844  0.13880549  0.75002708  1
  S  S111  1  0.86281235  0.63886465  0.08427028  1
  S  S112  1  0.85988901  0.64043715  0.41581521  1
  S  S113  1  0.86215692  0.64042677  0.75107617  1
  S  S114  1  0.14594769  0.36250638  0.25053715  1
  S  S115  1  0.13742235  0.36331635  0.58388302  1
  S  S116  1  0.14199717  0.36226389  0.91663636  1
  S  S117  1  0.13980708  0.85799885  0.24953510  1
  S  S118  1  0.13882608  0.85671399  0.58580156  1
  S  S119  1  0.13988287  0.85381701  0.91752623  1
  S  S120  1  0.63928027  0.35971573  0.24803125  1
  S  S121  1  0.63686646  0.35946260  0.58441941  1
  S  S122  1  0.63813416  0.36029715  0.91603651  1
  S  S123  1  0.64248276  0.85804168  0.25011333  1
  S  S124  1  0.64044302  0.86110958  0.57921869  1
  S  S125  1  0.64177037  0.85349669  0.91609039  1
  S  S126  1  0.07603486  0.16468219  0.03888243  1
  S  S127  1  0.07060038  0.17034327  0.37523540  1
  S  S128  1  0.07221491  0.17183478  0.70747950  1
  S  S129  1  0.06493228  0.66421723  0.04267709  1
  S  S130  1  0.06559520  0.66838319  0.37803646  1
  S  S131  1  0.06702609  0.66495143  0.71226545  1
  S  S132  1  0.56813530  0.17442138  0.04462725  1
  S  S133  1  0.56673953  0.17649099  0.38171795  1
  S  S134  1  0.56903497  0.17322632  0.71009709  1
  S  S135  1  0.56506343  0.66560520  0.03960988  1
  S  S136  1  0.56651484  0.67255342  0.37282822  1
  S  S137  1  0.56299493  0.65982876  0.70794999  1
  S  S138  1  0.33082075  0.43576133  0.12389306  1
  S  S139  1  0.32791597  0.43422887  0.45938433  1
  S  S140  1  0.32885652  0.43156932  0.79119382  1
  S  S141  1  0.33303021  0.93638360  0.12580053  1
  S  S142  1  0.33456883  0.93275418  0.45641047  1
  S  S143  1  0.32785992  0.93686682  0.79306190  1
  S  S144  1  0.82750620  0.43748171  0.12032021  1
  S  S145  1  0.83238569  0.43481598  0.45991795  1
  S  S146  1  0.83430433  0.43078625  0.79074507  1
  S  S147  1  0.82969032  0.93307850  0.12600657  1
  S  S148  1  0.83767012  0.92877570  0.45899176  1
  S  S149  1  0.82368882  0.92737886  0.78713640  1
  S  S150  1  0.43033874  0.33067332  0.28950143  1
  S  S151  1  0.42958780  0.33314275  0.62471731  1
  S  S152  1  0.43502007  0.33775419  0.96016674  1
  S  S153  1  0.43252721  0.82711177  0.29164704  1
  S  S154  1  0.43953867  0.83498894  0.61526643  1
  S  S155  1  0.43776444  0.82291931  0.96179752  1
  S  S156  1  0.93230114  0.33759893  0.29192028  1
  S  S157  1  0.93117205  0.33179662  0.62294940  1
  S  S158  1  0.93702624  0.33379934  0.95658520  1
  S  S159  1  0.93221726  0.83029876  0.29102767  1
  S  S160  1  0.92991983  0.83133890  0.62614287  1
  S  S161  1  0.92661566  0.82369910  0.95712708  1
  S  S162  1  0.17286370  0.05825576  0.20997809  1
  S  S163  1  0.17308920  0.06882865  0.54347853  1
  S  S164  1  0.17180526  0.07058942  0.87073763  1
  S  S165  1  0.16338240  0.56492020  0.20657411  1
  S  S166  1  0.16738514  0.56995648  0.54468784  1
  S  S167  1  0.16636499  0.56576322  0.87876936  1
  S  S168  1  0.66933061  0.06656440  0.20350162  1
  S  S169  1  0.67040019  0.06697487  0.54517981  1
  S  S170  1  0.66620804  0.06440087  0.87216008  1
  S  S171  1  0.66892634  0.56687662  0.21031947  1
  S  S172  1  0.67553915  0.56906080  0.53918236  1
  S  S173  1  0.66695314  0.56458486  0.87810790  1
  O  O174  1  0.37070558  0.22746205  0.08120596  1
  O  O175  1  0.36367873  0.22107034  0.40908819  1
  O  O176  1  0.36889860  0.22541207  0.74406902  1
  O  O177  1  0.37062480  0.72063521  0.07939376  1
  O  O178  1  0.37203056  0.71781208  0.41029273  1
  O  O179  1  0.36006204  0.71726859  0.74669128  1
  O  O180  1  0.86379790  0.20966729  0.06379760  1
  O  O181  1  0.87452657  0.21846111  0.40663856  1
  O  O182  1  0.87070181  0.21758826  0.74106246  1
  O  O183  1  0.87349375  0.71665434  0.07469855  1
  O  O184  1  0.87084201  0.71820826  0.40654151  1
  O  O185  1  0.87606611  0.71749708  0.74001206  1
  O  O186  1  0.28153373  0.13572359  0.09010582  1
  O  O187  1  0.28024442  0.13002416  0.42648455  1
  O  O188  1  0.27891642  0.13452589  0.75155931  1
  O  O189  1  0.28343958  0.62960259  0.09417385  1
  O  O190  1  0.27782272  0.63122309  0.41951262  1
  O  O191  1  0.28180341  0.62345936  0.76793560  1
  O  O192  1  0.76683593  0.12721851  0.07628495  1
  O  O193  1  0.78854552  0.13298456  0.43056254  1
  O  O194  1  0.78408135  0.13108899  0.76045445  1
  O  O195  1  0.78465870  0.63177462  0.09324718  1
  O  O196  1  0.78086454  0.63289527  0.42305584  1
  O  O197  1  0.78530963  0.63461262  0.75953242  1
  O  O198  1  0.14115665  0.28653703  0.26168057  1
  O  O199  1  0.12945194  0.28519523  0.59397205  1
  O  O200  1  0.13480040  0.28267534  0.92355208  1
  O  O201  1  0.12776869  0.78245675  0.26254804  1
  O  O202  1  0.12092896  0.78296038  0.60088037  1
  O  O203  1  0.12479661  0.77682532  0.92991068  1
  O  O204  1  0.63114246  0.28006745  0.25280352  1
  O  O205  1  0.62684363  0.27705838  0.58713529  1
  O  O206  1  0.63014980  0.28048330  0.92279034  1
  O  O207  1  0.63361749  0.77406172  0.25011802  1
  O  O208  1  0.63968907  0.78464917  0.58906855  1
  O  O209  1  0.63199300  0.77180484  0.92359051  1
  O  O210  1  0.22609066  0.37514852  0.24286500  1
  O  O211  1  0.21609258  0.37197505  0.57523575  1
  O  O212  1  0.22053059  0.37256215  0.90787514  1
  O  O213  1  0.21663020  0.86592933  0.23978451  1
  O  O214  1  0.21698513  0.85783395  0.57973978  1
  O  O215  1  0.21577347  0.85590143  0.90632754  1
  O  O216  1  0.71694625  0.37030103  0.23703453  1
  O  O217  1  0.71661724  0.36626961  0.57535425  1
  O  O218  1  0.71665088  0.36950339  0.90666650  1
  O  O219  1  0.72114622  0.86792870  0.24091812  1
  O  O220  1  0.71655526  0.87759696  0.56676104  1
  O  O221  1  0.72491825  0.86064518  0.91489011  1
  O  O222  1  0.41867450  0.14193853  0.15938863  1
  O  O223  1  0.41803227  0.14081965  0.49039646  1
  O  O224  1  0.41502231  0.14390816  0.82547663  1
  O  O225  1  0.42228058  0.62905200  0.14999970  1
  O  O226  1  0.41457155  0.62393516  0.48118650  1
  O  O227  1  0.42019757  0.62975461  0.81907065  1
  O  O228  1  0.90312294  0.12974035  0.14821529  1
  O  O229  1  0.92616462  0.13265019  0.48298796  1
  O  O230  1  0.92226136  0.13048169  0.81743556  1
  O  O231  1  0.92297859  0.62950870  0.15133837  1
  O  O232  1  0.91870201  0.63206485  0.48463157  1
  O  O233  1  0.92280854  0.63069382  0.81900884  1
  O  O234  1  0.37739342  0.08939861  0.02413417  1
  O  O235  1  0.37045003  0.08265087  0.35384652  1
  O  O236  1  0.37880625  0.08706291  0.68997192  1
  O  O237  1  0.36739566  0.58310827  0.01460146  1
  O  O238  1  0.36520893  0.58124893  0.34394105  1
  O  O239  1  0.36215673  0.58028965  0.68331981  1
  O  O240  1  0.86335566  0.07106993  0.01298138  1
  O  O241  1  0.86726789  0.08013877  0.34722098  1
  O  O242  1  0.86996636  0.07932863  0.68239110  1
  O  O243  1  0.87006931  0.57796590  0.01605377  1
  O  O244  1  0.86869963  0.57961979  0.34900605  1
  O  O245  1  0.87207427  0.57867320  0.68466115  1
  O  O246  1  0.08747323  0.37018831  0.18385629  1
  O  O247  1  0.07744006  0.37188056  0.51682773  1
  O  O248  1  0.08198278  0.36996909  0.84859169  1
  O  O249  1  0.07896220  0.86359238  0.18031967  1
  O  O250  1  0.08081508  0.86364460  0.51550319  1
  O  O251  1  0.07806761  0.86098133  0.84958706  1
  O  O252  1  0.57896953  0.37056541  0.18151769  1
  O  O253  1  0.57865542  0.37015167  0.51688765  1
  O  O254  1  0.57853245  0.36921486  0.84825440  1
  O  O255  1  0.58280807  0.86545645  0.18174049  1
  O  O256  1  0.57807744  0.86561497  0.50962965  1
  O  O257  1  0.58752105  0.86051270  0.84848966  1
  O  O258  1  0.13751254  0.42429997  0.31920105  1
  O  O259  1  0.12928472  0.42336944  0.65200704  1
  O  O260  1  0.13274497  0.42074666  0.98424117  1
  O  O261  1  0.12964305  0.92138561  0.31529413  1
  O  O262  1  0.12931847  0.92297982  0.64965234  1
  O  O263  1  0.13589971  0.91534679  0.98560373  1
  O  O264  1  0.63308084  0.41769546  0.31716312  1
  O  O265  1  0.63146373  0.41418115  0.65351326  1
  O  O266  1  0.62915443  0.41845252  0.98368800  1
  O  O267  1  0.63628236  0.91140321  0.31875095  1
  O  O268  1  0.62920002  0.92232941  0.64459017  1
  O  O269  1  0.63545118  0.91019714  0.98618166  1
  O  O270  1  0.04219070  0.17966870  0.09899204  1
  O  O271  1  0.03973070  0.20606611  0.44093185  1
  O  O272  1  0.03431772  0.19898377  0.76787291  1
  O  O273  1  0.03337855  0.69649611  0.10612395  1
  O  O274  1  0.02917917  0.69847018  0.43953571  1
  O  O275  1  0.03306437  0.69518178  0.77415502  1
  O  O276  1  0.52989729  0.20359496  0.10433823  1
  O  O277  1  0.52210668  0.20911289  0.43822454  1
  O  O278  1  0.53143901  0.20223834  0.77109275  1
  O  O279  1  0.52867318  0.69428073  0.09962125  1
  O  O280  1  0.53003090  0.70349495  0.43216094  1
  O  O281  1  0.53590109  0.68154486  0.77665458  1
  O  O282  1  0.29993042  0.47113053  0.06196647  1
  O  O283  1  0.29933553  0.47034911  0.39829243  1
  O  O284  1  0.29649552  0.46321520  0.72767321  1
  O  O285  1  0.30391892  0.97738394  0.06983896  1
  O  O286  1  0.30106121  0.96063543  0.38858958  1
  O  O287  1  0.29795458  0.97571379  0.73172006  1
  O  O288  1  0.78897740  0.47212810  0.05847607  1
  O  O289  1  0.80105045  0.46984955  0.39798592  1
  O  O290  1  0.81151916  0.46311573  0.72868747  1
  O  O291  1  0.79879434  0.96890847  0.06481335  1
  O  O292  1  0.81584895  0.96106977  0.39702825  1
  O  O293  1  0.79678203  0.96683536  0.72770521  1
  O  O294  1  0.47175473  0.30203059  0.23230977  1
  O  O295  1  0.46365030  0.30430894  0.56316987  1
  O  O296  1  0.47032035  0.30696573  0.89898390  1
  O  O297  1  0.47259620  0.79816954  0.23209309  1
  O  O298  1  0.47265010  0.80033292  0.55171492  1
  O  O299  1  0.47539370  0.78737423  0.90255967  1
  O  O300  1  0.96529123  0.31912693  0.23140327  1
  O  O301  1  0.96767832  0.30343442  0.56258037  1
  O  O302  1  0.96983079  0.30047041  0.89180283  1
  O  O303  1  0.96706483  0.79587245  0.22855390  1
  O  O304  1  0.96423794  0.80024401  0.56383060  1
  O  O305  1  0.96435834  0.79477181  0.89650722  1
  O  O306  1  0.21352654  0.02351843  0.27097481  1
  O  O307  1  0.19554978  0.03302857  0.60392086  1
  O  O308  1  0.19536364  0.03332482  0.92887598  1
  O  O309  1  0.19761160  0.53369564  0.27036949  1
  O  O310  1  0.19746034  0.53385468  0.60615316  1
  O  O311  1  0.19853392  0.53100595  0.94074881  1
  O  O312  1  0.69871198  0.03204538  0.26374606  1
  O  O313  1  0.70685408  0.03858386  0.61287526  1
  O  O314  1  0.69270760  0.02385592  0.93002162  1
  O  O315  1  0.69889504  0.52913968  0.27058167  1
  O  O316  1  0.70582739  0.53198549  0.59855121  1
  O  O317  1  0.69925465  0.53287523  0.94317325  1
  O  O318  1  0.10014297  0.08398040  0.02194445  1
  O  O319  1  0.09575927  0.09224859  0.37733293  1
  O  O320  1  0.09449148  0.09158514  0.70094266  1
  O  O321  1  0.08155598  0.58108291  0.03902961  1
  O  O322  1  0.08074075  0.58563486  0.37312445  1
  O  O323  1  0.07878056  0.57982692  0.70456066  1
  O  O324  1  0.58506802  0.09329424  0.03835782  1
  O  O325  1  0.59183260  0.10351048  0.38887961  1
  O  O326  1  0.58548074  0.09129609  0.70337238  1
  O  O327  1  0.57918584  0.58116312  0.03402097  1
  O  O328  1  0.58870871  0.59277409  0.37167781  1
  O  O329  1  0.58479223  0.57957996  0.69439482  1
  O  O330  1  0.41414162  0.42170453  0.13043911  1
  O  O331  1  0.40982613  0.41647805  0.46668707  1
  O  O332  1  0.41097600  0.41457029  0.79711273  1
  O  O333  1  0.41383780  0.91812284  0.12601097  1
  O  O334  1  0.40770533  0.89495367  0.45035736  1
  O  O335  1  0.40080932  0.90763851  0.78465571  1
  O  O336  1  0.90830324  0.42905046  0.12101455  1
  O  O337  1  0.91495517  0.41796042  0.46356871  1
  O  O338  1  0.91943756  0.41615694  0.80457635  1
  O  O339  1  0.91330361  0.91868351  0.13307386  1
  O  O340  1  0.92142190  0.91075190  0.47431174  1
  O  O341  1  0.90558712  0.90995378  0.79145381  1
  O  O342  1  0.41001856  0.41073881  0.28957658  1
  O  O343  1  0.41031947  0.41501775  0.63158349  1
  O  O344  1  0.41934412  0.42105895  0.96477836  1
  O  O345  1  0.42014814  0.90929189  0.29915439  1
  O  O346  1  0.42412991  0.91575314  0.61726344  1
  O  O347  1  0.42283082  0.90172903  0.96307005  1
  O  O348  1  0.91254692  0.42261968  0.30647975  1
  O  O349  1  0.91498305  0.41463715  0.63010216  1
  O  O350  1  0.91531956  0.41470566  0.95601552  1
  O  O351  1  0.91264898  0.90939751  0.29037848  1
  O  O352  1  0.91512495  0.91456060  0.63428992  1
  O  O353  1  0.90705751  0.90368626  0.96158876  1
  O  O354  1  0.09186433  0.06441315  0.21025101  1
  O  O355  1  0.09020976  0.08634320  0.53252374  1
  O  O356  1  0.08921908  0.09070332  0.85804600  1
  O  O357  1  0.08033831  0.57924737  0.20236716  1
  O  O358  1  0.08375622  0.58428993  0.53945173  1
  O  O359  1  0.08264508  0.57823437  0.87278562  1
  O  O360  1  0.58806559  0.08811924  0.19788127  1
  O  O361  1  0.58958333  0.08471031  0.54703113  1
  O  O362  1  0.58498025  0.08454342  0.86559161  1
  O  O363  1  0.58762059  0.58517608  0.20621452  1
  O  O364  1  0.59831589  0.59187222  0.53595120  1
  O  O365  1  0.58725594  0.58913730  0.87899921  1
  O  O366  1  0.14462135  0.22343546  0.05755014  1
  O  O367  1  0.14007550  0.22480793  0.38877431  1
  O  O368  1  0.14194095  0.22822465  0.72677869  1
  O  O369  1  0.13457394  0.71205282  0.05038241  1
  O  O370  1  0.13680291  0.71888994  0.39404483  1
  O  O371  1  0.14016581  0.71125337  0.72618441  1
  O  O372  1  0.63963879  0.22812122  0.06318557  1
  O  O373  1  0.63036987  0.23756248  0.39649901  1
  O  O374  1  0.64168671  0.22536356  0.72994441  1
  O  O375  1  0.63759881  0.71320905  0.05427920  1
  O  O376  1  0.63553845  0.72533766  0.38411350  1
  O  O377  1  0.63171081  0.71729502  0.72565384  1
  O  O378  1  0.28099700  0.36379378  0.10781927  1
  O  O379  1  0.27561661  0.36324245  0.44370710  1
  O  O380  1  0.27811690  0.36095264  0.77931981  1
  O  O381  1  0.28151233  0.86437373  0.10797113  1
  O  O382  1  0.27514273  0.87557599  0.45433437  1
  O  O383  1  0.26749768  0.86927975  0.77368823  1
  O  O384  1  0.78056790  0.36349016  0.10567865  1
  O  O385  1  0.78225011  0.36469169  0.44757378  1
  O  O386  1  0.78488946  0.35732788  0.77470130  1
  O  O387  1  0.78085671  0.85988797  0.10884105  1
  O  O388  1  0.78550198  0.85772052  0.44359577  1
  O  O389  1  0.77152914  0.85559284  0.76819856  1
  O  O390  1  0.36015119  0.27697998  0.27258778  1
  O  O391  1  0.35950546  0.28095404  0.61209664  1
  O  O392  1  0.36283574  0.28873458  0.94625645  1
  O  O393  1  0.36073884  0.77713811  0.27224949  1
  O  O394  1  0.36566411  0.78346804  0.59639345  1
  O  O395  1  0.36471500  0.77104959  0.94441475  1
  O  O396  1  0.86244138  0.28572084  0.27889569  1
  O  O397  1  0.85957150  0.28025474  0.60663398  1
  O  O398  1  0.86593329  0.28222658  0.94220237  1
  O  O399  1  0.86411828  0.77707026  0.27973461  1
  O  O400  1  0.85758197  0.78138361  0.61023132  1
  O  O401  1  0.85721381  0.76856891  0.94000856  1
  O  O402  1  0.21838377  0.13480760  0.22772926  1
  O  O403  1  0.22522874  0.14206888  0.56348355  1
  O  O404  1  0.22572387  0.14256447  0.88994976  1
  O  O405  1  0.20974158  0.63510892  0.21417127  1
  O  O406  1  0.21662802  0.64194672  0.55995528  1
  O  O407  1  0.21439511  0.63845083  0.89378910  1
  O  O408  1  0.72217784  0.13499348  0.21389257  1
  O  O409  1  0.71905713  0.14011994  0.55870558  1
  O  O410  1  0.72056611  0.13569816  0.89190313  1
  O  O411  1  0.72230843  0.63577273  0.22557361  1
  O  O412  1  0.73160367  0.63807945  0.55363451  1
  O  O413  1  0.72083744  0.63332819  0.89097181  1
  O  O414  1  0.49407656  0.34143079  0.03328196  1
  O  O415  1  0.48719661  0.33690192  0.36422224  1
  O  O416  1  0.49133434  0.33799047  0.69757997  1
  O  O417  1  0.49444242  0.82266792  0.03555731  1
  O  O418  1  0.49118416  0.82318443  0.36347130  1
  O  O419  1  0.49583646  0.83504002  0.68595117  1
  O  O420  1  0.99818438  0.34224235  0.02695880  1
  O  O421  1  0.99331778  0.33957365  0.36520340  1
  O  O422  1  0.99022576  0.33341916  0.69619455  1
  O  O423  1  0.98674171  0.82517039  0.02898946  1
  O  O424  1  0.99455883  0.83539422  0.36328408  1
  O  O425  1  0.98998711  0.83156664  0.69788868  1
  O  O426  1  0.17368789  0.00549120  0.13571024  1
  O  O427  1  0.17808514  0.01129006  0.47336996  1
  O  O428  1  0.17161735  0.01341851  0.79714382  1
  O  O429  1  0.15971675  0.50107930  0.13501262  1
  O  O430  1  0.16438273  0.51001677  0.47208102  1
  O  O431  1  0.16579510  0.50627853  0.80672044  1
  O  O432  1  0.66148422  0.00457093  0.12934791  1
  O  O433  1  0.66811907  0.00581684  0.47756978  1
  O  O434  1  0.66483098  0.00741279  0.79866272  1
  O  O435  1  0.66336501  0.50686389  0.13661917  1
  O  O436  1  0.67299472  0.50836466  0.46556047  1
  O  O437  1  0.65699754  0.50144011  0.80824272  1
  O  O438  1  0.00776482  0.16138953  0.30561087  1
  O  O439  1  0.01316459  0.16974115  0.63514428  1
  O  O440  1  0.01573490  0.16932207  0.96795883  1
  O  O441  1  0.00613392  0.66689571  0.30583369  1
  O  O442  1  0.00668360  0.66351063  0.63987383  1
  O  O443  1  0.00118981  0.65658891  0.97029291  1
  O  O444  1  0.50807639  0.16880160  0.30607435  1
  O  O445  1  0.51139032  0.17503363  0.63875049  1
  O  O446  1  0.51060146  0.17557880  0.97207786  1
  O  O447  1  0.50507086  0.66125424  0.29793671  1
  O  O448  1  0.49827788  0.66262750  0.64308949  1
  O  O449  1  0.50646714  0.66148625  0.96518035  1
  O  O450  1  0.33205361  0.49586026  0.19567600  1
  O  O451  1  0.32918658  0.49478356  0.53115701  1
  O  O452  1  0.33169586  0.49355132  0.86267505  1
  O  O453  1  0.33930478  0.99070477  0.20226227  1
  O  O454  1  0.35791966  1.00207363  0.52306594  1
  O  O455  1  0.33634702  0.99380372  0.86582219  1
  O  O456  1  0.82735231  0.49451245  0.19366000  1
  O  O457  1  0.83892777  0.49579958  0.53327024  1
  O  O458  1  0.82923270  0.49009792  0.86075663  1
  O  O459  1  0.83044718  0.99156692  0.19821766  1
  O  O460  1  0.83610588  0.99030433  0.52957221  1
  O  O461  1  0.82560819  0.98491719  0.85997440  1
