# generated using pymatgen
data_Na31Fe20(SO4)36
_symmetry_space_group_name_H-M   'P 1'
_cell_length_a   18.06574062
_cell_length_b   18.06336831
_cell_length_c   19.69087991
_cell_angle_alpha   107.59411890
_cell_angle_beta   107.60097265
_cell_angle_gamma   90.68142258
_symmetry_Int_Tables_number   1
_chemical_formula_structural   Na31Fe20(SO4)36
_chemical_formula_sum   'Na62 Fe40 S72 O288'
_cell_volume   5800.50935020
_cell_formula_units_Z   2
loop_
 _symmetry_equiv_pos_site_id
 _symmetry_equiv_pos_as_xyz
  1  'x, y, z'
loop_
 _atom_site_type_symbol
 _atom_site_label
 _atom_site_symmetry_multiplicity
 _atom_site_fract_x
 _atom_site_fract_y
 _atom_site_fract_z
 _atom_site_occupancy
  Na  Na0  1  0.12236390  0.36528194  0.08020493  1
  Na  Na1  1  0.13524147  0.37018157  0.41903885  1
  Na  Na2  1  0.14039783  0.36607948  0.75667753  1
  Na  Na3  1  0.13694395  0.87166441  0.09293508  1
  Na  Na4  1  0.13134959  0.84925460  0.40397807  1
  Na  Na5  1  0.12978922  0.85944958  0.74979685  1
  Na  Na6  1  0.64544713  0.36266311  0.08180063  1
  Na  Na7  1  0.63890698  0.36643324  0.41849823  1
  Na  Na8  1  0.64889428  0.37042787  0.77099817  1
  Na  Na9  1  0.63483297  0.85134816  0.07469043  1
  Na  Na10  1  0.62661532  0.86225584  0.40889267  1
  Na  Na11  1  0.63075929  0.88909384  0.75252986  1
  Na  Na12  1  0.35727190  0.13412063  0.24472338  1
  Na  Na13  1  0.37899913  0.12106905  0.58347716  1
  Na  Na14  1  0.36645199  0.13214551  0.91110597  1
  Na  Na15  1  0.35688968  0.63137191  0.24593523  1
  Na  Na16  1  0.36005828  0.63895809  0.58033530  1
  Na  Na17  1  0.36519783  0.63313547  0.91756163  1
  Na  Na18  1  0.86851491  0.12840006  0.24713426  1
  Na  Na19  1  0.86744463  0.13296404  0.58576648  1
  Na  Na20  1  0.87109949  0.13038096  0.91709892  1
  Na  Na21  1  0.85697271  0.63242496  0.23250267  1
  Na  Na22  1  0.87289302  0.65092974  0.60199820  1
  Na  Na23  1  0.85789086  0.65215147  0.92753770  1
  Na  Na24  1  0.98160952  -0.00084515  0.11417312  1
  Na  Na25  1  0.92915105  0.49838448  0.05388044  1
  Na  Na26  1  0.51318365  0.49146556  0.07620749  1
  Na  Na27  1  0.50238985  -0.00399290  0.07997449  1
  Na  Na28  1  0.98302374  -0.00468276  0.75676391  1
  Na  Na29  1  1.02507255  -0.00880122  0.37780556  1
  Na  Na30  1  0.98604172  0.51378628  0.41586028  1
  Na  Na31  1  0.48935792  0.50956027  0.75271452  1
  Na  Na32  1  0.48726137  0.51774997  0.41680283  1
  Na  Na33  1  -0.01456088  0.50670298  0.60247699  1
  Na  Na34  1  0.00774731  0.95155184  0.91657628  1
  Na  Na35  1  0.45982679  1.01205681  0.30850790  1
  Na  Na36  1  -0.02510638  0.54638751  0.87762431  1
  Na  Na37  1  0.01363463  0.49052306  0.23868134  1
  Na  Na38  1  0.51636495  0.49020391  0.58558747  1
  Na  Na39  1  0.57056492  0.50359303  0.93729298  1
  Na  Na40  1  0.00547556  0.98866121  0.57963041  1
  Na  Na41  1  0.50908752  0.49264951  0.24656596  1
  Na  Na42  1  0.78381341  0.28066878  0.00206067  1
  Na  Na43  1  0.74259396  0.23514622  0.67724999  1
  Na  Na44  1  0.25324482  0.75749900  0.65856672  1
  Na  Na45  1  0.75517303  0.25227957  0.32992131  1
  Na  Na46  1  0.24509727  0.24086761  0.67875030  1
  Na  Na47  1  0.23608021  0.74636322  0.00680384  1
  Na  Na48  1  0.23437792  0.74049388  0.34202831  1
  Na  Na49  1  0.76163454  0.76172493  0.66672199  1
  Na  Na50  1  0.25603454  0.25397296  -0.01073008  1
  Na  Na51  1  0.24318713  0.24617361  0.33823999  1
  Na  Na52  1  0.23067092  0.73845145  0.83878265  1
  Na  Na53  1  0.25017383  0.24286776  0.50924939  1
  Na  Na54  1  0.74513912  0.24082670  0.50520322  1
  Na  Na55  1  0.24693365  0.25043361  0.16348526  1
  Na  Na56  1  0.74395357  0.74437951  0.16593496  1
  Na  Na57  1  0.75690679  0.76105086  0.48576789  1
  Na  Na58  1  0.23170777  0.75236018  0.17912302  1
  Na  Na59  1  0.74337554  0.23299112  0.83575617  1
  Na  Na60  1  0.76543563  0.25639106  0.15893898  1
  Na  Na61  1  0.75511610  0.75347692  0.83205889  1
  Fe  Fe62  1  0.46697291  0.30493194  0.11387683  1
  Fe  Fe63  1  0.46741340  0.30732383  0.78631639  1
  Fe  Fe64  1  0.46597105  0.80972811  0.78608787  1
  Fe  Fe65  1  0.46706179  0.30814923  0.45189953  1
  Fe  Fe66  1  0.46165042  0.81378103  0.45612395  1
  Fe  Fe67  1  0.45986653  0.80916026  0.12187927  1
  Fe  Fe68  1  0.96745829  0.79855625  0.12611469  1
  Fe  Fe69  1  0.96644029  0.30846731  0.45473095  1
  Fe  Fe70  1  0.96346308  0.80348526  0.44837729  1
  Fe  Fe71  1  0.96534556  0.31389548  0.78818575  1
  Fe  Fe72  1  0.19592907  0.03529778  0.71395842  1
  Fe  Fe73  1  0.19440754  0.53356951  0.71549321  1
  Fe  Fe74  1  0.69598442  0.53523269  0.71955165  1
  Fe  Fe75  1  0.19546498  0.03180730  0.04589376  1
  Fe  Fe76  1  0.18912056  0.54042182  0.38011411  1
  Fe  Fe77  1  0.69132287  0.53749863  0.38228400  1
  Fe  Fe78  1  0.20231249  0.03388722  0.37410575  1
  Fe  Fe79  1  0.69078327  0.03233076  0.37760372  1
  Fe  Fe80  1  0.18230582  0.53647744  0.04325011  1
  Fe  Fe81  1  0.69119975  0.03359647  0.04587218  1
  Fe  Fe82  1  0.03556111  0.19003073  0.54533068  1
  Fe  Fe83  1  0.53585217  0.69517421  0.55067326  1
  Fe  Fe84  1  0.53563972  0.19253195  0.21281187  1
  Fe  Fe85  1  0.53821609  0.19045689  0.54961814  1
  Fe  Fe86  1  0.03019053  0.20259319  0.20659179  1
  Fe  Fe87  1  0.53524821  0.69578617  0.88513851  1
  Fe  Fe88  1  0.53210318  0.69003523  0.21460760  1
  Fe  Fe89  1  0.03526898  0.69522653  0.54990579  1
  Fe  Fe90  1  0.53668335  0.18323153  0.87559274  1
  Fe  Fe91  1  0.03744893  0.19211479  0.87961994  1
  Fe  Fe92  1  0.31307016  0.96136693  0.62023847  1
  Fe  Fe93  1  0.30666207  0.46427643  0.95059405  1
  Fe  Fe94  1  0.80563653  0.96084299  0.28613125  1
  Fe  Fe95  1  0.80296421  0.46831433  0.28226704  1
  Fe  Fe96  1  0.30711011  0.46544708  0.28433719  1
  Fe  Fe97  1  0.80667799  0.96383810  0.95324560  1
  Fe  Fe98  1  0.80949389  0.46463637  0.62312915  1
  Fe  Fe99  1  0.30921476  0.96569740  0.95122666  1
  Fe  Fe100  1  0.79952454  0.96715814  0.62264699  1
  Fe  Fe101  1  0.30807586  0.46600743  0.61815940  1
  S  S102  1  0.36135093  0.14027088  0.08185124  1
  S  S103  1  0.36349043  0.14712132  0.41812675  1
  S  S104  1  0.36119331  0.13968638  0.74813074  1
  S  S105  1  0.35531636  0.63809904  0.08379753  1
  S  S106  1  0.35986214  0.64023762  0.41757426  1
  S  S107  1  0.36007660  0.64146699  0.75043390  1
  S  S108  1  0.85947547  0.13735894  0.08649639  1
  S  S109  1  0.85985229  0.13985148  0.41542266  1
  S  S110  1  0.86575531  0.13946110  0.74600298  1
  S  S111  1  0.85794586  0.64331092  0.08153244  1
  S  S112  1  0.85883050  0.63969789  0.42076243  1
  S  S113  1  0.85809814  0.63793483  0.74729361  1
  S  S114  1  0.14416233  0.36324280  0.25369905  1
  S  S115  1  0.14334928  0.35826980  0.58386584  1
  S  S116  1  0.14329365  0.35878348  0.91605298  1
  S  S117  1  0.13565290  0.86944186  0.25218596  1
  S  S118  1  0.13902647  0.86287677  0.58131545  1
  S  S119  1  0.14706312  0.86055695  0.91665499  1
  S  S120  1  0.63957126  0.35998562  0.25121471  1
  S  S121  1  0.64102819  0.35910829  0.58167242  1
  S  S122  1  0.63825465  0.35392716  0.91988181  1
  S  S123  1  0.63556018  0.85803515  0.24876961  1
  S  S124  1  0.63944847  0.85392019  0.57903064  1
  S  S125  1  0.63825496  0.86051270  0.91739771  1
  S  S126  1  0.07083804  0.16517264  0.03804738  1
  S  S127  1  0.07260046  0.17686708  0.37739492  1
  S  S128  1  0.07049214  0.16778699  0.70551501  1
  S  S129  1  0.06626283  0.67616627  0.04430726  1
  S  S130  1  0.05705309  0.66058839  0.37281544  1
  S  S131  1  0.07518548  0.66759831  0.70638367  1
  S  S132  1  0.56845420  0.16948310  0.04529225  1
  S  S133  1  0.56822596  0.17325183  0.37530654  1
  S  S134  1  0.56981651  0.17305778  0.71244606  1
  S  S135  1  0.55637070  0.66863693  0.04589246  1
  S  S136  1  0.56108004  0.66362641  0.37534818  1
  S  S137  1  0.56534937  0.66975081  0.70834421  1
  S  S138  1  0.33405690  0.43108565  0.12388004  1
  S  S139  1  0.33590977  0.43622439  0.45931605  1
  S  S140  1  0.33431308  0.43407207  0.78976740  1
  S  S141  1  0.33661167  0.93863459  0.12509457  1
  S  S142  1  0.32466572  0.93159130  0.45501563  1
  S  S143  1  0.32720557  0.93047642  0.78742611  1
  S  S144  1  0.83330792  0.43355641  0.12893055  1
  S  S145  1  0.83091421  0.43420835  0.45836358  1
  S  S146  1  0.82864326  0.43216759  0.78766487  1
  S  S147  1  0.82451568  0.92474005  0.12745513  1
  S  S148  1  0.82662552  0.93183602  0.45665044  1
  S  S149  1  0.83416624  0.93336544  0.79255999  1
  S  S150  1  0.43602055  0.33295211  0.29080028  1
  S  S151  1  0.43792193  0.33557993  0.62632129  1
  S  S152  1  0.43170538  0.33000189  0.95810026  1
  S  S153  1  0.42447817  0.81927167  0.28567574  1
  S  S154  1  0.43275046  0.82715340  0.62435293  1
  S  S155  1  0.43041190  0.82747899  0.95568233  1
  S  S156  1  0.93291912  0.33222035  0.29539711  1
  S  S157  1  0.93452070  0.32755287  0.62127830  1
  S  S158  1  0.93627703  0.32705577  0.94818376  1
  S  S159  1  0.92756678  0.82763985  0.29006614  1
  S  S160  1  0.93545901  0.83519019  0.62252692  1
  S  S161  1  0.93326663  0.83881416  0.96773772  1
  S  S162  1  0.16964859  0.08036998  0.20750323  1
  S  S163  1  0.17040857  0.06725148  0.54005449  1
  S  S164  1  0.17148328  0.06595436  0.87320804  1
  S  S165  1  0.16863352  0.56220780  0.20936028  1
  S  S166  1  0.17053832  0.56562971  0.54386197  1
  S  S167  1  0.17226904  0.56502187  0.87782548  1
  S  S168  1  0.66903515  0.06689053  0.20972150  1
  S  S169  1  0.67284570  0.06865058  0.54022364  1
  S  S170  1  0.67850976  0.07258423  0.88427029  1
  S  S171  1  0.66253146  0.56217940  0.20877176  1
  S  S172  1  0.66858121  0.56492414  0.54300959  1
  S  S173  1  0.66410101  0.57109292  0.86882791  1
  O  O174  1  0.36988800  0.21992854  0.07474933  1
  O  O175  1  0.37029887  0.22921712  0.41336955  1
  O  O176  1  0.37115716  0.21809518  0.73850679  1
  O  O177  1  0.36192995  0.71753055  0.07596894  1
  O  O178  1  0.36831707  0.71876888  0.40999247  1
  O  O179  1  0.36856295  0.72004195  0.74203901  1
  O  O180  1  0.86335862  0.21572444  0.08075489  1
  O  O181  1  0.86996864  0.21943563  0.40815169  1
  O  O182  1  0.88220737  0.21431840  0.73141654  1
  O  O183  1  0.87450888  0.72642027  0.07635937  1
  O  O184  1  0.86692989  0.71914476  0.41532588  1
  O  O185  1  0.86861624  0.71176445  0.73305612  1
  O  O186  1  0.28243393  0.13098038  0.08938967  1
  O  O187  1  0.28367981  0.13728257  0.42471382  1
  O  O188  1  0.28144481  0.13138804  0.75455286  1
  O  O189  1  0.27710929  0.62730661  0.09320286  1
  O  O190  1  0.28098978  0.62896372  0.42447494  1
  O  O191  1  0.28222449  0.63134180  0.75989019  1
  O  O192  1  0.78428580  0.12188899  0.10124414  1
  O  O193  1  0.77974066  0.13126794  0.42124286  1
  O  O194  1  0.78812501  0.13881755  0.75406709  1
  O  O195  1  0.78225393  0.64243428  0.09423144  1
  O  O196  1  0.78056749  0.62970278  0.43059065  1
  O  O197  1  0.77292664  0.62843683  0.74474861  1
  O  O198  1  0.13119112  0.28475943  0.26216763  1
  O  O199  1  0.13507025  0.27675246  0.58668301  1
  O  O200  1  0.13406804  0.27958532  0.92359775  1
  O  O201  1  0.13401525  0.79555833  0.26897033  1
  O  O202  1  0.12890304  0.78547210  0.59216675  1
  O  O203  1  0.14062446  0.78124254  0.91960294  1
  O  O204  1  0.63009204  0.28165636  0.26089172  1
  O  O205  1  0.63399504  0.27926851  0.58798002  1
  O  O206  1  0.62158297  0.27540434  0.92770037  1
  O  O207  1  0.62497175  0.78036733  0.25827880  1
  O  O208  1  0.63465103  0.77151173  0.58359118  1
  O  O209  1  0.62787781  0.78332964  0.92825403  1
  O  O210  1  0.22636463  0.36721847  0.24959486  1
  O  O211  1  0.22184853  0.36861940  0.57410945  1
  O  O212  1  0.22216443  0.36758798  0.90783760  1
  O  O213  1  0.20662683  0.88420537  0.23497697  1
  O  O214  1  0.21905426  0.87185854  0.57755589  1
  O  O215  1  0.22758992  0.87344489  0.90898317  1
  O  O216  1  0.71943218  0.36784351  0.24532876  1
  O  O217  1  0.71822862  0.36864125  0.57021383  1
  O  O218  1  0.71352638  0.35415558  0.90590423  1
  O  O219  1  0.71557722  0.86755671  0.24326321  1
  O  O220  1  0.71978260  0.86536472  0.57230586  1
  O  O221  1  0.71678315  0.86905308  0.90876958  1
  O  O222  1  0.42028515  0.13299951  0.15045120  1
  O  O223  1  0.42073802  0.14146633  0.48815383  1
  O  O224  1  0.41901012  0.13361514  0.81764645  1
  O  O225  1  0.41542818  0.62852035  0.15054953  1
  O  O226  1  0.41911833  0.63018408  0.48516041  1
  O  O227  1  0.42055491  0.63192376  0.81704196  1
  O  O228  1  0.92322558  0.12918679  0.15351956  1
  O  O229  1  0.91771944  0.13319781  0.48472335  1
  O  O230  1  0.92517443  0.12907910  0.81344656  1
  O  O231  1  0.91934835  0.62970796  0.14432617  1
  O  O232  1  0.91897259  0.62920003  0.48788450  1
  O  O233  1  0.90780921  0.63264131  0.81877783  1
  O  O234  1  0.37062409  0.08207908  0.01389825  1
  O  O235  1  0.37337565  0.09229983  0.35092996  1
  O  O236  1  0.36900350  0.07949102  0.68098277  1
  O  O237  1  0.36347822  0.58015184  0.01490586  1
  O  O238  1  0.37031129  0.58080250  0.34980619  1
  O  O239  1  0.36776061  0.58204786  0.68157601  1
  O  O240  1  0.86783447  0.07828704  0.01880890  1
  O  O241  1  0.86883284  0.08077525  0.34811558  1
  O  O242  1  0.87210543  0.07492496  0.67941347  1
  O  O243  1  0.85979695  0.58887802  0.00950682  1
  O  O244  1  0.86648569  0.58082709  0.35256665  1
  O  O245  1  0.87033487  0.57349843  0.68198926  1
  O  O246  1  0.08883671  0.37471581  0.18788366  1
  O  O247  1  0.08319823  0.37004577  0.51848122  1
  O  O248  1  0.08422592  0.36733554  0.84832271  1
  O  O249  1  0.06748786  0.87190041  0.18540596  1
  O  O250  1  0.08115155  0.86826556  0.51081045  1
  O  O251  1  0.08929368  0.87718425  0.85423974  1
  O  O252  1  0.58120655  0.36756919  0.18252527  1
  O  O253  1  0.58037239  0.36807613  0.51383479  1
  O  O254  1  0.57708360  0.36752177  0.85322481  1
  O  O255  1  0.57862556  0.86532591  0.17904702  1
  O  O256  1  0.58205164  0.85600366  0.50684910  1
  O  O257  1  0.57960424  0.86662949  0.84819407  1
  O  O258  1  0.13918466  0.42243370  0.32408477  1
  O  O259  1  0.13804870  0.41336520  0.65471382  1
  O  O260  1  0.13673462  0.41686380  0.98540714  1
  O  O261  1  0.12606471  0.93301966  0.31897220  1
  O  O262  1  0.12653994  0.92445560  0.64638185  1
  O  O263  1  0.14249874  0.91721615  0.98982613  1
  O  O264  1  0.62971322  0.41998711  0.31817831  1
  O  O265  1  0.63144113  0.41738908  0.64893344  1
  O  O266  1  0.63388625  0.41435631  0.98732367  1
  O  O267  1  0.62633634  0.91913402  0.31542800  1
  O  O268  1  0.62843845  0.90942664  0.64413153  1
  O  O269  1  0.62993701  0.92102921  0.98485732  1
  O  O270  1  0.03767199  0.19260484  0.09964767  1
  O  O271  1  0.03210889  0.20245127  0.43660024  1
  O  O272  1  0.03987421  0.19820908  0.76940773  1
  O  O273  1  0.03705112  0.71129950  0.10952127  1
  O  O274  1  0.03097017  0.69734954  0.44168733  1
  O  O275  1  0.04805523  0.69391270  0.76976348  1
  O  O276  1  0.53032643  0.20267819  0.10611899  1
  O  O277  1  0.53290616  0.20321441  0.43711986  1
  O  O278  1  0.53033547  0.20711099  0.77224434  1
  O  O279  1  0.51796032  0.70547007  0.10495679  1
  O  O280  1  0.52514780  0.69167164  0.43628160  1
  O  O281  1  0.52930766  0.70045510  0.76937466  1
  O  O282  1  0.30309052  0.46542697  0.06280237  1
  O  O283  1  0.30670920  0.47111606  0.39799350  1
  O  O284  1  0.30366118  0.47179899  0.72904737  1
  O  O285  1  0.30402585  0.97296987  0.06164409  1
  O  O286  1  0.30022144  0.97381956  0.39967982  1
  O  O287  1  0.29807527  0.96980367  0.72767676  1
  O  O288  1  0.80493437  0.46044999  0.06433617  1
  O  O289  1  0.79947394  0.46846965  0.39638853  1
  O  O290  1  0.79101319  0.46034063  0.72009117  1
  O  O291  1  0.79736692  0.96028055  0.06558434  1
  O  O292  1  0.79853673  0.96991855  0.39578553  1
  O  O293  1  0.80302842  0.96711659  0.73099482  1
  O  O294  1  0.47021972  0.30233898  0.22852967  1
  O  O295  1  0.47392728  0.30542905  0.56527282  1
  O  O296  1  0.46096281  0.29824993  0.89350592  1
  O  O297  1  0.46499641  0.78865991  0.22620780  1
  O  O298  1  0.46872036  0.79556967  0.56221596  1
  O  O299  1  0.46612059  0.79718265  0.89381977  1
  O  O300  1  0.96931822  0.30373072  0.23645908  1
  O  O301  1  0.97338150  0.29655440  0.56123602  1
  O  O302  1  0.97309411  0.28982316  0.88547800  1
  O  O303  1  0.96285718  0.80432753  0.22961661  1
  O  O304  1  0.96800370  0.80273980  0.55761422  1
  O  O305  1  0.97499787  0.82534535  0.91398727  1
  O  O306  1  0.19783403  0.05649935  0.27475198  1
  O  O307  1  0.19971457  0.03166030  0.60120667  1
  O  O308  1  0.20143143  0.03144036  0.93556803  1
  O  O309  1  0.20740554  0.52800400  0.27281400  1
  O  O310  1  0.20075714  0.52704386  0.60372469  1
  O  O311  1  0.20500147  0.52658189  0.93850488  1
  O  O312  1  0.69869287  0.03037333  0.27071067  1
  O  O313  1  0.70175725  0.03132197  0.59832611  1
  O  O314  1  0.70879709  0.03429739  0.94625899  1
  O  O315  1  0.69848714  0.53413285  0.27686445  1
  O  O316  1  0.69603238  0.52531551  0.60108898  1
  O  O317  1  0.68946461  0.54248914  0.93198424  1
  O  O318  1  0.08962896  0.08236773  0.02761908  1
  O  O319  1  0.09540585  0.09761444  0.37414237  1
  O  O320  1  0.08791410  0.08497267  0.69866478  1
  O  O321  1  0.08960818  0.59689270  0.04705277  1
  O  O322  1  0.07768268  0.57893449  0.37441864  1
  O  O323  1  0.09345340  0.58305286  0.69222844  1
  O  O324  1  0.58382440  0.08847033  0.04461528  1
  O  O325  1  0.58519541  0.09154251  0.36856764  1
  O  O326  1  0.58985104  0.09665869  0.71281287  1
  O  O327  1  0.56645841  0.58812070  0.04631022  1
  O  O328  1  0.57784960  0.58005807  0.37028210  1
  O  O329  1  0.58144100  0.58693561  0.70256818  1
  O  O330  1  0.41716713  0.41446795  0.12900298  1
  O  O331  1  0.41928170  0.42025703  0.46514940  1
  O  O332  1  0.41596353  0.41757730  0.79271850  1
  O  O333  1  0.41561425  0.91454980  0.12112802  1
  O  O334  1  0.40455050  0.90955917  0.45921623  1
  O  O335  1  0.40525291  0.90734184  0.78793202  1
  O  O336  1  0.91556589  0.41826762  0.14196235  1
  O  O337  1  0.91437266  0.41998376  0.46568457  1
  O  O338  1  0.90904416  0.41371787  0.78538643  1
  O  O339  1  0.90509125  0.90259061  0.13323053  1
  O  O340  1  0.90799567  0.91189652  0.46152073  1
  O  O341  1  0.91598238  0.91899502  0.79947946  1
  O  O342  1  0.41988608  0.41594227  0.29653479  1
  O  O343  1  0.42064393  0.41839903  0.62965478  1
  O  O344  1  0.41225722  0.41175646  0.96347701  1
  O  O345  1  0.40309409  0.89627989  0.28604803  1
  O  O346  1  0.41343790  0.90656563  0.62647195  1
  O  O347  1  0.41410592  0.90955505  0.96154025  1
  O  O348  1  0.91165853  0.41343783  0.30117206  1
  O  O349  1  0.91523050  0.40755766  0.62145270  1
  O  O350  1  0.91518164  0.40268825  0.94089823  1
  O  O351  1  0.91048426  0.91136072  0.30303499  1
  O  O352  1  0.91500120  0.91654449  0.62450423  1
  O  O353  1  0.91581664  0.92452607  0.98695420  1
  O  O354  1  0.08653284  0.09713987  0.19414468  1
  O  O355  1  0.08716394  0.08332435  0.53384111  1
  O  O356  1  0.08926390  0.08346703  0.86613254  1
  O  O357  1  0.08771877  0.56889503  0.20577550  1
  O  O358  1  0.08734566  0.57943855  0.53550302  1
  O  O359  1  0.09360638  0.58142592  0.87440397  1
  O  O360  1  0.58764215  0.08635390  0.20488045  1
  O  O361  1  0.59375466  0.09197577  0.53693747  1
  O  O362  1  0.60000368  0.09407332  0.88733257  1
  O  O363  1  0.58111314  0.58237089  0.21048196  1
  O  O364  1  0.58540811  0.58135008  0.53746355  1
  O  O365  1  0.57948190  0.59059919  0.85994801  1
  O  O366  1  0.14198439  0.21779948  0.05257658  1
  O  O367  1  0.14307246  0.23322105  0.39919043  1
  O  O368  1  0.13934443  0.21890766  0.71520472  1
  O  O369  1  0.13791301  0.72769178  0.05665386  1
  O  O370  1  0.12759702  0.70815235  0.38092549  1
  O  O371  1  0.14554928  0.71678000  0.71263361  1
  O  O372  1  0.64118843  0.21984283  0.06401754  1
  O  O373  1  0.63999514  0.22495456  0.39137578  1
  O  O374  1  0.63852869  0.23044440  0.72843885  1
  O  O375  1  0.62935742  0.71686150  0.06241095  1
  O  O376  1  0.63248402  0.71332359  0.38998890  1
  O  O377  1  0.63587767  0.72059930  0.72190996  1
  O  O378  1  0.28461474  0.35919820  0.11098649  1
  O  O379  1  0.28578126  0.36475023  0.44556637  1
  O  O380  1  0.28295733  0.36274999  0.77273488  1
  O  O381  1  0.28378483  0.86956222  0.11252996  1
  O  O382  1  0.26928808  0.86209441  0.43653550  1
  O  O383  1  0.27091464  0.86224850  0.77062850  1
  O  O384  1  0.78271719  0.36159947  0.11939521  1
  O  O385  1  0.78184669  0.36083901  0.44245328  1
  O  O386  1  0.78024263  0.35991509  0.77622753  1
  O  O387  1  0.76989960  0.85838576  0.11629493  1
  O  O388  1  0.77221363  0.86274925  0.43932176  1
  O  O389  1  0.78265747  0.86149837  0.77847172  1
  O  O390  1  0.36441657  0.28272729  0.27645230  1
  O  O391  1  0.36612599  0.28555699  0.61155946  1
  O  O392  1  0.36479387  0.27858812  0.95193829  1
  O  O393  1  0.35527771  0.76340292  0.26834285  1
  O  O394  1  0.36350890  0.77412760  0.61086388  1
  O  O395  1  0.35947430  0.77551939  0.94004827  1
  O  O396  1  0.86271468  0.27865144  0.28143825  1
  O  O397  1  0.86314444  0.27540057  0.60354505  1
  O  O398  1  0.86669073  0.27109862  0.93194050  1
  O  O399  1  0.85755578  0.77597244  0.27535401  1
  O  O400  1  0.86337240  0.78345247  0.60625126  1
  O  O401  1  0.85995383  0.78727157  0.94313377  1
  O  O402  1  0.22062814  0.15143395  0.21782067  1
  O  O403  1  0.22157587  0.14006370  0.55796177  1
  O  O404  1  0.22364535  0.13630365  0.88835549  1
  O  O405  1  0.21564181  0.63785421  0.22747975  1
  O  O406  1  0.22066942  0.63832580  0.56281460  1
  O  O407  1  0.22689768  0.63588339  0.89606496  1
  O  O408  1  0.72201574  0.13755488  0.22620190  1
  O  O409  1  0.72760255  0.13925823  0.55557925  1
  O  O410  1  0.73302744  0.14401781  0.90416986  1
  O  O411  1  0.71116704  0.63063196  0.21580025  1
  O  O412  1  0.72001033  0.63599454  0.55979752  1
  O  O413  1  0.71263848  0.63841030  0.87133851  1
  O  O414  1  0.49731345  0.33797267  0.03016500  1
  O  O415  1  0.49606896  0.33591819  0.36327578  1
  O  O416  1  0.49700557  0.34039228  0.69948368  1
  O  O417  1  0.49054266  0.82947205  0.02773858  1
  O  O418  1  0.48381597  0.82100371  0.35863430  1
  O  O419  1  0.49435218  0.83041200  0.69615957  1
  O  O420  1  0.99423367  0.33347513  0.02036201  1
  O  O421  1  0.99246613  0.33849903  0.37049788  1
  O  O422  1  0.99285918  0.33062185  0.69401094  1
  O  O423  1  0.98719356  0.83344667  0.04215859  1
  O  O424  1  0.98982508  0.82783544  0.36165482  1
  O  O425  1  0.99623715  0.83984484  0.69230257  1
  O  O426  1  0.17319128  0.01566183  0.14016827  1
  O  O427  1  0.16782132  0.01000196  0.46676999  1
  O  O428  1  0.16921122  0.00539496  0.80102238  1
  O  O429  1  0.17586875  0.50572653  0.13874722  1
  O  O430  1  0.17337493  0.50807565  0.47200985  1
  O  O431  1  0.17452567  0.50677101  0.80542795  1
  O  O432  1  0.66447879  0.00704895  0.13680996  1
  O  O433  1  0.66679106  0.01060538  0.46491229  1
  O  O434  1  0.67397962  0.01568937  0.81316386  1
  O  O435  1  0.65092353  0.49537622  0.14089279  1
  O  O436  1  0.66503884  0.50674849  0.46866701  1
  O  O437  1  0.65519690  0.50468260  0.79597367  1
  O  O438  1  0.01581404  0.17584754  0.30467348  1
  O  O439  1  0.00738127  0.16306330  0.63332325  1
  O  O440  1  0.01060823  0.16462306  0.96622186  1
  O  O441  1  -0.00826699  0.65132477  0.30528668  1
  O  O442  1  0.01111084  0.66430975  0.63338604  1
  O  O443  1  0.00506104  0.66620461  0.97312691  1
  O  O444  1  0.50794488  0.17261944  0.30356213  1
  O  O445  1  0.51063151  0.17341032  0.63935506  1
  O  O446  1  0.51015482  0.16886195  0.97344558  1
  O  O447  1  0.50138428  0.65905715  0.30229914  1
  O  O448  1  0.50474172  0.66519354  0.63495197  1
  O  O449  1  0.50159376  0.66577664  0.97024064  1
  O  O450  1  0.33915973  0.49079804  0.19760822  1
  O  O451  1  0.33872897  0.49588304  0.53214842  1
  O  O452  1  0.33672996  0.49236525  0.86263922  1
  O  O453  1  0.34863480  1.00060642  0.19660252  1
  O  O454  1  0.32922408  0.98802732  0.53084686  1
  O  O455  1  0.33299153  0.99039860  0.86076821  1
  O  O456  1  0.82826716  0.49568331  0.19990287  1
  O  O457  1  0.83166634  0.49290220  0.53077230  1
  O  O458  1  0.83411207  0.49673088  0.85495179  1
  O  O459  1  0.83030721  0.98911474  0.19946916  1
  O  O460  1  0.83054085  0.99195735  0.52923502  1
  O  O461  1  0.83453242  0.99160225  0.86634424  1
