# generated using pymatgen
data_Na31Fe20(SO4)36
_symmetry_space_group_name_H-M   'P 1'
_cell_length_a   18.09016587
_cell_length_b   18.08113647
_cell_length_c   19.71380314
_cell_angle_alpha   107.59176182
_cell_angle_beta   107.58415538
_cell_angle_gamma   90.75760141
_symmetry_Int_Tables_number   1
_chemical_formula_structural   Na31Fe20(SO4)36
_chemical_formula_sum   'Na62 Fe40 S72 O288'
_cell_volume   5820.54421443
_cell_formula_units_Z   2
loop_
 _symmetry_equiv_pos_site_id
 _symmetry_equiv_pos_as_xyz
  1  'x, y, z'
loop_
 _atom_site_type_symbol
 _atom_site_label
 _atom_site_symmetry_multiplicity
 _atom_site_fract_x
 _atom_site_fract_y
 _atom_site_fract_z
 _atom_site_occupancy
  Na  Na0  1  0.14493293  0.36253263  0.08290818  1
  Na  Na1  1  0.13486037  0.36875339  0.41756801  1
  Na  Na2  1  0.14067026  0.36608244  0.76078154  1
  Na  Na3  1  0.12633682  0.85812814  0.06752717  1
  Na  Na4  1  0.14229429  0.86813218  0.42339925  1
  Na  Na5  1  0.13584499  0.85548567  0.74680269  1
  Na  Na6  1  0.63267784  0.37127252  0.08641839  1
  Na  Na7  1  0.63184423  0.36775400  0.41489335  1
  Na  Na8  1  0.63945148  0.36946774  0.74628229  1
  Na  Na9  1  0.62458158  0.86280307  0.07992892  1
  Na  Na10  1  0.62773135  0.86123336  0.40690715  1
  Na  Na11  1  0.62939804  0.86563405  0.74731854  1
  Na  Na12  1  0.36481063  0.12606502  0.23959077  1
  Na  Na13  1  0.36685298  0.13274697  0.58488172  1
  Na  Na14  1  0.31156892  0.14526461  0.88967775  1
  Na  Na15  1  0.36598322  0.64518782  0.26043285  1
  Na  Na16  1  0.36643072  0.62943623  0.57831823  1
  Na  Na17  1  0.37363927  0.65131724  0.93955218  1
  Na  Na18  1  0.86693811  0.13638612  0.25335290  1
  Na  Na19  1  0.86184467  0.13338098  0.58199068  1
  Na  Na20  1  0.86878397  0.13179644  0.91306781  1
  Na  Na21  1  0.87693701  0.63675442  0.25843166  1
  Na  Na22  1  0.87549733  0.64634938  0.60162613  1
  Na  Na23  1  0.87273994  0.63118588  0.91484668  1
  Na  Na24  1  0.98781516  0.00976208  0.42032434  1
  Na  Na25  1  1.00450523  -0.01921181  0.74328859  1
  Na  Na26  1  0.50965074  0.50581516  0.74767988  1
  Na  Na27  1  0.99275135  0.01137141  0.08008201  1
  Na  Na28  1  0.48170399  0.55717696  0.18127912  1
  Na  Na29  1  0.43173570  -0.00161978  0.71665274  1
  Na  Na30  1  0.99525617  0.56816125  0.78783604  1
  Na  Na31  1  0.48719661  0.00112282  0.43418874  1
  Na  Na32  1  1.00845539  0.50143394  0.05835625  1
  Na  Na33  1  0.06438182  0.99265355  0.60314592  1
  Na  Na34  1  0.02202444  0.49233609  0.25634569  1
  Na  Na35  1  0.48844832  0.50200903  0.93036042  1
  Na  Na36  1  0.53913635  0.49802453  0.58152319  1
  Na  Na37  1  0.49989426  0.93532320  0.21614011  1
  Na  Na38  1  0.01475516  0.98473856  0.25019742  1
  Na  Na39  1  0.00166588  0.93909371  0.89136872  1
  Na  Na40  1  0.00988288  0.49811813  0.56830389  1
  Na  Na41  1  0.47628484  1.01415571  0.93358978  1
  Na  Na42  1  0.74631996  0.74155619  0.67439801  1
  Na  Na43  1  0.75040745  0.25070943  0.00042379  1
  Na  Na44  1  0.75804396  0.25964920  0.65242733  1
  Na  Na45  1  0.73921606  0.24150798  0.34836537  1
  Na  Na46  1  0.25951805  0.76172480  0.65761976  1
  Na  Na47  1  0.23764084  0.22880459  0.68736343  1
  Na  Na48  1  0.26363887  0.26547708  0.32407191  1
  Na  Na49  1  0.73636779  0.73654887  0.34053890  1
  Na  Na50  1  0.74493509  0.74362988  0.00378602  1
  Na  Na51  1  0.23718777  0.74004657  0.00555235  1
  Na  Na52  1  0.24991913  0.24815921  0.50331827  1
  Na  Na53  1  0.74331400  0.74214502  0.50634931  1
  Na  Na54  1  0.26775969  0.26730795  0.15685151  1
  Na  Na55  1  0.74445022  0.24268780  0.17285467  1
  Na  Na56  1  0.74706734  0.73442141  0.83476394  1
  Na  Na57  1  0.26846465  0.76664431  0.48596494  1
  Na  Na58  1  0.75808046  0.25740862  0.82717968  1
  Na  Na59  1  0.24689731  0.74166036  0.17698611  1
  Na  Na60  1  0.24083253  0.74361139  0.84010238  1
  Na  Na61  1  0.73520572  0.73792665  0.17572691  1
  Fe  Fe62  1  0.96355195  0.30789551  0.45428942  1
  Fe  Fe63  1  0.46236861  0.81142741  0.78700466  1
  Fe  Fe64  1  0.46760308  0.30710112  0.44899056  1
  Fe  Fe65  1  0.96635734  0.80441530  0.11499239  1
  Fe  Fe66  1  0.96656124  0.30938842  0.78949537  1
  Fe  Fe67  1  0.96592965  0.30678450  0.11917795  1
  Fe  Fe68  1  0.96727458  0.80691803  0.45170369  1
  Fe  Fe69  1  0.46175651  0.31649159  0.12316378  1
  Fe  Fe70  1  0.46903558  0.31001086  0.78759870  1
  Fe  Fe71  1  0.46207718  0.81044378  0.45505598  1
  Fe  Fe72  1  0.20544589  0.53193957  0.37932559  1
  Fe  Fe73  1  0.69121225  0.03439638  0.37967190  1
  Fe  Fe74  1  0.19627920  0.03425386  0.38447654  1
  Fe  Fe75  1  0.69429170  0.53430693  0.04705282  1
  Fe  Fe76  1  0.19642648  0.53313767  0.71532240  1
  Fe  Fe77  1  0.68743987  0.03445822  0.71021508  1
  Fe  Fe78  1  0.68703680  0.53647915  0.37418492  1
  Fe  Fe79  1  0.69209181  0.03289725  0.04507958  1
  Fe  Fe80  1  0.18857929  0.03723448  0.04557058  1
  Fe  Fe81  1  0.19282179  0.53184181  0.04428063  1
  Fe  Fe82  1  0.53236112  0.18918240  0.21048242  1
  Fe  Fe83  1  0.53233896  0.69704604  0.88417927  1
  Fe  Fe84  1  0.03039228  0.19703862  0.55377276  1
  Fe  Fe85  1  0.53683217  0.19406418  0.54577180  1
  Fe  Fe86  1  0.53297580  0.19303470  0.87899984  1
  Fe  Fe87  1  0.03389577  0.68481207  0.54218716  1
  Fe  Fe88  1  0.53537707  0.68820121  0.54281084  1
  Fe  Fe89  1  0.04783391  0.17929912  0.87836413  1
  Fe  Fe90  1  0.03365576  0.19339802  0.21594375  1
  Fe  Fe91  1  0.04009336  0.68878010  0.21250886  1
  Fe  Fe92  1  0.80460961  0.47023478  0.62542830  1
  Fe  Fe93  1  0.30752383  0.96392021  0.28443293  1
  Fe  Fe94  1  0.31178026  0.45937025  0.95628996  1
  Fe  Fe95  1  0.80921599  0.96337827  0.61850077  1
  Fe  Fe96  1  0.80956105  0.96667038  0.28579578  1
  Fe  Fe97  1  0.30747004  0.96766991  0.95432668  1
  Fe  Fe98  1  0.80491185  0.46846300  0.95143235  1
  Fe  Fe99  1  0.30876396  0.46399186  0.62047261  1
  Fe  Fe100  1  0.81313971  0.46342321  0.29055479  1
  Fe  Fe101  1  0.80375574  0.96525898  0.94732017  1
  S  S102  1  0.35923211  0.14242187  0.08024015  1
  S  S103  1  0.35951854  0.14231806  0.41517346  1
  S  S104  1  0.36113484  0.14871235  0.75297717  1
  S  S105  1  0.35376539  0.64164633  0.08198195  1
  S  S106  1  0.36075279  0.64192495  0.41896907  1
  S  S107  1  0.36028932  0.64066668  0.75082615  1
  S  S108  1  0.85931956  0.13983477  0.08332822  1
  S  S109  1  0.85923708  0.13935081  0.41604840  1
  S  S110  1  0.85946528  0.14043149  0.75054919  1
  S  S111  1  0.86179731  0.64084437  0.08528938  1
  S  S112  1  0.86025084  0.64024824  0.41554815  1
  S  S113  1  0.85284511  0.64399835  0.74472374  1
  S  S114  1  0.13996996  0.35707237  0.25167466  1
  S  S115  1  0.14083201  0.35832242  0.58605758  1
  S  S116  1  0.13855464  0.35771614  0.91837798  1
  S  S117  1  0.13812405  0.86129399  0.24893639  1
  S  S118  1  0.14156487  0.84901160  0.58054408  1
  S  S119  1  0.14270662  0.85984524  0.91518862  1
  S  S120  1  0.64342808  0.35727691  0.24935259  1
  S  S121  1  0.64000946  0.36032453  0.58246808  1
  S  S122  1  0.64234785  0.35833076  0.91613869  1
  S  S123  1  0.64988070  0.85902944  0.25003189  1
  S  S124  1  0.64135085  0.85854127  0.58167014  1
  S  S125  1  0.64121210  0.85910943  0.91505646  1
  S  S126  1  0.06671833  0.17194682  0.04614405  1
  S  S127  1  0.06414440  0.16975160  0.37708789  1
  S  S128  1  0.05778548  0.16759347  0.71043866  1
  S  S129  1  0.06581128  0.67104848  0.04309012  1
  S  S130  1  0.07326683  0.66983432  0.37710470  1
  S  S131  1  0.07272628  0.66011527  0.70433440  1
  S  S132  1  0.57144212  0.17261715  0.04331066  1
  S  S133  1  0.56545548  0.16724075  0.37272711  1
  S  S134  1  0.57075629  0.17408824  0.70908867  1
  S  S135  1  0.57140772  0.66508505  0.04264701  1
  S  S136  1  0.56581747  0.67318833  0.37628700  1
  S  S137  1  0.56173598  0.67172563  0.71063975  1
  S  S138  1  0.33230061  0.44131173  0.12769133  1
  S  S139  1  0.33227664  0.42994977  0.46125168  1
  S  S140  1  0.33533262  0.43448543  0.79208289  1
  S  S141  1  0.31960799  0.93254759  0.11744520  1
  S  S142  1  0.32787367  0.93968017  0.45759833  1
  S  S143  1  0.33203840  0.93366793  0.79222253  1
  S  S144  1  0.83391148  0.43379582  0.12636406  1
  S  S145  1  0.82793542  0.43216759  0.45889382  1
  S  S146  1  0.83142742  0.42997923  0.79124240  1
  S  S147  1  0.83174967  0.93498131  0.12395577  1
  S  S148  1  0.83310073  0.93307968  0.45661766  1
  S  S149  1  0.82590548  0.93603528  0.78398103  1
  S  S150  1  0.43262185  0.32433723  0.28500800  1
  S  S151  1  0.43650840  0.33073116  0.62442166  1
  S  S152  1  0.43591339  0.32892996  0.95838008  1
  S  S153  1  0.43384289  0.83957346  0.29554679  1
  S  S154  1  0.43352871  0.82477283  0.61900942  1
  S  S155  1  0.43352213  0.83266955  0.95638094  1
  S  S156  1  0.93306440  0.32927426  0.29160438  1
  S  S157  1  0.92877413  0.33026261  0.62487858  1
  S  S158  1  0.92839253  0.32927202  0.95837905  1
  S  S159  1  0.93480765  0.83214538  0.28958414  1
  S  S160  1  0.93351925  0.83038058  0.61905299  1
  S  S161  1  0.92659066  0.83574959  0.95886627  1
  S  S162  1  0.16452586  0.06752572  0.20954994  1
  S  S163  1  0.16318404  0.07314817  0.54054635  1
  S  S164  1  0.14901181  0.05426979  0.87161391  1
  S  S165  1  0.16245462  0.56388434  0.20465865  1
  S  S166  1  0.17459613  0.56430099  0.54208602  1
  S  S167  1  0.17880966  0.56415647  0.88007227  1
  S  S168  1  0.67401684  0.06991917  0.21015392  1
  S  S169  1  0.67002600  0.06669163  0.54173694  1
  S  S170  1  0.66990185  0.06811589  0.87585180  1
  S  S171  1  0.68235083  0.56733937  0.21437117  1
  S  S172  1  0.67559412  0.56651718  0.53988417  1
  S  S173  1  0.66925055  0.56558634  0.87484084  1
  O  O174  1  0.37124006  0.22325950  0.07830466  1
  O  O175  1  0.36844608  0.22273582  0.41055792  1
  O  O176  1  0.37597732  0.23070815  0.75000614  1
  O  O177  1  0.36004515  0.71234931  0.06148975  1
  O  O178  1  0.36793497  0.72635183  0.42194245  1
  O  O179  1  0.36686450  0.71838662  0.74013999  1
  O  O180  1  0.86847777  0.22001208  0.07820236  1
  O  O181  1  0.86922866  0.21733749  0.40643235  1
  O  O182  1  0.86611719  0.21917397  0.74096705  1
  O  O183  1  0.86949939  0.71868123  0.07437900  1
  O  O184  1  0.87113948  0.71725532  0.40341768  1
  O  O185  1  0.87065926  0.71273737  0.72491525  1
  O  O186  1  0.28169691  0.13413789  0.09202425  1
  O  O187  1  0.28189304  0.13303202  0.42612618  1
  O  O188  1  0.28538863  0.14333331  0.76416475  1
  O  O189  1  0.26923563  0.62976619  0.08129915  1
  O  O190  1  0.28360627  0.63098395  0.43249745  1
  O  O191  1  0.28140396  0.62958177  0.75805170  1
  O  O192  1  0.78033774  0.13050805  0.09108677  1
  O  O193  1  0.77888743  0.12907821  0.41890573  1
  O  O194  1  0.78156164  0.13125724  0.76115970  1
  O  O195  1  0.78199110  0.63153893  0.09114247  1
  O  O196  1  0.77850157  0.63349166  0.41815833  1
  O  O197  1  0.77033671  0.63668836  0.74099066  1
  O  O198  1  0.12421488  0.28110739  0.26501825  1
  O  O199  1  0.12981733  0.27887639  0.59204332  1
  O  O200  1  0.12360206  0.28236275  0.93058131  1
  O  O201  1  0.12782865  0.78309908  0.25629284  1
  O  O202  1  0.12564678  0.76759137  0.58318512  1
  O  O203  1  0.13961140  0.78624636  0.93136861  1
  O  O204  1  0.63566283  0.27762412  0.25682259  1
  O  O205  1  0.63136933  0.27922064  0.58751988  1
  O  O206  1  0.63344576  0.27802758  0.92133956  1
  O  O207  1  0.64626761  0.78313931  0.26147928  1
  O  O208  1  0.63675980  0.77825183  0.58865285  1
  O  O209  1  0.63254855  0.77941712  0.92234511  1
  O  O210  1  0.21703068  0.35864737  0.24321977  1
  O  O211  1  0.21898574  0.36617609  0.57612494  1
  O  O212  1  0.21691917  0.36458685  0.91047718  1
  O  O213  1  0.21587118  0.87060494  0.23975823  1
  O  O214  1  0.21794511  0.85391105  0.57044411  1
  O  O215  1  0.22372779  0.87507127  0.91102896  1
  O  O216  1  0.72208426  0.36688209  0.23999977  1
  O  O217  1  0.72161153  0.37184926  0.58160840  1
  O  O218  1  0.72162924  0.36832135  0.90890232  1
  O  O219  1  0.73044006  0.87308465  0.24376974  1
  O  O220  1  0.71984436  0.87064011  0.57262797  1
  O  O221  1  0.71989190  0.86729566  0.90597085  1
  O  O222  1  0.41956881  0.12800373  0.14432859  1
  O  O223  1  0.42105876  0.13172760  0.48091990  1
  O  O224  1  0.42296418  0.13538048  0.81851531  1
  O  O225  1  0.40398563  0.64679341  0.15714577  1
  O  O226  1  0.42162687  0.62989275  0.48461177  1
  O  O227  1  0.41918758  0.63483733  0.82010252  1
  O  O228  1  0.91832010  0.12924262  0.15042877  1
  O  O229  1  0.91625484  0.13220731  0.48542574  1
  O  O230  1  0.92046640  0.13414379  0.81797628  1
  O  O231  1  0.91918724  0.63644387  0.15537036  1
  O  O232  1  0.91446703  0.63578840  0.48726598  1
  O  O233  1  0.90438831  0.64212466  0.81773247  1
  O  O234  1  0.36206842  0.08623598  0.00826198  1
  O  O235  1  0.36360538  0.08543430  0.34474127  1
  O  O236  1  0.36673266  0.09407703  0.68318113  1
  O  O237  1  0.37083051  0.57431167  0.02346771  1
  O  O238  1  0.36264076  0.58992130  0.34811286  1
  O  O239  1  0.37077483  0.58016383  0.68459716  1
  O  O240  1  0.86751627  0.08244506  0.01457494  1
  O  O241  1  0.87270236  0.07947418  0.35038880  1
  O  O242  1  0.86525163  0.08072910  0.68171377  1
  O  O243  1  0.87258847  0.58008633  0.01945610  1
  O  O244  1  0.87226655  0.57886396  0.35140037  1
  O  O245  1  0.86905250  0.57351539  0.68432833  1
  O  O246  1  0.07950024  0.36488982  0.18334127  1
  O  O247  1  0.08048306  0.36891010  0.51921592  1
  O  O248  1  0.08069601  0.36448584  0.84871141  1
  O  O249  1  0.07800603  0.87213181  0.18195931  1
  O  O250  1  0.08106130  0.86277530  0.51368033  1
  O  O251  1  0.08591962  0.86069084  0.84455552  1
  O  O252  1  0.58358343  0.36456845  0.18182866  1
  O  O253  1  0.58459935  0.36523246  0.51027394  1
  O  O254  1  0.58380071  0.36842577  0.84895549  1
  O  O255  1  0.59254556  0.86501520  0.18213632  1
  O  O256  1  0.58147942  0.86611885  0.51451939  1
  O  O257  1  0.58239760  0.86861083  0.84856542  1
  O  O258  1  0.13266589  0.42052250  0.31808121  1
  O  O259  1  0.13561680  0.41645234  0.65530431  1
  O  O260  1  0.12889800  0.42036092  0.98445092  1
  O  O261  1  0.12934973  0.92120304  0.31697832  1
  O  O262  1  0.13476810  0.90504162  0.64918576  1
  O  O263  1  0.12797280  0.92393002  0.97910896  1
  O  O264  1  0.63779329  0.41596504  0.31810469  1
  O  O265  1  0.62322038  0.41707268  0.64523590  1
  O  O266  1  0.63550188  0.41546548  0.98547750  1
  O  O267  1  0.63995761  0.92065005  0.31758191  1
  O  O268  1  0.63356869  0.91535803  0.65073557  1
  O  O269  1  0.63607941  0.91706178  0.98507950  1
  O  O270  1  0.02609775  0.20094054  0.10490235  1
  O  O271  1  0.02776094  0.20039052  0.43785625  1
  O  O272  1  0.02597444  0.20582896  0.77423662  1
  O  O273  1  0.03053936  0.70135264  0.10753973  1
  O  O274  1  0.02903500  0.69357566  0.43253258  1
  O  O275  1  0.04155291  0.67708709  0.76598669  1
  O  O276  1  0.53643256  0.20121739  0.10453333  1
  O  O277  1  0.52836885  0.19918271  0.43356036  1
  O  O278  1  0.53465553  0.20446165  0.77020213  1
  O  O279  1  0.54132262  0.68353783  0.10442566  1
  O  O280  1  0.53003147  0.70420034  0.43878464  1
  O  O281  1  0.52461098  0.70696458  0.77091601  1
  O  O282  1  0.29284933  0.46332838  0.05737033  1
  O  O283  1  0.30292332  0.46446914  0.40105788  1
  O  O284  1  0.30424911  0.47078201  0.73075865  1
  O  O285  1  0.28843656  0.97590636  0.06111695  1
  O  O286  1  0.29753630  0.97103399  0.39006881  1
  O  O287  1  0.31303846  0.96529553  0.73072567  1
  O  O288  1  0.80307837  0.47000683  0.06542567  1
  O  O289  1  0.80240272  0.47132777  0.39964985  1
  O  O290  1  0.80681248  0.46347646  0.72964068  1
  O  O291  1  0.80042036  0.97114023  0.06300419  1
  O  O292  1  0.80280674  0.97089246  0.39658639  1
  O  O293  1  0.78860156  0.97336251  0.72406997  1
  O  O294  1  0.47394596  0.29076672  0.22630875  1
  O  O295  1  0.47186696  0.30150052  0.56253409  1
  O  O296  1  0.47766295  0.30163234  0.90054379  1
  O  O297  1  0.47108504  0.82131552  0.23811768  1
  O  O298  1  0.47827638  0.79278107  0.56448847  1
  O  O299  1  0.46896659  0.80082424  0.89227999  1
  O  O300  1  0.96694810  0.29618855  0.22907833  1
  O  O301  1  0.96703783  0.30053100  0.56375826  1
  O  O302  1  0.96065795  0.30117924  0.89595250  1
  O  O303  1  0.96952621  0.80345724  0.22783982  1
  O  O304  1  0.96445721  0.79776151  0.55372499  1
  O  O305  1  0.95688381  0.81673069  0.89677170  1
  O  O306  1  0.19485114  0.03209984  0.27082440  1
  O  O307  1  0.18371402  0.04107412  0.60168747  1
  O  O308  1  0.19887607  0.03735969  0.94085620  1
  O  O309  1  0.18687216  0.53167372  0.26702434  1
  O  O310  1  0.20283247  0.52440372  0.60148081  1
  O  O311  1  0.21280418  0.52229115  0.93638868  1
  O  O312  1  0.70385113  0.03286874  0.27059180  1
  O  O313  1  0.69877944  0.03039583  0.60287372  1
  O  O314  1  0.70083059  0.02966825  0.93610913  1
  O  O315  1  0.71262218  0.52492594  0.27181707  1
  O  O316  1  0.70277434  0.52514114  0.59588855  1
  O  O317  1  0.70251923  0.53278785  0.93974925  1
  O  O318  1  0.08085842  0.08951073  0.04257986  1
  O  O319  1  0.07934005  0.08683372  0.36981214  1
  O  O320  1  0.06609515  0.08652571  0.70882082  1
  O  O321  1  0.08852616  0.59172408  0.04315561  1
  O  O322  1  0.09580027  0.58995277  0.37174806  1
  O  O323  1  0.09155630  0.57555148  0.68585437  1
  O  O324  1  0.59143140  0.09114068  0.03771402  1
  O  O325  1  0.58572242  0.08759539  0.37296025  1
  O  O326  1  0.59024494  0.09396942  0.70676018  1
  O  O327  1  0.59258666  0.58147442  0.02482057  1
  O  O328  1  0.59199295  0.59576628  0.37818598  1
  O  O329  1  0.57304977  0.59050545  0.70752837  1
  O  O330  1  0.41167478  0.41873258  0.12400711  1
  O  O331  1  0.41410510  0.41084001  0.46866959  1
  O  O332  1  0.41786988  0.41870239  0.79541231  1
  O  O333  1  0.39657124  0.91345920  0.11567862  1
  O  O334  1  0.40772224  0.91671644  0.45978142  1
  O  O335  1  0.41803718  0.91817165  0.81018711  1
  O  O336  1  0.91578870  0.41608721  0.13099323  1
  O  O337  1  0.90956380  0.41176671  0.46454063  1
  O  O338  1  0.91311865  0.41090079  0.80304742  1
  O  O339  1  0.91449051  0.91952646  0.13001494  1
  O  O340  1  0.91558688  0.91811058  0.46072262  1
  O  O341  1  0.90502456  0.92377332  0.78191018  1
  O  O342  1  0.40984299  0.39902798  0.28151312  1
  O  O343  1  0.41855437  0.41287981  0.63150644  1
  O  O344  1  0.41783061  0.41027115  0.95960317  1
  O  O345  1  0.41536788  0.92466643  0.30971551  1
  O  O346  1  0.40973625  0.89900147  0.61133803  1
  O  O347  1  0.41313209  0.91327256  0.95787294  1
  O  O348  1  0.91752387  0.41051013  0.29367401  1
  O  O349  1  0.90551267  0.40870513  0.62445487  1
  O  O350  1  0.90624586  0.41012956  0.96541126  1
  O  O351  1  0.92025884  0.91608513  0.29686568  1
  O  O352  1  0.91345342  0.91219266  0.62129924  1
  O  O353  1  0.90753553  0.92071126  0.97434520  1
  O  O354  1  0.08109099  0.08286335  0.20528445  1
  O  O355  1  0.07887420  0.09324389  0.52759740  1
  O  O356  1  0.06528482  0.05775212  0.87325258  1
  O  O357  1  0.07604138  0.57602091  0.19105478  1
  O  O358  1  0.09224929  0.57973427  0.53544308  1
  O  O359  1  0.10240433  0.58332353  0.88438208  1
  O  O360  1  0.59464776  0.09065600  0.20737542  1
  O  O361  1  0.58908845  0.08712092  0.53655604  1
  O  O362  1  0.59063132  0.08839964  0.87501268  1
  O  O363  1  0.60841626  0.59318881  0.21946788  1
  O  O364  1  0.59634059  0.58874674  0.54128135  1
  O  O365  1  0.59020579  0.59026880  0.87500253  1
  O  O366  1  0.13947236  0.22233403  0.06725131  1
  O  O367  1  0.13631115  0.21998903  0.39343659  1
  O  O368  1  0.12967353  0.21479019  0.72142351  1
  O  O369  1  0.13650475  0.72588439  0.06290355  1
  O  O370  1  0.14014777  0.72740935  0.39649546  1
  O  O371  1  0.14339037  0.71309384  0.71941514  1
  O  O372  1  0.64240090  0.22564914  0.05871553  1
  O  O373  1  0.63419973  0.22058914  0.38649102  1
  O  O374  1  0.64123483  0.22693756  0.72409648  1
  O  O375  1  0.64188837  0.71882091  0.05554960  1
  O  O376  1  0.63628956  0.72901229  0.39438552  1
  O  O377  1  0.63488290  0.72237342  0.72855826  1
  O  O378  1  0.28329929  0.37384502  0.12387124  1
  O  O379  1  0.27992492  0.35854533  0.44710349  1
  O  O380  1  0.28373209  0.36400783  0.77635516  1
  O  O381  1  0.26364108  0.86417316  0.10079652  1
  O  O382  1  0.27394003  0.87090270  0.44231015  1
  O  O383  1  0.28254049  0.86039033  0.77673763  1
  O  O384  1  0.78231956  0.36205598  0.11005136  1
  O  O385  1  0.77403904  0.36208926  0.43993936  1
  O  O386  1  0.77757846  0.35862058  0.77400575  1
  O  O387  1  0.78169118  0.86313256  0.10863424  1
  O  O388  1  0.78339333  0.86043153  0.44008689  1
  O  O389  1  0.77602490  0.86419843  0.77020337  1
  O  O390  1  0.36538172  0.26511664  0.26864744  1
  O  O391  1  0.36592710  0.27841900  0.60858434  1
  O  O392  1  0.36575037  0.27752092  0.94087271  1
  O  O393  1  0.36218383  0.78789636  0.27850031  1
  O  O394  1  0.36627538  0.76686478  0.60276858  1
  O  O395  1  0.36166055  0.78033250  0.93745015  1
  O  O396  1  0.86126345  0.27908335  0.27754123  1
  O  O397  1  0.86173973  0.27398592  0.60937880  1
  O  O398  1  0.85940364  0.27516865  0.94612404  1
  O  O399  1  0.86313816  0.78209538  0.27446098  1
  O  O400  1  0.86182157  0.78013274  0.60518106  1
  O  O401  1  0.85688894  0.78378516  0.94792428  1
  O  O402  1  0.21369425  0.13978228  0.22455147  1
  O  O403  1  0.21566466  0.14351617  0.55386264  1
  O  O404  1  0.17619101  0.13336402  0.87514373  1
  O  O405  1  0.20910352  0.63726347  0.21887905  1
  O  O406  1  0.22657423  0.63627984  0.56295456  1
  O  O407  1  0.23311937  0.63423329  0.89575468  1
  O  O408  1  0.72861894  0.14054442  0.22764372  1
  O  O409  1  0.72355138  0.13589628  0.55690738  1
  O  O410  1  0.72441582  0.13799776  0.89294031  1
  O  O411  1  0.74124118  0.63426320  0.23147400  1
  O  O412  1  0.72934598  0.63723667  0.55721241  1
  O  O413  1  0.72429155  0.63446239  0.88915231  1
  O  O414  1  0.49405184  0.33381843  0.03254644  1
  O  O415  1  0.49129308  0.32803242  0.35924746  1
  O  O416  1  0.49683688  0.33396260  0.69686309  1
  O  O417  1  0.49309604  0.83466987  0.02550436  1
  O  O418  1  0.49091374  0.83992517  0.37014606  1
  O  O419  1  0.48853485  0.83619489  0.69714814  1
  O  O420  1  0.99071834  0.33466743  0.03072699  1
  O  O421  1  0.99218405  0.33177380  0.36418004  1
  O  O422  1  0.98991727  0.33682718  0.69745609  1
  O  O423  1  0.98896329  0.83746791  0.03123058  1
  O  O424  1  0.99410686  0.83340535  0.36193366  1
  O  O425  1  0.99552553  0.83664585  0.68864520  1
  O  O426  1  0.15992411  0.00887026  0.13610134  1
  O  O427  1  0.16012768  0.01205911  0.46710466  1
  O  O428  1  0.14861365  -0.00796212  0.80406896  1
  O  O429  1  0.16408974  0.50345497  0.13362706  1
  O  O430  1  0.17537958  0.50752320  0.46959285  1
  O  O431  1  0.17283845  0.50757647  0.80406564  1
  O  O432  1  0.67150854  0.01117455  0.13747088  1
  O  O433  1  0.66591161  0.00594006  0.46914410  1
  O  O434  1  0.66569077  0.00926889  0.80290766  1
  O  O435  1  0.67491636  0.50954756  0.13909168  1
  O  O436  1  0.66855275  0.51028656  0.46447396  1
  O  O437  1  0.65921969  0.50315943  0.80453020  1
  O  O438  1  0.00496246  0.16871995  0.30449315  1
  O  O439  1  -0.00205373  0.16769123  0.63803720  1
  O  O440  1  0.01139783  0.17236030  0.97308560  1
  O  O441  1  0.01498773  0.66559685  0.30219349  1
  O  O442  1  0.01184201  0.66153415  0.63246489  1
  O  O443  1  0.00606074  0.66788800  0.97381014  1
  O  O444  1  0.50528900  0.16035003  0.29927723  1
  O  O445  1  0.51144004  0.17056708  0.63618099  1
  O  O446  1  0.51169042  0.16795496  0.97070892  1
  O  O447  1  0.50694539  0.66595699  0.30477306  1
  O  O448  1  0.50686831  0.67089115  0.63623534  1
  O  O449  1  0.51010783  0.66504678  0.97005297  1
  O  O450  1  0.34355683  0.51012221  0.19293098  1
  O  O451  1  0.33559370  0.48928973  0.53511238  1
  O  O452  1  0.34117620  0.49346904  0.86587259  1
  O  O453  1  0.32422581  0.98966836  0.19335997  1
  O  O454  1  0.33132429  1.00373949  0.52430919  1
  O  O455  1  0.32849870  0.99387477  0.86359681  1
  O  O456  1  0.83753614  0.49213125  0.19949543  1
  O  O457  1  0.83144998  0.49020670  0.53259713  1
  O  O458  1  0.82860938  0.48994315  0.86197180  1
  O  O459  1  0.83471961  0.99481809  0.19684429  1
  O  O460  1  0.83296332  0.99156247  0.52865389  1
  O  O461  1  0.82970518  0.99333241  0.85890942  1
