# generated using pymatgen
data_Na31Fe20(SO4)36
_symmetry_space_group_name_H-M   'P 1'
_cell_length_a   18.07770647
_cell_length_b   18.07375724
_cell_length_c   19.72326130
_cell_angle_alpha   107.57968008
_cell_angle_beta   107.59349217
_cell_angle_gamma   90.73399721
_symmetry_Int_Tables_number   1
_chemical_formula_structural   Na31Fe20(SO4)36
_chemical_formula_sum   'Na62 Fe40 S72 O288'
_cell_volume   5817.35753318
_cell_formula_units_Z   2
loop_
 _symmetry_equiv_pos_site_id
 _symmetry_equiv_pos_as_xyz
  1  'x, y, z'
loop_
 _atom_site_type_symbol
 _atom_site_label
 _atom_site_symmetry_multiplicity
 _atom_site_fract_x
 _atom_site_fract_y
 _atom_site_fract_z
 _atom_site_occupancy
  Na  Na0  1  0.13052548  0.35422020  0.07128711  1
  Na  Na1  1  0.13943020  0.36754009  0.42326955  1
  Na  Na2  1  0.15991820  0.34727442  0.75801201  1
  Na  Na3  1  0.14493295  0.86539819  0.08874176  1
  Na  Na4  1  0.13795146  0.86683368  0.41839235  1
  Na  Na5  1  0.13243787  0.86125971  0.75386974  1
  Na  Na6  1  0.63247234  0.36587338  0.08213716  1
  Na  Na7  1  0.62953789  0.37102172  0.41699812  1
  Na  Na8  1  0.62826422  0.36681322  0.74749615  1
  Na  Na9  1  0.62758420  0.85775474  0.06906333  1
  Na  Na10  1  0.63194945  0.86913776  0.42401995  1
  Na  Na11  1  0.63453591  0.86755711  0.74955531  1
  Na  Na12  1  0.34064298  0.13084760  0.24345358  1
  Na  Na13  1  0.36530060  0.13697443  0.59021129  1
  Na  Na14  1  0.34708147  0.14083619  0.90744283  1
  Na  Na15  1  0.37502504  0.63829109  0.25864293  1
  Na  Na16  1  0.37434599  0.63469908  0.58773414  1
  Na  Na17  1  0.34761916  0.63896510  0.88979536  1
  Na  Na18  1  0.86669415  0.13337847  0.25202142  1
  Na  Na19  1  0.85756561  0.12650769  0.57998164  1
  Na  Na20  1  0.87318066  0.13461857  0.91746126  1
  Na  Na21  1  0.86895332  0.63496221  0.25469513  1
  Na  Na22  1  0.87696792  0.64045014  0.59671494  1
  Na  Na23  1  0.86222649  0.63143271  0.91103840  1
  Na  Na24  1  0.49531281  0.53546952  0.74184580  1
  Na  Na25  1  0.48201550  0.00811550  0.08458298  1
  Na  Na26  1  0.48976811  0.51849571  0.41847822  1
  Na  Na27  1  0.45239258  0.00280411  0.41315378  1
  Na  Na28  1  0.48384326  0.50743083  0.09355370  1
  Na  Na29  1  1.02112649  -0.00875296  0.07117400  1
  Na  Na30  1  0.96916403  0.01797819  0.74556229  1
  Na  Na31  1  0.99728241  0.51000149  0.08482260  1
  Na  Na32  1  1.04797531  0.47678936  0.69502188  1
  Na  Na33  1  0.01763004  0.48759297  0.89820907  1
  Na  Na34  1  0.03122991  0.97911137  0.90935607  1
  Na  Na35  1  0.51503614  0.99390649  0.89538732  1
  Na  Na36  1  0.48785166  0.52923158  0.90938147  1
  Na  Na37  1  0.02046756  0.99066868  0.25893432  1
  Na  Na38  1  0.50919456  0.95257077  0.58303588  1
  Na  Na39  1  0.47412809  1.01172286  0.26186036  1
  Na  Na40  1  0.00641010  0.48105802  0.27034104  1
  Na  Na41  1  -0.00132034  0.99581107  0.57250929  1
  Na  Na42  1  0.24130830  0.72692141  0.68708045  1
  Na  Na43  1  0.74304878  0.24207778  0.66809838  1
  Na  Na44  1  0.74781322  0.24952803  0.33415939  1
  Na  Na45  1  0.25792876  0.75720162  -0.02029459  1
  Na  Na46  1  0.74552090  0.74798717  -0.00653414  1
  Na  Na47  1  0.74860865  0.74859280  0.33568172  1
  Na  Na48  1  0.75270577  0.25470947  -0.00195929  1
  Na  Na49  1  0.23413531  0.23446934  -0.00012541  1
  Na  Na50  1  0.27610318  0.77429528  0.33124902  1
  Na  Na51  1  0.77440015  0.77432763  0.66481007  1
  Na  Na52  1  0.75473479  0.24982522  0.83256260  1
  Na  Na53  1  0.24362691  0.24256439  0.50695991  1
  Na  Na54  1  0.26713275  0.76782508  0.16097044  1
  Na  Na55  1  0.23160097  0.23403795  0.17674849  1
  Na  Na56  1  0.76619485  0.76256148  0.82454152  1
  Na  Na57  1  0.74589666  0.74766246  0.16562575  1
  Na  Na58  1  0.75008377  0.25227191  0.16652903  1
  Na  Na59  1  0.74309756  0.24647992  0.50060866  1
  Na  Na60  1  0.76100039  0.76437292  0.50090005  1
  Na  Na61  1  0.25418852  0.74772265  0.50362143  1
  Fe  Fe62  1  0.46009303  0.31664246  0.45583984  1
  Fe  Fe63  1  0.46672090  0.81019673  0.11890687  1
  Fe  Fe64  1  0.46302757  0.31205638  0.11879646  1
  Fe  Fe65  1  0.96488734  0.80414885  0.11997046  1
  Fe  Fe66  1  0.96779686  0.80642910  0.45488317  1
  Fe  Fe67  1  0.45953550  0.31062983  0.78625408  1
  Fe  Fe68  1  0.96672586  0.30412361  0.11786756  1
  Fe  Fe69  1  0.96731724  0.30704624  0.45761448  1
  Fe  Fe70  1  0.96960978  0.29421434  0.78830625  1
  Fe  Fe71  1  0.46959365  0.80062483  0.79027190  1
  Fe  Fe72  1  0.68719140  0.53553928  0.04391039  1
  Fe  Fe73  1  0.19950473  0.03328042  0.38345972  1
  Fe  Fe74  1  0.69349492  0.03843012  0.04821196  1
  Fe  Fe75  1  0.19604261  0.53646190  0.38343765  1
  Fe  Fe76  1  0.68927769  0.53555963  0.71151873  1
  Fe  Fe77  1  0.69159877  0.03261951  0.37885976  1
  Fe  Fe78  1  0.69306886  0.53581249  0.38130030  1
  Fe  Fe79  1  0.69662623  0.03233149  0.70928716  1
  Fe  Fe80  1  0.19082476  0.03681148  0.71365074  1
  Fe  Fe81  1  0.19307606  0.53828328  0.04799858  1
  Fe  Fe82  1  0.03803992  0.69127104  0.55334445  1
  Fe  Fe83  1  0.53009809  0.19220592  0.87635654  1
  Fe  Fe84  1  0.53197627  0.19596136  0.21306867  1
  Fe  Fe85  1  0.53053304  0.19593124  0.54550125  1
  Fe  Fe86  1  0.53559609  0.70334178  0.54597308  1
  Fe  Fe87  1  0.03659702  0.18533091  0.54659606  1
  Fe  Fe88  1  0.53753212  0.69677198  0.21740370  1
  Fe  Fe89  1  0.03584479  0.69256305  0.21645881  1
  Fe  Fe90  1  0.03321184  0.69429253  0.87194037  1
  Fe  Fe91  1  0.03744460  0.18872174  0.21513915  1
  Fe  Fe92  1  0.30340819  0.46852510  0.94560733  1
  Fe  Fe93  1  0.81106187  0.46244215  0.62190331  1
  Fe  Fe94  1  0.31239895  0.96531370  0.62790139  1
  Fe  Fe95  1  0.80996781  0.96740287  0.95434742  1
  Fe  Fe96  1  0.30052793  0.46875842  0.62098937  1
  Fe  Fe97  1  0.30563504  0.46260463  0.28490301  1
  Fe  Fe98  1  0.81380516  0.96458809  0.29023953  1
  Fe  Fe99  1  0.80424107  0.46347660  0.95075434  1
  Fe  Fe100  1  0.80905971  0.46510185  0.29156239  1
  Fe  Fe101  1  0.29578988  0.96638366  0.95471400  1
  S  S102  1  0.36000460  0.14245507  0.08153405  1
  S  S103  1  0.36056878  0.14682640  0.41695859  1
  S  S104  1  0.35826901  0.14190521  0.75253665  1
  S  S105  1  0.36162751  0.64018652  0.08467566  1
  S  S106  1  0.36216564  0.63937027  0.41398396  1
  S  S107  1  0.36614638  0.63680850  0.74852141  1
  S  S108  1  0.85897129  0.14259482  0.08732519  1
  S  S109  1  0.85694725  0.14058371  0.41670271  1
  S  S110  1  0.85449045  0.14204712  0.74689199  1
  S  S111  1  0.85891856  0.63779875  0.08363508  1
  S  S112  1  0.86059229  0.63937612  0.41736159  1
  S  S113  1  0.85708901  0.63581816  0.75149733  1
  S  S114  1  0.13749191  0.36106530  0.25033913  1
  S  S115  1  0.13952255  0.35060602  0.58211032  1
  S  S116  1  0.13957702  0.36379781  0.91917506  1
  S  S117  1  0.13994995  0.85678393  0.25172619  1
  S  S118  1  0.14457312  0.85833871  0.58267867  1
  S  S119  1  0.13947242  0.85794484  0.92265294  1
  S  S120  1  0.63943501  0.36103605  0.24961964  1
  S  S121  1  0.63892407  0.36119133  0.58175062  1
  S  S122  1  0.63774089  0.35754225  0.91726327  1
  S  S123  1  0.64419518  0.86047288  0.24615789  1
  S  S124  1  0.64633375  0.85987551  0.58658024  1
  S  S125  1  0.64216342  0.86502594  0.91813019  1
  S  S126  1  0.05820164  0.16884874  0.04238095  1
  S  S127  1  0.06542147  0.16965120  0.37855964  1
  S  S128  1  0.06093579  0.16159312  0.70082656  1
  S  S129  1  0.06545237  0.66981400  0.04322093  1
  S  S130  1  0.06809960  0.66962529  0.37701103  1
  S  S131  1  0.07030613  0.66778958  0.70974023  1
  S  S132  1  0.56801060  0.17159387  0.04157284  1
  S  S133  1  0.56621685  0.17176275  0.37327208  1
  S  S134  1  0.56903124  0.17131687  0.70925151  1
  S  S135  1  0.56332677  0.66936862  0.04342534  1
  S  S136  1  0.57327734  0.66783909  0.37575832  1
  S  S137  1  0.57546648  0.67601490  0.70955947  1
  S  S138  1  0.32612628  0.43222766  0.12175847  1
  S  S139  1  0.32861496  0.43392793  0.45727450  1
  S  S140  1  0.33785287  0.43505288  0.79366095  1
  S  S141  1  0.33603063  0.93841903  0.12444369  1
  S  S142  1  0.33094824  0.93604318  0.46433417  1
  S  S143  1  0.32763931  0.92741160  0.79321797  1
  S  S144  1  0.83076478  0.43296546  0.12725424  1
  S  S145  1  0.82523699  0.42792674  0.45643754  1
  S  S146  1  0.82928563  0.42584501  0.79028456  1
  S  S147  1  0.83023228  0.93168601  0.12482629  1
  S  S148  1  0.82850199  0.93219032  0.45460972  1
  S  S149  1  0.83616079  0.94379338  0.79748641  1
  S  S150  1  0.43012739  0.32817070  0.28850421  1
  S  S151  1  0.43116126  0.33250479  0.62446885  1
  S  S152  1  0.43121922  0.33535570  0.95953366  1
  S  S153  1  0.44358477  0.83296555  0.29017732  1
  S  S154  1  0.43426291  0.82897482  0.62946785  1
  S  S155  1  0.42820240  0.83492444  0.95814733  1
  S  S156  1  0.93134602  0.32713817  0.29179945  1
  S  S157  1  0.93013844  0.32113651  0.62309406  1
  S  S158  1  0.93119280  0.33783912  0.96175876  1
  S  S159  1  0.93212894  0.82755782  0.28986260  1
  S  S160  1  0.94469159  0.83431699  0.62242393  1
  S  S161  1  0.93167779  0.82738854  0.96028082  1
  S  S162  1  0.15792131  0.06114147  0.20948258  1
  S  S163  1  0.17296518  0.06492883  0.54292524  1
  S  S164  1  0.16460418  0.05727579  0.87070726  1
  S  S165  1  0.17093666  0.56932947  0.21061846  1
  S  S166  1  0.17468585  0.56888407  0.54140954  1
  S  S167  1  0.16589366  0.56483625  0.87556378  1
  S  S168  1  0.66680224  0.06874183  0.20808165  1
  S  S169  1  0.65737206  0.06796623  0.53455922  1
  S  S170  1  0.67310571  0.07269616  0.87688798  1
  S  S171  1  0.67258375  0.56754042  0.20871206  1
  S  S172  1  0.67410299  0.57300469  0.54415120  1
  S  S173  1  0.66780911  0.56081540  0.87551870  1
  O  O174  1  0.37595407  0.21925298  0.07075303  1
  O  O175  1  0.37194124  0.22749382  0.41418634  1
  O  O176  1  0.37021369  0.21944565  0.74371408  1
  O  O177  1  0.37027124  0.71984025  0.07807916  1
  O  O178  1  0.36918645  0.71229592  0.39826633  1
  O  O179  1  0.37878297  0.71389770  0.73561871  1
  O  O180  1  0.86499199  0.22235279  0.07967451  1
  O  O181  1  0.86548299  0.22073303  0.41059288  1
  O  O182  1  0.86468623  0.22478502  0.74417341  1
  O  O183  1  0.86660496  0.71793379  0.07784936  1
  O  O184  1  0.86957396  0.71728545  0.40587303  1
  O  O185  1  0.85782673  0.71232378  0.74081424  1
  O  O186  1  0.28709967  0.14140133  0.09843463  1
  O  O187  1  0.28092624  0.13582232  0.42255365  1
  O  O188  1  0.28048507  0.13112852  0.76111897  1
  O  O189  1  0.28409130  0.63233630  0.09626553  1
  O  O190  1  0.28410292  0.62923422  0.42461724  1
  O  O191  1  0.28879612  0.63186929  0.75635323  1
  O  O192  1  0.77893417  0.13212624  0.09433994  1
  O  O193  1  0.77706859  0.13112776  0.42395169  1
  O  O194  1  0.77018962  0.13561807  0.74619429  1
  O  O195  1  0.77987624  0.62764615  0.09153863  1
  O  O196  1  0.77959258  0.63174969  0.42176539  1
  O  O197  1  0.78174707  0.62044428  0.76636665  1
  O  O198  1  0.12794777  0.28283846  0.25796960  1
  O  O199  1  0.13262135  0.26539369  0.57370433  1
  O  O200  1  0.13531156  0.29263740  0.93844338  1
  O  O201  1  0.12750464  0.77930663  0.26321727  1
  O  O202  1  0.13753547  0.77865382  0.58895362  1
  O  O203  1  0.13045792  0.77639057  0.92682841  1
  O  O204  1  0.63086156  0.28112605  0.25659624  1
  O  O205  1  0.63068709  0.28168990  0.58958285  1
  O  O206  1  0.62700437  0.27976604  0.92782230  1
  O  O207  1  0.63878198  0.78061358  0.25383692  1
  O  O208  1  0.63495568  0.78175295  0.59795014  1
  O  O209  1  0.63303292  0.79081857  0.93099095  1
  O  O210  1  0.21599668  0.37018184  0.24132434  1
  O  O211  1  0.21724815  0.36803662  0.57401857  1
  O  O212  1  0.21655210  0.37806855  0.90911978  1
  O  O213  1  0.21660423  0.86207428  0.24196804  1
  O  O214  1  0.22320542  0.86985588  0.57441558  1
  O  O215  1  0.22554183  0.86798507  0.92675996  1
  O  O216  1  0.71900328  0.36973225  0.24165069  1
  O  O217  1  0.71783054  0.37017703  0.57300834  1
  O  O218  1  0.71838308  0.36374333  0.91155193  1
  O  O219  1  0.72367989  0.87192183  0.23931709  1
  O  O220  1  0.72579634  0.86795276  0.58335267  1
  O  O221  1  0.72046732  0.87457411  0.90750811  1
  O  O222  1  0.42534920  0.12833876  0.14336617  1
  O  O223  1  0.41742253  0.13772281  0.48739047  1
  O  O224  1  0.41772181  0.13539399  0.82237337  1
  O  O225  1  0.42256124  0.62972025  0.15105661  1
  O  O226  1  0.42300769  0.63485987  0.48332948  1
  O  O227  1  0.42769366  0.62784625  0.81352765  1
  O  O228  1  0.91604666  0.13623532  0.15628428  1
  O  O229  1  0.91517332  0.13022496  0.48278749  1
  O  O230  1  0.90689175  0.13389920  0.81615895  1
  O  O231  1  0.91858461  0.62801098  0.15066897  1
  O  O232  1  0.91666730  0.63327571  0.48638045  1
  O  O233  1  0.91987144  0.63083308  0.81876828  1
  O  O234  1  0.35834015  0.08107436  0.00935040  1
  O  O235  1  0.37341720  0.08954302  0.35167678  1
  O  O236  1  0.36782287  0.08178732  0.68613226  1
  O  O237  1  0.36797276  0.58111381  0.01610537  1
  O  O238  1  0.37094468  0.57291255  0.34957622  1
  O  O239  1  0.37325357  0.57564429  0.67896888  1
  O  O240  1  0.86780088  0.08461053  0.02001817  1
  O  O241  1  0.86190995  0.08358379  0.34615276  1
  O  O242  1  0.86506385  0.08652743  0.68012284  1
  O  O243  1  0.86724908  0.58037747  0.01500096  1
  O  O244  1  0.86878647  0.57902838  0.34974727  1
  O  O245  1  0.86352876  0.57511691  0.68317562  1
  O  O246  1  0.07813767  0.37104355  0.18274158  1
  O  O247  1  0.07893725  0.36551179  0.51743594  1
  O  O248  1  0.07868469  0.36229069  0.84715952  1
  O  O249  1  0.07796686  0.86417506  0.18413747  1
  O  O250  1  0.08466438  0.86610464  0.51417926  1
  O  O251  1  0.08953344  0.86696908  0.85297936  1
  O  O252  1  0.58115281  0.36862821  0.18136909  1
  O  O253  1  0.57981719  0.36806427  0.51365070  1
  O  O254  1  0.58094882  0.36389433  0.84807722  1
  O  O255  1  0.58648321  0.86638966  0.17688833  1
  O  O256  1  0.58691355  0.86742238  0.52030695  1
  O  O257  1  0.58178936  0.87439939  0.85114142  1
  O  O258  1  0.12874002  0.42135941  0.31762027  1
  O  O259  1  0.13191787  0.39667669  0.65389325  1
  O  O260  1  0.12475062  0.43041898  0.98035684  1
  O  O261  1  0.13154067  0.91799170  0.31873977  1
  O  O262  1  0.13596731  0.91726121  0.64993078  1
  O  O263  1  0.12519705  0.91328831  0.98821925  1
  O  O264  1  0.63284514  0.41889329  0.31816074  1
  O  O265  1  0.63245851  0.41952473  0.65042707  1
  O  O266  1  0.63112154  0.41834590  0.98483497  1
  O  O267  1  0.63375615  0.91782214  0.31343252  1
  O  O268  1  0.63558671  0.91965486  0.65516789  1
  O  O269  1  0.63560327  0.92929381  0.98523742  1
  O  O270  1  0.02764545  0.20412832  0.11025465  1
  O  O271  1  0.02223134  0.19533569  0.43494263  1
  O  O272  1  0.02611215  0.19134710  0.76129225  1
  O  O273  1  0.02818423  0.69807216  0.10466447  1
  O  O274  1  0.03048097  0.69677205  0.43683280  1
  O  O275  1  0.02990589  0.69204917  0.76721546  1
  O  O276  1  0.53634012  0.20406208  0.10511952  1
  O  O277  1  0.53264863  0.20257502  0.43532957  1
  O  O278  1  0.53126592  0.19991046  0.76951760  1
  O  O279  1  0.53429410  0.70327445  0.10966308  1
  O  O280  1  0.53954132  0.69435097  0.43669108  1
  O  O281  1  0.54084841  0.70591672  0.76993799  1
  O  O282  1  0.29618272  0.47020064  0.06208688  1
  O  O283  1  0.29513745  0.46794669  0.39402079  1
  O  O284  1  0.30823057  0.46267545  0.72906168  1
  O  O285  1  0.31270869  0.97346968  0.06255935  1
  O  O286  1  0.29978686  0.97377183  0.40544163  1
  O  O287  1  0.30230560  0.96951827  0.73609080  1
  O  O288  1  0.80090854  0.46806365  0.06580090  1
  O  O289  1  0.79612279  0.46838221  0.39760718  1
  O  O290  1  0.79965277  0.45889827  0.72719007  1
  O  O291  1  0.80309710  0.96999054  0.06510913  1
  O  O292  1  0.79699049  0.96578239  0.38983967  1
  O  O293  1  0.79957769  0.97976688  0.73897611  1
  O  O294  1  0.46971607  0.30113727  0.22878530  1
  O  O295  1  0.47278972  0.30644914  0.56619243  1
  O  O296  1  0.46696043  0.30478356  0.89803492  1
  O  O297  1  0.47619436  0.79855375  0.22436423  1
  O  O298  1  0.47256013  0.80336318  0.57081282  1
  O  O299  1  0.46536750  0.81802728  0.89951846  1
  O  O300  1  0.96757771  0.29879465  0.23084335  1
  O  O301  1  0.96802895  0.29124404  0.56298597  1
  O  O302  1  0.96374641  0.31319297  0.90035867  1
  O  O303  1  0.96641097  0.79336500  0.22769003  1
  O  O304  1  0.97610100  0.79217479  0.55675823  1
  O  O305  1  0.96586325  0.79667033  0.90045302  1
  O  O306  1  0.18546256  0.03673397  0.27705271  1
  O  O307  1  0.20353712  0.02965988  0.60513796  1
  O  O308  1  0.19922438  0.01822276  0.92961959  1
  O  O309  1  0.20013896  0.53173009  0.27059913  1
  O  O310  1  0.20162377  0.53058240  0.59933634  1
  O  O311  1  0.20404475  0.53886682  0.94441507  1
  O  O312  1  0.69623771  0.03423093  0.26979483  1
  O  O313  1  0.67604179  0.03390854  0.59536731  1
  O  O314  1  0.70474419  0.03834122  0.93949198  1
  O  O315  1  0.70119375  0.53102278  0.26947732  1
  O  O316  1  0.69914924  0.53423905  0.60391335  1
  O  O317  1  0.70322334  0.52380907  0.93715690  1
  O  O318  1  0.06769968  0.08655553  0.03594231  1
  O  O319  1  0.08787876  0.09005692  0.37548453  1
  O  O320  1  0.07953588  0.07928925  0.69708589  1
  O  O321  1  0.08021892  0.58640818  0.03715820  1
  O  O322  1  0.08745082  0.58799610  0.36860687  1
  O  O323  1  0.09680589  0.59116472  0.70403426  1
  O  O324  1  0.58232021  0.08825826  0.03482169  1
  O  O325  1  0.58524175  0.09010954  0.36683684  1
  O  O326  1  0.59010806  0.09151120  0.70425669  1
  O  O327  1  0.58184398  0.58693170  0.04143754  1
  O  O328  1  0.58938168  0.58450026  0.36641504  1
  O  O329  1  0.59094366  0.59306611  0.70551469  1
  O  O330  1  0.40822561  0.41609652  0.12530442  1
  O  O331  1  0.41092045  0.42085860  0.45830909  1
  O  O332  1  0.42310502  0.42153952  0.80488753  1
  O  O333  1  0.42007478  0.91988765  0.13411985  1
  O  O334  1  0.41188682  0.92129629  0.46796922  1
  O  O335  1  0.40958507  0.91037022  0.80144115  1
  O  O336  1  0.91298356  0.41525826  0.13370520  1
  O  O337  1  0.90172265  0.40245094  0.45450457  1
  O  O338  1  0.90927721  0.40406702  0.79561640  1
  O  O339  1  0.91249316  0.91415929  0.13345010  1
  O  O340  1  0.90716100  0.90732768  0.45368593  1
  O  O341  1  0.91778240  0.93471734  0.80152991  1
  O  O342  1  0.41170751  0.40966692  0.29474421  1
  O  O343  1  0.41030080  0.41258446  0.62962088  1
  O  O344  1  0.41417837  0.41783816  0.96501715  1
  O  O345  1  0.42671333  0.91306995  0.29203529  1
  O  O346  1  0.41549273  0.91077726  0.63471037  1
  O  O347  1  0.40141892  0.91579434  0.96938849  1
  O  O348  1  0.91223377  0.40844307  0.29538809  1
  O  O349  1  0.91427281  0.40337446  0.62830148  1
  O  O350  1  0.91171163  0.42129327  0.97239810  1
  O  O351  1  0.91759386  0.90895914  0.29146202  1
  O  O352  1  0.93312384  0.91377037  0.61864866  1
  O  O353  1  0.91351701  0.90985109  0.96620626  1
  O  O354  1  0.07255575  0.07818417  0.19978073  1
  O  O355  1  0.09126123  0.08136703  0.53938802  1
  O  O356  1  0.08263089  0.06492965  0.86509148  1
  O  O357  1  0.08813060  0.58561268  0.20540511  1
  O  O358  1  0.09586201  0.59297280  0.53699038  1
  O  O359  1  0.08693990  0.58723210  0.87902374  1
  O  O360  1  0.58465084  0.08691523  0.20141992  1
  O  O361  1  0.57406375  0.08647109  0.51696566  1
  O  O362  1  0.59223374  0.09099705  0.87566138  1
  O  O363  1  0.59187712  0.58780284  0.20242900  1
  O  O364  1  0.59371539  0.59484660  0.53584043  1
  O  O365  1  0.58668204  0.57069070  0.87159899  1
  O  O366  1  0.13422367  0.21653477  0.06203798  1
  O  O367  1  0.13322089  0.22645016  0.39767052  1
  O  O368  1  0.12946739  0.21150684  0.70930893  1
  O  O369  1  0.13886946  0.71972096  0.06310009  1
  O  O370  1  0.13843251  0.72288372  0.39384920  1
  O  O371  1  0.13468353  0.72759902  0.72448295  1
  O  O372  1  0.64135385  0.22032543  0.05600227  1
  O  O373  1  0.63678974  0.22404704  0.38664508  1
  O  O374  1  0.63816614  0.22762750  0.72661091  1
  O  O375  1  0.63629925  0.71799252  0.05606712  1
  O  O376  1  0.64512033  0.71895801  0.38990995  1
  O  O377  1  0.64906617  0.72439548  0.72446677  1
  O  O378  1  0.27572689  0.35979774  0.10504083  1
  O  O379  1  0.28070727  0.36193825  0.44393916  1
  O  O380  1  0.29279722  0.36477727  0.78823624  1
  O  O381  1  0.28473572  0.86483595  0.10416381  1
  O  O382  1  0.28015471  0.86272467  0.44675521  1
  O  O383  1  0.27414086  0.85705491  0.77283153  1
  O  O384  1  0.77858970  0.36138769  0.11135074  1
  O  O385  1  0.76724965  0.36019865  0.43915453  1
  O  O386  1  0.77369076  0.35809211  0.77778096  1
  O  O387  1  0.77731633  0.85990022  0.10554417  1
  O  O388  1  0.77339842  0.86271078  0.43907269  1
  O  O389  1  0.78904426  0.86861236  0.78217638  1
  O  O390  1  0.36016747  0.27422600  0.26938890  1
  O  O391  1  0.36313609  0.27589983  0.60511516  1
  O  O392  1  0.36206867  0.28448603  0.94807372  1
  O  O393  1  0.37031616  0.78107305  0.27142656  1
  O  O394  1  0.36292371  0.77639421  0.61151663  1
  O  O395  1  0.36322057  0.77636249  0.94231030  1
  O  O396  1  0.85913006  0.27523447  0.27485751  1
  O  O397  1  0.85663937  0.27067994  0.60393824  1
  O  O398  1  0.86050221  0.28591388  0.94864040  1
  O  O399  1  0.85892996  0.77815891  0.27436589  1
  O  O400  1  0.86974704  0.78627654  0.60626405  1
  O  O401  1  0.85926825  0.77724535  0.94749421  1
  O  O402  1  0.20509403  0.13280342  0.21871987  1
  O  O403  1  0.22449299  0.13470201  0.55623155  1
  O  O404  1  0.21242023  0.13225369  0.89116473  1
  O  O405  1  0.22219022  0.64065147  0.22696399  1
  O  O406  1  0.23071577  0.63762314  0.55635998  1
  O  O407  1  0.21622718  0.63288047  0.88253883  1
  O  O408  1  0.71870317  0.14041232  0.22353612  1
  O  O409  1  0.71126977  0.13968343  0.55344585  1
  O  O410  1  0.72431320  0.14456739  0.89176246  1
  O  O411  1  0.72669533  0.63790071  0.22512710  1
  O  O412  1  0.73108141  0.64072722  0.56101578  1
  O  O413  1  0.71743809  0.63417505  0.89400356  1
  O  O414  1  0.49392497  0.34047440  0.03230666  1
  O  O415  1  0.48910643  0.33046569  0.36143619  1
  O  O416  1  0.48990840  0.33448721  0.69774624  1
  O  O417  1  0.49041956  0.83991188  0.03110639  1
  O  O418  1  0.50209148  0.83251782  0.35924657  1
  O  O419  1  0.49188631  0.83217568  0.70338743  1
  O  O420  1  0.99192549  0.34169351  0.03453343  1
  O  O421  1  0.98961072  0.32891531  0.36385278  1
  O  O422  1  0.98775029  0.32175754  0.69514267  1
  O  O423  1  0.99077008  0.83352448  0.03533570  1
  O  O424  1  0.99057185  0.82849098  0.36169553  1
  O  O425  1  1.00173663  0.83509685  0.69258198  1
  O  O426  1  0.15473682  -0.00328793  0.14215155  1
  O  O427  1  0.16955418  0.00475592  0.47036119  1
  O  O428  1  0.16901642  0.00336225  0.79748079  1
  O  O429  1  0.16642525  0.51031178  0.13694304  1
  O  O430  1  0.16832354  0.50913109  0.46662305  1
  O  O431  1  0.15606932  0.49702780  0.80880303  1
  O  O432  1  0.66523602  0.00940028  0.13599159  1
  O  O433  1  0.66411511  0.00839370  0.46512877  1
  O  O434  1  0.66966307  0.01335229  0.80507236  1
  O  O435  1  0.67038951  0.50767514  0.13627767  1
  O  O436  1  0.67108187  0.51144508  0.47170881  1
  O  O437  1  0.67001617  0.50419580  0.80307594  1
  O  O438  1  0.00726874  0.16470882  0.30397226  1
  O  O439  1  -0.00112283  0.15237034  0.62581426  1
  O  O440  1  0.00051030  0.17764932  0.97641879  1
  O  O441  1  0.00795669  0.66722429  0.30407241  1
  O  O442  1  0.00862528  0.66369700  0.63555794  1
  O  O443  1  0.00765886  0.67033316  0.97178747  1
  O  O444  1  0.50505394  0.16712487  0.30048487  1
  O  O445  1  0.50993972  0.16942017  0.63662711  1
  O  O446  1  0.50800393  0.17150279  0.97075911  1
  O  O447  1  0.51392789  0.66771425  0.30338735  1
  O  O448  1  0.51749385  0.67281280  0.63594550  1
  O  O449  1  0.50127388  0.66465562  0.97452559  1
  O  O450  1  0.32848913  0.48994483  0.19502395  1
  O  O451  1  0.33148853  0.49380992  0.52903380  1
  O  O452  1  0.34004364  0.50048764  0.86450567  1
  O  O453  1  0.33608770  0.99694267  0.19419670  1
  O  O454  1  0.33227437  0.99245270  0.53873558  1
  O  O455  1  0.32717542  0.98491414  0.86735086  1
  O  O456  1  0.83327071  0.49190438  0.20006770  1
  O  O457  1  0.83229322  0.48626892  0.53040595  1
  O  O458  1  0.83351736  0.48854194  0.86203573  1
  O  O459  1  0.82956258  0.99005382  0.19696259  1
  O  O460  1  0.83556857  0.99382943  0.52408880  1
  O  O461  1  0.83529579  0.99882140  0.87258375  1
