# generated using pymatgen
data_Na31Fe20(SO4)36
_symmetry_space_group_name_H-M   'P 1'
_cell_length_a   18.08054589
_cell_length_b   18.07507167
_cell_length_c   19.71148382
_cell_angle_alpha   107.56208985
_cell_angle_beta   107.58296882
_cell_angle_gamma   90.73199385
_symmetry_Int_Tables_number   1
_chemical_formula_structural   Na31Fe20(SO4)36
_chemical_formula_sum   'Na62 Fe40 S72 O288'
_cell_volume   5816.26663448
_cell_formula_units_Z   2
loop_
 _symmetry_equiv_pos_site_id
 _symmetry_equiv_pos_as_xyz
  1  'x, y, z'
loop_
 _atom_site_type_symbol
 _atom_site_label
 _atom_site_symmetry_multiplicity
 _atom_site_fract_x
 _atom_site_fract_y
 _atom_site_fract_z
 _atom_site_occupancy
  Na  Na0  1  0.13068387  0.37352605  0.08629372  1
  Na  Na1  1  0.13611913  0.36786081  0.42054687  1
  Na  Na2  1  0.12482950  0.35393557  0.73983226  1
  Na  Na3  1  0.13634656  0.87138534  0.09099839  1
  Na  Na4  1  0.12503063  0.86783757  0.41324514  1
  Na  Na5  1  0.13095165  0.86830036  0.74974244  1
  Na  Na6  1  0.63479987  0.36824366  0.08450878  1
  Na  Na7  1  0.64720493  0.36120152  0.42571376  1
  Na  Na8  1  0.63650988  0.37191062  0.75082698  1
  Na  Na9  1  0.65585910  0.86272654  0.10119253  1
  Na  Na10  1  0.63633595  0.86660526  0.41599293  1
  Na  Na11  1  0.63953068  0.85729520  0.74533404  1
  Na  Na12  1  0.36509029  0.12691664  0.25207665  1
  Na  Na13  1  0.37181395  0.13036353  0.58754561  1
  Na  Na14  1  0.37126862  0.13131102  0.91896418  1
  Na  Na15  1  0.38029773  0.64159474  0.25490603  1
  Na  Na16  1  0.37016189  0.63212682  0.58332524  1
  Na  Na17  1  0.36339142  0.63070382  0.91265016  1
  Na  Na18  1  0.85480436  0.12984781  0.24155532  1
  Na  Na19  1  0.86425921  0.13943679  0.58101972  1
  Na  Na20  1  0.85415108  0.14088519  0.91879492  1
  Na  Na21  1  0.86238515  0.64145450  0.25545966  1
  Na  Na22  1  0.85220393  0.64818204  0.58573488  1
  Na  Na23  1  0.85733677  0.62866014  0.90373907  1
  Na  Na24  1  0.49907164  0.55196795  0.10837507  1
  Na  Na25  1  0.50374762  0.50514382  0.40272162  1
  Na  Na26  1  0.95842017  0.01935850  0.72780939  1
  Na  Na27  1  0.51286460  0.00090235  0.73230595  1
  Na  Na28  1  0.98273608  0.51727916  0.41666696  1
  Na  Na29  1  0.97742814  0.49413060  0.76121729  1
  Na  Na30  1  0.46677530  0.00445122  0.42071664  1
  Na  Na31  1  0.54646896  -0.02035370  0.03258845  1
  Na  Na32  1  0.97348143  0.00753980  0.09035167  1
  Na  Na33  1  0.00058351  0.51327939  0.22158744  1
  Na  Na34  1  0.51421482  0.49072886  0.90474064  1
  Na  Na35  1  0.00490521  0.46056508  0.92283560  1
  Na  Na36  1  -0.00167658  0.47850065  0.58936461  1
  Na  Na37  1  0.00377533  0.98929248  0.28214090  1
  Na  Na38  1  -0.00963752  1.01235723  0.54747749  1
  Na  Na39  1  0.00409562  0.99822296  0.91455187  1
  Na  Na40  1  0.54214334  0.49494414  0.60727250  1
  Na  Na41  1  0.50658838  0.98530876  0.24652826  1
  Na  Na42  1  0.26173578  0.76671202  0.32762169  1
  Na  Na43  1  0.24668230  0.24426497  0.33951614  1
  Na  Na44  1  0.24434544  0.25080183  0.00252069  1
  Na  Na45  1  0.25326519  0.75386907  0.66275305  1
  Na  Na46  1  0.23091779  0.23306979  0.66988109  1
  Na  Na47  1  0.76688484  0.26443774  0.65787314  1
  Na  Na48  1  0.74301228  0.73788340  0.00757776  1
  Na  Na49  1  0.25077473  0.75331019  -0.00215842  1
  Na  Na50  1  0.76203564  0.76395837  0.32779872  1
  Na  Na51  1  0.74288820  0.23471459  0.34466173  1
  Na  Na52  1  0.75007530  0.75244790  0.82794568  1
  Na  Na53  1  0.23669311  0.23756874  0.50864910  1
  Na  Na54  1  0.24499935  0.24487668  0.17154162  1
  Na  Na55  1  0.26337945  0.76668226  0.16573185  1
  Na  Na56  1  0.24974597  0.75033675  0.49512604  1
  Na  Na57  1  0.74667058  0.24515705  0.15806141  1
  Na  Na58  1  0.76576360  0.77271542  0.50049850  1
  Na  Na59  1  0.25314755  0.75532290  0.82864489  1
  Na  Na60  1  0.23924521  0.23954067  0.83729027  1
  Na  Na61  1  0.75803717  0.25733819  0.83194354  1
  Fe  Fe62  1  0.47026598  0.80523493  0.45270276  1
  Fe  Fe63  1  0.96220334  0.80485607  0.11770088  1
  Fe  Fe64  1  0.46512665  0.31208302  0.12079417  1
  Fe  Fe65  1  0.46657812  0.30744226  0.45291874  1
  Fe  Fe66  1  0.96948474  0.29808146  0.45569379  1
  Fe  Fe67  1  0.46843459  0.80996298  0.79169463  1
  Fe  Fe68  1  0.96228761  0.81301175  0.78199148  1
  Fe  Fe69  1  0.46557513  0.30238880  0.78383038  1
  Fe  Fe70  1  0.96267007  0.30824693  0.12092844  1
  Fe  Fe71  1  0.47077444  0.79853722  0.12497431  1
  Fe  Fe72  1  0.19670102  0.03365166  0.04763407  1
  Fe  Fe73  1  0.19090657  0.53564034  0.04513159  1
  Fe  Fe74  1  0.20143854  0.03079891  0.37809286  1
  Fe  Fe75  1  0.19470216  0.53513599  0.38024028  1
  Fe  Fe76  1  0.69627577  0.02739071  0.70574599  1
  Fe  Fe77  1  0.69317637  0.53653772  0.05248959  1
  Fe  Fe78  1  0.19278187  0.53514769  0.71269167  1
  Fe  Fe79  1  0.69453043  0.03913026  0.38476065  1
  Fe  Fe80  1  0.18921820  0.03083780  0.70831141  1
  Fe  Fe81  1  0.68859594  0.53341648  0.37955019  1
  Fe  Fe82  1  0.53702427  0.68477970  0.87701878  1
  Fe  Fe83  1  0.03538416  0.19474907  0.21296540  1
  Fe  Fe84  1  0.03398258  0.69436228  0.87838961  1
  Fe  Fe85  1  0.53414499  0.18723118  0.20998844  1
  Fe  Fe86  1  0.54057054  0.69030614  0.55162084  1
  Fe  Fe87  1  0.53689203  0.19236886  0.54774070  1
  Fe  Fe88  1  0.02335689  0.19935214  0.87433594  1
  Fe  Fe89  1  0.03152692  0.69648626  0.21482178  1
  Fe  Fe90  1  0.53882212  0.18864873  0.88285685  1
  Fe  Fe91  1  0.02924524  0.69838010  0.54356828  1
  Fe  Fe92  1  0.31301358  0.46540366  0.62009324  1
  Fe  Fe93  1  0.81026031  0.96448509  0.28987380  1
  Fe  Fe94  1  0.31313983  0.96451627  0.95693464  1
  Fe  Fe95  1  0.30761050  0.46728180  0.28387018  1
  Fe  Fe96  1  0.80567055  0.46174205  0.28555580  1
  Fe  Fe97  1  0.30672193  0.46431350  0.95163468  1
  Fe  Fe98  1  0.79757825  0.47087598  0.62278853  1
  Fe  Fe99  1  0.30865845  0.96208646  0.62070066  1
  Fe  Fe100  1  0.79788668  0.97136643  0.95458944  1
  Fe  Fe101  1  0.80533997  0.46398192  0.95342678  1
  S  S102  1  0.35739781  0.14403299  0.08375596  1
  S  S103  1  0.36153825  0.14324382  0.41938678  1
  S  S104  1  0.36135505  0.13810158  0.75035303  1
  S  S105  1  0.35264717  0.64024589  0.07889089  1
  S  S106  1  0.36323444  0.63994355  0.41681967  1
  S  S107  1  0.35772827  0.63995450  0.75139152  1
  S  S108  1  0.86106755  0.14114642  0.08548740  1
  S  S109  1  0.86216845  0.13818700  0.41452373  1
  S  S110  1  0.85033465  0.14347918  0.75137790  1
  S  S111  1  0.86140780  0.63593681  0.08291200  1
  S  S112  1  0.85636496  0.63743645  0.41861218  1
  S  S113  1  0.86285229  0.64324076  0.74985472  1
  S  S114  1  0.14118041  0.36245747  0.24944170  1
  S  S115  1  0.14361687  0.36298475  0.58212414  1
  S  S116  1  0.14173260  0.35998893  0.91610601  1
  S  S117  1  0.13698167  0.85918581  0.24972821  1
  S  S118  1  0.14649886  0.85654514  0.58318422  1
  S  S119  1  0.13894624  0.86182001  0.91708375  1
  S  S120  1  0.63917829  0.35622602  0.25134829  1
  S  S121  1  0.63951951  0.35653709  0.58256800  1
  S  S122  1  0.63750442  0.35963957  0.91748149  1
  S  S123  1  0.64028574  0.86438471  0.25254115  1
  S  S124  1  0.63875611  0.85867523  0.58569572  1
  S  S125  1  0.64149665  0.85385459  0.91892315  1
  S  S126  1  0.06962321  0.17290161  0.04040234  1
  S  S127  1  0.07416704  0.17237153  0.37473155  1
  S  S128  1  0.06254993  0.15896334  0.70540451  1
  S  S129  1  0.06839075  0.67194207  0.04033338  1
  S  S130  1  0.06567720  0.65758127  0.37102239  1
  S  S131  1  0.07040427  0.67075035  0.70699914  1
  S  S132  1  0.56458892  0.17670811  0.04638586  1
  S  S133  1  0.56447232  0.16922978  0.37342911  1
  S  S134  1  0.57199048  0.17205293  0.71160418  1
  S  S135  1  0.56349635  0.66514977  0.03796033  1
  S  S136  1  0.56964600  0.67192309  0.38156631  1
  S  S137  1  0.56284308  0.67065987  0.71435482  1
  S  S138  1  0.32860606  0.43556464  0.12265987  1
  S  S139  1  0.33268443  0.43402914  0.45598984  1
  S  S140  1  0.32657857  0.42727113  0.78744880  1
  S  S141  1  0.33264412  0.93204640  0.12344788  1
  S  S142  1  0.32933701  0.93001815  0.45963520  1
  S  S143  1  0.32973338  0.93111705  0.79278529  1
  S  S144  1  0.82871310  0.43217083  0.12831866  1
  S  S145  1  0.83002209  0.43314155  0.45629168  1
  S  S146  1  0.83116741  0.43477361  0.79363114  1
  S  S147  1  0.83898498  0.93189497  0.12580576  1
  S  S148  1  0.82994650  0.93879341  0.45425178  1
  S  S149  1  0.82796358  0.93548402  0.79518959  1
  S  S150  1  0.43007869  0.32910741  0.28987081  1
  S  S151  1  0.43214419  0.32916752  0.62248287  1
  S  S152  1  0.43057078  0.33030168  0.95547578  1
  S  S153  1  0.43793190  0.83498422  0.29233945  1
  S  S154  1  0.43204543  0.82629417  0.62621718  1
  S  S155  1  0.43243883  0.82322241  0.95790187  1
  S  S156  1  0.93299737  0.32793144  0.29168005  1
  S  S157  1  0.93214638  0.34319809  0.62646829  1
  S  S158  1  0.93371533  0.33107458  0.96247541  1
  S  S159  1  0.93220584  0.82580407  0.28901343  1
  S  S160  1  0.94127050  0.83578936  0.62420812  1
  S  S161  1  0.93303219  0.83295294  0.95670133  1
  S  S162  1  0.16811814  0.06981766  0.20669392  1
  S  S163  1  0.17562438  0.06289979  0.54247474  1
  S  S164  1  0.16911128  0.06652356  0.87643027  1
  S  S165  1  0.17654626  0.57424290  0.21181925  1
  S  S166  1  0.16988958  0.57049241  0.54174895  1
  S  S167  1  0.16739554  0.56613086  0.87375084  1
  S  S168  1  0.66486697  0.06476633  0.20790378  1
  S  S169  1  0.66499079  0.06849626  0.54300097  1
  S  S170  1  0.66870941  0.06766966  0.86922391  1
  S  S171  1  0.67334755  0.56588892  0.21607816  1
  S  S172  1  0.66380534  0.56252423  0.53903517  1
  S  S173  1  0.67038208  0.56237216  0.87916407  1
  O  O174  1  0.36402044  0.22339432  0.07577884  1
  O  O175  1  0.37016512  0.22415521  0.41351180  1
  O  O176  1  0.36879505  0.21483427  0.73677442  1
  O  O177  1  0.36541938  0.71967300  0.07259373  1
  O  O178  1  0.37064183  0.71833532  0.40710806  1
  O  O179  1  0.36314314  0.72100826  0.74742748  1
  O  O180  1  0.87337779  0.22048966  0.07939953  1
  O  O181  1  0.87391747  0.21581780  0.40228654  1
  O  O182  1  0.85205439  0.22513461  0.75442118  1
  O  O183  1  0.87108832  0.71362201  0.07178345  1
  O  O184  1  0.86162810  0.71363709  0.40841094  1
  O  O185  1  0.87880334  0.72134152  0.74235652  1
  O  O186  1  0.27710540  0.13305929  0.08967356  1
  O  O187  1  0.28119370  0.13455172  0.42522579  1
  O  O188  1  0.28048251  0.12898199  0.75475889  1
  O  O189  1  0.27053369  0.63485488  0.08144324  1
  O  O190  1  0.28342472  0.62998068  0.42341118  1
  O  O191  1  0.27975410  0.62806106  0.76227878  1
  O  O192  1  0.78695573  0.13079904  0.09771393  1
  O  O193  1  0.77996978  0.13429020  0.41724708  1
  O  O194  1  0.77106183  0.12262259  0.75927388  1
  O  O195  1  0.78374146  0.62919226  0.09333221  1
  O  O196  1  0.77935244  0.62365963  0.42946879  1
  O  O197  1  0.79164783  0.63987595  0.76904452  1
  O  O198  1  0.13368861  0.28106109  0.25255259  1
  O  O199  1  0.14018790  0.28642559  0.59230227  1
  O  O200  1  0.13067509  0.27986935  0.92145063  1
  O  O201  1  0.12554809  0.78295987  0.26421728  1
  O  O202  1  0.13396079  0.77500601  0.58555247  1
  O  O203  1  0.12961695  0.78233355  0.92411274  1
  O  O204  1  0.62720005  0.27687263  0.25827892  1
  O  O205  1  0.63186485  0.27529671  0.58661907  1
  O  O206  1  0.62650442  0.28142932  0.92452566  1
  O  O207  1  0.63751786  0.79130454  0.26865425  1
  O  O208  1  0.62393924  0.78477936  0.60134950  1
  O  O209  1  0.63380313  0.76968383  0.91607727  1
  O  O210  1  0.21769588  0.37222663  0.23632245  1
  O  O211  1  0.22043013  0.37733679  0.56999252  1
  O  O212  1  0.22471287  0.36767785  0.91509849  1
  O  O213  1  0.21430514  0.86536681  0.24187386  1
  O  O214  1  0.23079725  0.86217898  0.58394997  1
  O  O215  1  0.21755572  0.86956586  0.90807130  1
  O  O216  1  0.71872380  0.36275146  0.24372377  1
  O  O217  1  0.71787028  0.36843128  0.57505827  1
  O  O218  1  0.71575605  0.36864099  0.90827849  1
  O  O219  1  0.71609251  0.87842933  0.23915433  1
  O  O220  1  0.71478606  0.86541020  0.57692463  1
  O  O221  1  0.72141173  0.86776978  0.91364549  1
  O  O222  1  0.41432238  0.13754991  0.15292898  1
  O  O223  1  0.41866534  0.13687437  0.48994628  1
  O  O224  1  0.41798617  0.13625224  0.82187303  1
  O  O225  1  0.40702120  0.62846882  0.14530100  1
  O  O226  1  0.42086508  0.63338947  0.48587247  1
  O  O227  1  0.41780531  0.62893001  0.81643314  1
  O  O228  1  0.92577726  0.12988877  0.15030714  1
  O  O229  1  0.91752390  0.13129973  0.48229240  1
  O  O230  1  0.91016176  0.13222589  0.81938788  1
  O  O231  1  0.92195195  0.62840956  0.15082353  1
  O  O232  1  0.91765289  0.63069499  0.48736663  1
  O  O233  1  0.92912165  0.62772426  0.81130649  1
  O  O234  1  0.36590410  0.08534731  0.01618018  1
  O  O235  1  0.37231575  0.08518871  0.35451258  1
  O  O236  1  0.37463299  0.07607972  0.68700530  1
  O  O237  1  0.36069524  0.58173489  0.00961356  1
  O  O238  1  0.37329285  0.58000929  0.35013618  1
  O  O239  1  0.36166429  0.58434754  0.68001028  1
  O  O240  1  0.86817721  0.08306126  0.01549872  1
  O  O241  1  0.86935999  0.07835495  0.34504046  1
  O  O242  1  0.86003698  0.09058359  0.68303199  1
  O  O243  1  0.86791382  0.57612131  0.01510788  1
  O  O244  1  0.86779485  0.57542974  0.35269296  1
  O  O245  1  0.86149490  0.58430146  0.67752229  1
  O  O246  1  0.07853207  0.37538186  0.18642250  1
  O  O247  1  0.08159498  0.36960546  0.51478759  1
  O  O248  1  0.08745357  0.37203784  0.84993827  1
  O  O249  1  0.07663697  0.86346519  0.18032479  1
  O  O250  1  0.09474018  0.87086768  0.51779996  1
  O  O251  1  0.07919677  0.87262119  0.85095351  1
  O  O252  1  0.58155679  0.36570613  0.18336755  1
  O  O253  1  0.58000196  0.36402079  0.51286618  1
  O  O254  1  0.57719228  0.36960850  0.85002487  1
  O  O255  1  0.57855454  0.86534950  0.18133520  1
  O  O256  1  0.57742399  0.86696239  0.51882229  1
  O  O257  1  0.58382834  0.86591108  0.85172142  1
  O  O258  1  0.13924371  0.41737369  0.32172122  1
  O  O259  1  0.13453728  0.42394428  0.64942887  1
  O  O260  1  0.13337455  0.41805754  0.98593504  1
  O  O261  1  0.12717241  0.92238718  0.31508856  1
  O  O262  1  0.14108238  0.91196821  0.65470678  1
  O  O263  1  0.13183554  0.92018688  0.98603362  1
  O  O264  1  0.63219612  0.41457900  0.31993387  1
  O  O265  1  0.62783168  0.41212437  0.64861653  1
  O  O266  1  0.62992019  0.41963475  0.98544665  1
  O  O267  1  0.62660383  0.92920014  0.31491695  1
  O  O268  1  0.63143452  0.92261495  0.65436856  1
  O  O269  1  0.63284102  0.90385970  0.98900875  1
  O  O270  1  0.03469621  0.20253317  0.10226928  1
  O  O271  1  0.03930763  0.20212320  0.43451077  1
  O  O272  1  0.03297363  0.17768629  0.77066356  1
  O  O273  1  0.03321013  0.69931873  0.10218925  1
  O  O274  1  0.03053819  0.67670056  0.43119482  1
  O  O275  1  0.04036349  0.70352927  0.77170685  1
  O  O276  1  0.52122679  0.20687025  0.10360645  1
  O  O277  1  0.52777707  0.19952551  0.43440378  1
  O  O278  1  0.53237811  0.19741070  0.77136255  1
  O  O279  1  0.52735227  0.69288903  0.09780900  1
  O  O280  1  0.53504333  0.70219419  0.44634205  1
  O  O281  1  0.52012142  0.70504494  0.77122764  1
  O  O282  1  0.29809811  0.47417748  0.06295033  1
  O  O283  1  0.30153217  0.47051333  0.39474341  1
  O  O284  1  0.30040625  0.46474688  0.72678467  1
  O  O285  1  0.30159012  0.96582276  0.05829117  1
  O  O286  1  0.30070127  0.96824709  0.40132526  1
  O  O287  1  0.30048322  0.97057227  0.73461466  1
  O  O288  1  0.79705009  0.46557875  0.06563271  1
  O  O289  1  0.79537885  0.46590701  0.39293142  1
  O  O290  1  0.80718354  0.47173277  0.73404804  1
  O  O291  1  0.82215282  0.96737057  0.06529646  1
  O  O292  1  0.78902861  0.97163381  0.38956700  1
  O  O293  1  0.79483021  0.96898846  0.73337595  1
  O  O294  1  0.46455681  0.30015735  0.22795652  1
  O  O295  1  0.47114280  0.29880069  0.56343257  1
  O  O296  1  0.46648872  0.29917570  0.89445688  1
  O  O297  1  0.46623959  0.79669084  0.22867136  1
  O  O298  1  0.46431148  0.79732586  0.56320465  1
  O  O299  1  0.46909165  0.79331098  0.89711808  1
  O  O300  1  0.97326095  0.30127271  0.23267156  1
  O  O301  1  0.96232771  0.32457349  0.56137204  1
  O  O302  1  0.97388144  0.30610856  0.90524064  1
  O  O303  1  0.96166797  0.79270686  0.22095353  1
  O  O304  1  0.97998481  0.79924632  0.56766662  1
  O  O305  1  0.97015250  0.80286352  0.89600804  1
  O  O306  1  0.19059762  0.03698844  0.26835621  1
  O  O307  1  0.20933988  0.02428603  0.60320120  1
  O  O308  1  0.20151053  0.03017287  0.93754886  1
  O  O309  1  0.20476359  0.53460446  0.27118549  1
  O  O310  1  0.20064188  0.53667562  0.60417220  1
  O  O311  1  0.19701497  0.52807923  0.93356766  1
  O  O312  1  0.69926097  0.03793495  0.27471129  1
  O  O313  1  0.68413043  0.03174648  0.60371997  1
  O  O314  1  0.69658459  0.02963384  0.92720302  1
  O  O315  1  0.70542036  0.52254512  0.27263837  1
  O  O316  1  0.69403600  0.52811831  0.59986706  1
  O  O317  1  0.70208103  0.53062933  0.94534290  1
  O  O318  1  0.08839788  0.09107760  0.03452323  1
  O  O319  1  0.09848794  0.09312008  0.37208982  1
  O  O320  1  0.08508419  0.07607042  0.69291087  1
  O  O321  1  0.08655644  0.58980672  0.03168109  1
  O  O322  1  0.08326533  0.57284983  0.35574617  1
  O  O323  1  0.08509452  0.58747986  0.70017444  1
  O  O324  1  0.58709716  0.10054706  0.04796891  1
  O  O325  1  0.58258573  0.08780549  0.36924455  1
  O  O326  1  0.59463177  0.09181568  0.70727033  1
  O  O327  1  0.58150491  0.58242835  0.03427221  1
  O  O328  1  0.58908744  0.59075840  0.38078521  1
  O  O329  1  0.57837280  0.59274578  0.71671182  1
  O  O330  1  0.40769818  0.41451965  0.12297731  1
  O  O331  1  0.41429490  0.41733792  0.46042044  1
  O  O332  1  0.40774132  0.40722182  0.79526001  1
  O  O333  1  0.40974661  0.90415323  0.12281758  1
  O  O334  1  0.40795045  0.90647741  0.45901778  1
  O  O335  1  0.40878027  0.90914282  0.79364403  1
  O  O336  1  0.90941939  0.41222165  0.13089022  1
  O  O337  1  0.91394481  0.42337593  0.46163047  1
  O  O338  1  0.91322047  0.41850640  0.80652301  1
  O  O339  1  0.92492666  0.91858929  0.14440736  1
  O  O340  1  0.90450433  0.91601615  0.44516818  1
  O  O341  1  0.91122750  0.92185912  0.79812884  1
  O  O342  1  0.40998798  0.41039786  0.29519904  1
  O  O343  1  0.41568030  0.41052298  0.62510732  1
  O  O344  1  0.41286816  0.41175623  0.95859853  1
  O  O345  1  0.43049351  0.91788368  0.29908269  1
  O  O346  1  0.41215100  0.90770979  0.63315378  1
  O  O347  1  0.41672874  0.90565537  0.96352301  1
  O  O348  1  0.91560005  0.41021008  0.29827142  1
  O  O349  1  0.90434169  0.42429230  0.63383894  1
  O  O350  1  0.91270756  0.41187029  0.96706964  1
  O  O351  1  0.91123684  0.90602884  0.28860217  1
  O  O352  1  0.92972385  0.91576779  0.62473437  1
  O  O353  1  0.91678533  0.91515726  0.96158633  1
  O  O354  1  0.08474333  0.08750813  0.19074747  1
  O  O355  1  0.09761297  0.08034617  0.54178617  1
  O  O356  1  0.08755506  0.08213285  0.87258914  1
  O  O357  1  0.09682524  0.59524603  0.20924011  1
  O  O358  1  0.08847507  0.58855448  0.53650855  1
  O  O359  1  0.08583976  0.58412331  0.86872685  1
  O  O360  1  0.58257665  0.08324159  0.20580978  1
  O  O361  1  0.58132065  0.08601572  0.52807783  1
  O  O362  1  0.58460235  0.08177158  0.85961055  1
  O  O363  1  0.59505103  0.58222856  0.21618846  1
  O  O364  1  0.57987350  0.57708236  0.53471378  1
  O  O365  1  0.59007281  0.58352123  0.88005236  1
  O  O366  1  0.14076100  0.22585108  0.05692817  1
  O  O367  1  0.14342079  0.22728401  0.38743262  1
  O  O368  1  0.13424199  0.21405468  0.72530847  1
  O  O369  1  0.13915619  0.72540552  0.05701529  1
  O  O370  1  0.13683384  0.71010579  0.38870375  1
  O  O371  1  0.14354733  0.71921432  0.72026251  1
  O  O372  1  0.63147259  0.23443412  0.06421474  1
  O  O373  1  0.63429969  0.22134460  0.38799125  1
  O  O374  1  0.63987857  0.22840312  0.72943843  1
  O  O375  1  0.63397479  0.71569889  0.05068487  1
  O  O376  1  0.64131052  0.72368872  0.39914157  1
  O  O377  1  0.63296149  0.72432631  0.73252483  1
  O  O378  1  0.27404951  0.36603232  0.10691218  1
  O  O379  1  0.28085506  0.36285861  0.43985175  1
  O  O380  1  0.27198392  0.35764382  0.77078462  1
  O  O381  1  0.27460396  0.86457895  0.10777764  1
  O  O382  1  0.27445809  0.86041216  0.44498740  1
  O  O383  1  0.27488135  0.86138749  0.77653987  1
  O  O384  1  0.77702617  0.36447108  0.11950238  1
  O  O385  1  0.78440087  0.35849170  0.44068863  1
  O  O386  1  0.77664211  0.36381577  0.77461988  1
  O  O387  1  0.78918972  0.85824896  0.10427204  1
  O  O388  1  0.77552870  0.86990896  0.44281283  1
  O  O389  1  0.78154367  0.86327061  0.78436722  1
  O  O390  1  0.35976150  0.27645669  0.27597824  1
  O  O391  1  0.36022873  0.27771500  0.60531129  1
  O  O392  1  0.35936997  0.27818033  0.94032648  1
  O  O393  1  0.36247535  0.78970255  0.28022213  1
  O  O394  1  0.36231675  0.77277431  0.61265785  1
  O  O395  1  0.35834646  0.77309514  0.93860199  1
  O  O396  1  0.86146283  0.27506286  0.27069911  1
  O  O397  1  0.86796497  0.28507680  0.61360170  1
  O  O398  1  0.86392417  0.27748118  0.94559404  1
  O  O399  1  0.86168502  0.77495060  0.27605190  1
  O  O400  1  0.86866943  0.78639467  0.60981813  1
  O  O401  1  0.86214372  0.78079765  0.94057845  1
  O  O402  1  0.22095463  0.14171995  0.22390055  1
  O  O403  1  0.23044415  0.13444972  0.56195585  1
  O  O404  1  0.22066873  0.13913940  0.89363000  1
  O  O405  1  0.23146052  0.64331676  0.22836943  1
  O  O406  1  0.22282740  0.64022499  0.55483409  1
  O  O407  1  0.21938679  0.63816102  0.89153790  1
  O  O408  1  0.71322879  0.13707262  0.21859667  1
  O  O409  1  0.71897028  0.13884467  0.56385374  1
  O  O410  1  0.71710116  0.13999635  0.88446856  1
  O  O411  1  0.72804271  0.63524130  0.23447131  1
  O  O412  1  0.71045526  0.63437841  0.54994726  1
  O  O413  1  0.72216701  0.63390942  0.89480534  1
  O  O414  1  0.48929311  0.33391698  0.02847613  1
  O  O415  1  0.49097916  0.33350213  0.36211836  1
  O  O416  1  0.48944015  0.33115550  0.69594475  1
  O  O417  1  0.48973078  0.82277436  0.02960796  1
  O  O418  1  0.49565359  0.83178537  0.36463328  1
  O  O419  1  0.49344808  0.83125444  0.69856173  1
  O  O420  1  0.99241646  0.33540875  0.03696457  1
  O  O421  1  0.99058064  0.32852617  0.36429170  1
  O  O422  1  0.99711413  0.35417605  0.69595202  1
  O  O423  1  0.99144060  0.83586061  0.03035487  1
  O  O424  1  0.99618511  0.82921482  0.35516955  1
  O  O425  1  0.99672068  0.83903868  0.70149694  1
  O  O426  1  0.17212126  0.00994042  0.13629070  1
  O  O427  1  0.17656316  0.00666518  0.46958204  1
  O  O428  1  0.16975371  0.00895078  0.80431810  1
  O  O429  1  0.17170624  0.51458998  0.13861744  1
  O  O430  1  0.16727935  0.50941514  0.46970917  1
  O  O431  1  0.16567701  0.50810613  0.80102167  1
  O  O432  1  0.65920979  0.00143725  0.13892271  1
  O  O433  1  0.66837134  0.00940257  0.47262843  1
  O  O434  1  0.66626870  0.00840213  0.79389265  1
  O  O435  1  0.67019728  0.50933467  0.14020245  1
  O  O436  1  0.65790971  0.50138927  0.46515864  1
  O  O437  1  0.66469383  0.50180896  0.80999524  1
  O  O438  1  0.01419615  0.16408764  0.29986704  1
  O  O439  1  0.00190670  0.16028301  0.63802594  1
  O  O440  1  0.00979485  0.17021579  0.96820093  1
  O  O441  1  0.00577822  0.65841085  0.29918629  1
  O  O442  1  0.00962719  0.67049360  0.63678077  1
  O  O443  1  0.00832803  0.67202707  0.96891961  1
  O  O444  1  0.50389038  0.16567744  0.30076093  1
  O  O445  1  0.51194321  0.16832501  0.63925357  1
  O  O446  1  0.50706349  0.17120589  0.97099701  1
  O  O447  1  0.50946317  0.66820973  0.31250653  1
  O  O448  1  0.50722613  0.66670075  0.63832692  1
  O  O449  1  0.50348784  0.65852182  0.96351253  1
  O  O450  1  0.33382383  0.49432366  0.19624320  1
  O  O451  1  0.33409413  0.49312234  0.52836771  1
  O  O452  1  0.32805594  0.48797002  0.85926699  1
  O  O453  1  0.34092392  0.99452661  0.19286982  1
  O  O454  1  0.33807991  0.98829657  0.53486738  1
  O  O455  1  0.33526110  0.98899767  0.86733059  1
  O  O456  1  0.83826306  0.49550492  0.20140638  1
  O  O457  1  0.82765138  0.49191775  0.52713692  1
  O  O458  1  0.82761513  0.49259882  0.86617608  1
  O  O459  1  0.83058580  0.98951108  0.19480117  1
  O  O460  1  0.84005860  1.00162966  0.52487123  1
  O  O461  1  0.83321943  0.99605020  0.86858899  1
