# generated using pymatgen
data_Na31Fe20(SO4)36
_symmetry_space_group_name_H-M   'P 1'
_cell_length_a   18.05484215
_cell_length_b   18.05715953
_cell_length_c   19.66921785
_cell_angle_alpha   107.57356140
_cell_angle_beta   107.60364889
_cell_angle_gamma   90.67128566
_symmetry_Int_Tables_number   1
_chemical_formula_structural   Na31Fe20(SO4)36
_chemical_formula_sum   'Na62 Fe40 S72 O288'
_cell_volume   5789.41790144
_cell_formula_units_Z   2
loop_
 _symmetry_equiv_pos_site_id
 _symmetry_equiv_pos_as_xyz
  1  'x, y, z'
loop_
 _atom_site_type_symbol
 _atom_site_label
 _atom_site_symmetry_multiplicity
 _atom_site_fract_x
 _atom_site_fract_y
 _atom_site_fract_z
 _atom_site_occupancy
  Na  Na0  1  0.13112965  0.37021036  0.08420403  1
  Na  Na1  1  0.15560911  0.35577685  0.43832421  1
  Na  Na2  1  0.12715756  0.36078993  0.74810287  1
  Na  Na3  1  0.13325684  0.83949786  0.04996659  1
  Na  Na4  1  0.13520074  0.86576202  0.42022341  1
  Na  Na5  1  0.14454317  0.86362066  0.76082484  1
  Na  Na6  1  0.63486202  0.36533232  0.07739872  1
  Na  Na7  1  0.63544766  0.36290893  0.41545621  1
  Na  Na8  1  0.64220461  0.37643396  0.76032158  1
  Na  Na9  1  0.62279591  0.86129972  0.06956613  1
  Na  Na10  1  0.63430713  0.86615522  0.41618918  1
  Na  Na11  1  0.64282015  0.87391104  0.75750183  1
  Na  Na12  1  0.34957415  0.13040151  0.23385834  1
  Na  Na13  1  0.36583820  0.13277747  0.57961448  1
  Na  Na14  1  0.36368864  0.14213890  0.92515934  1
  Na  Na15  1  0.36577780  0.62924165  0.24436457  1
  Na  Na16  1  0.36304212  0.63574381  0.58781641  1
  Na  Na17  1  0.34311205  0.65706263  0.91860550  1
  Na  Na18  1  0.87238181  0.13755956  0.25862838  1
  Na  Na19  1  0.87648601  0.13772236  0.59913685  1
  Na  Na20  1  0.86352988  0.12613153  0.90623338  1
  Na  Na21  1  0.86277126  0.63318086  0.24815626  1
  Na  Na22  1  0.86819935  0.63348586  0.58640463  1
  Na  Na23  1  0.86727441  0.62650054  0.91782530  1
  Na  Na24  1  0.49665141  0.00788561  0.75709829  1
  Na  Na25  1  0.98195505  0.53077784  0.76284931  1
  Na  Na26  1  0.49171713  0.50711432  0.41428381  1
  Na  Na27  1  1.04067493  -0.01422721  0.02616805  1
  Na  Na28  1  0.99088348  0.01755810  0.42949220  1
  Na  Na29  1  0.48794195  0.01304608  0.41158756  1
  Na  Na30  1  0.49480265  0.50837645  0.08360245  1
  Na  Na31  1  1.01391940  0.47324894  0.42465370  1
  Na  Na32  1  0.99444660  0.00258385  0.76024530  1
  Na  Na33  1  0.00549201  0.45909381  0.58318478  1
  Na  Na34  1  0.00965656  0.98906646  0.23691769  1
  Na  Na35  1  0.00198854  0.46720117  0.90871118  1
  Na  Na36  1  0.00815523  0.49371855  0.23762523  1
  Na  Na37  1  0.47878951  0.54644671  0.87023785  1
  Na  Na38  1  0.55258639  0.99790488  0.59989237  1
  Na  Na39  1  0.46382975  0.51669369  0.64770681  1
  Na  Na40  1  0.49817114  1.01136740  0.22176844  1
  Na  Na41  1  0.49837645  0.98494934  0.93610316  1
  Na  Na42  1  0.24388251  0.24104937  0.34047891  1
  Na  Na43  1  0.74712762  0.74625271  0.67040884  1
  Na  Na44  1  0.75874434  0.26195157  -0.01213639  1
  Na  Na45  1  0.25333355  0.75422739  0.32889553  1
  Na  Na46  1  0.25904294  0.26737347  0.64734768  1
  Na  Na47  1  0.75011266  0.75057707  0.33205559  1
  Na  Na48  1  0.74018345  0.74149576  -0.00299915  1
  Na  Na49  1  0.76555808  0.25672538  0.66624734  1
  Na  Na50  1  0.24118331  0.73810407  0.68481854  1
  Na  Na51  1  0.76813299  0.26057611  0.32935497  1
  Na  Na52  1  0.25480540  0.25417164  0.15160944  1
  Na  Na53  1  0.74974386  0.75234567  0.16202394  1
  Na  Na54  1  0.76137991  0.25889879  0.16083519  1
  Na  Na55  1  0.74655211  0.74691317  0.50164977  1
  Na  Na56  1  0.24343871  0.74198853  0.50721087  1
  Na  Na57  1  0.76632646  0.25767188  0.82538766  1
  Na  Na58  1  0.25377683  0.75460862  0.14813237  1
  Na  Na59  1  0.76563906  0.25730780  0.49536172  1
  Na  Na60  1  0.24795038  0.24667430  0.83786205  1
  Na  Na61  1  0.74424359  0.74742822  0.83774780  1
  Fe  Fe62  1  0.46209674  0.30998576  0.45498984  1
  Fe  Fe63  1  0.97418433  0.79802251  0.79421761  1
  Fe  Fe64  1  0.96469806  0.81175025  0.45927327  1
  Fe  Fe65  1  0.46752241  0.31003950  0.11899667  1
  Fe  Fe66  1  0.46196360  0.80448510  0.11263827  1
  Fe  Fe67  1  0.46475268  0.80419120  0.79090831  1
  Fe  Fe68  1  0.46490439  0.31196783  0.78270652  1
  Fe  Fe69  1  0.96470310  0.79858782  0.11525829  1
  Fe  Fe70  1  0.96287593  0.30756872  0.11591519  1
  Fe  Fe71  1  0.46329899  0.81002312  0.45371708  1
  Fe  Fe72  1  0.68864134  0.53719540  0.71477282  1
  Fe  Fe73  1  0.18828999  0.03618851  0.71310145  1
  Fe  Fe74  1  0.69277350  0.03429584  0.38102336  1
  Fe  Fe75  1  0.19737112  0.53152979  0.71426719  1
  Fe  Fe76  1  0.69336896  0.03768410  0.04806965  1
  Fe  Fe77  1  0.19849253  0.53086994  0.38393917  1
  Fe  Fe78  1  0.69478073  0.53264138  0.03744149  1
  Fe  Fe79  1  0.68855685  0.53617858  0.37630115  1
  Fe  Fe80  1  0.18944218  0.53333589  0.04375341  1
  Fe  Fe81  1  0.19079397  0.03609868  0.38200861  1
  Fe  Fe82  1  0.53466718  0.69257256  0.21237018  1
  Fe  Fe83  1  0.03534589  0.19029158  0.21178365  1
  Fe  Fe84  1  0.03418434  0.68414362  0.20968978  1
  Fe  Fe85  1  0.03363129  0.69052870  0.54807514  1
  Fe  Fe86  1  0.53778503  0.19245586  0.55114261  1
  Fe  Fe87  1  0.53437016  0.19423506  0.88071802  1
  Fe  Fe88  1  0.53332577  0.69518818  0.54707131  1
  Fe  Fe89  1  0.53839865  0.19412762  0.21406305  1
  Fe  Fe90  1  0.02948824  0.20495089  0.55014361  1
  Fe  Fe91  1  0.03586720  0.19798316  0.87925362  1
  Fe  Fe92  1  0.30921828  0.46209458  0.28260536  1
  Fe  Fe93  1  0.80330464  0.96571948  0.62614611  1
  Fe  Fe94  1  0.80780602  0.96779287  0.95272768  1
  Fe  Fe95  1  0.81211300  0.46454469  0.28851409  1
  Fe  Fe96  1  0.30693073  0.46185003  0.95111095  1
  Fe  Fe97  1  0.80728805  0.96248998  0.28679354  1
  Fe  Fe98  1  0.29925227  0.96448537  0.27887131  1
  Fe  Fe99  1  0.29783293  0.97284249  0.95967267  1
  Fe  Fe100  1  0.80578682  0.46419952  0.62015861  1
  Fe  Fe101  1  0.30507230  0.96767661  0.62086588  1
  S  S102  1  0.36690379  0.13966041  0.08714532  1
  S  S103  1  0.36153313  0.13627472  0.41365367  1
  S  S104  1  0.35978003  0.14185868  0.74876977  1
  S  S105  1  0.35994548  0.63693932  0.08275499  1
  S  S106  1  0.35961751  0.64217964  0.41576828  1
  S  S107  1  0.35695394  0.64074384  0.75275491  1
  S  S108  1  0.85879987  0.14103802  0.08520109  1
  S  S109  1  0.86043104  0.13635043  0.41781373  1
  S  S110  1  0.86430918  0.13389782  0.75387155  1
  S  S111  1  0.85778443  0.64095920  0.08678694  1
  S  S112  1  0.85857498  0.64243916  0.41493330  1
  S  S113  1  0.85439464  0.64132259  0.74640336  1
  S  S114  1  0.14179819  0.35923073  0.25246561  1
  S  S115  1  0.14037044  0.36291238  0.58459863  1
  S  S116  1  0.14399613  0.35758821  0.91870010  1
  S  S117  1  0.13765980  0.85609022  0.25083806  1
  S  S118  1  0.14196571  0.85774485  0.58433486  1
  S  S119  1  0.14080359  0.86505600  0.91481902  1
  S  S120  1  0.64291905  0.35928211  0.25105868  1
  S  S121  1  0.63946069  0.35735167  0.58125019  1
  S  S122  1  0.63945999  0.35828812  0.91474755  1
  S  S123  1  0.63782415  0.86102050  0.24942434  1
  S  S124  1  0.63981046  0.85659445  0.58031709  1
  S  S125  1  0.63794080  0.86560715  0.91756252  1
  S  S126  1  0.06937177  0.17987844  0.04684388  1
  S  S127  1  0.06760250  0.16370223  0.37464473  1
  S  S128  1  0.07036432  0.16929723  0.71110580  1
  S  S129  1  0.06243869  0.66192052  0.04162599  1
  S  S130  1  0.06816612  0.66646449  0.37680953  1
  S  S131  1  0.06689102  0.66357336  0.70509471  1
  S  S132  1  0.57045323  0.17246909  0.04387637  1
  S  S133  1  0.56785160  0.16656316  0.37526088  1
  S  S134  1  0.56415125  0.16781795  0.71271294  1
  S  S135  1  0.56357808  0.66908026  0.04329757  1
  S  S136  1  0.56474614  0.67183179  0.37522836  1
  S  S137  1  0.56589330  0.67735025  0.70734287  1
  S  S138  1  0.33502530  0.43209929  0.12499985  1
  S  S139  1  0.33903399  0.43868599  0.45652925  1
  S  S140  1  0.32709650  0.43265047  0.78986722  1
  S  S141  1  0.32644956  0.92880496  0.12203844  1
  S  S142  1  0.33083390  0.93405050  0.45754857  1
  S  S143  1  0.33002394  0.93669314  0.79255276  1
  S  S144  1  0.82726893  0.43347908  0.12510416  1
  S  S145  1  0.82963378  0.43970977  0.45591332  1
  S  S146  1  0.82748844  0.44202184  0.78825948  1
  S  S147  1  0.82725063  0.92891837  0.12414867  1
  S  S148  1  0.82785174  0.93050227  0.45927846  1
  S  S149  1  0.83462348  0.92210685  0.79258948  1
  S  S150  1  0.43407721  0.32701361  0.28936980  1
  S  S151  1  0.43383135  0.32301666  0.61979216  1
  S  S152  1  0.43457686  0.33201519  0.95802305  1
  S  S153  1  0.42986248  0.82990732  0.28883834  1
  S  S154  1  0.43177531  0.83224133  0.62602778  1
  S  S155  1  0.42437287  0.84242539  0.96009609  1
  S  S156  1  0.94061803  0.33201541  0.29123954  1
  S  S157  1  0.93241550  0.33321235  0.62784407  1
  S  S158  1  0.93568145  0.32721777  0.95598629  1
  S  S159  1  0.93362874  0.83106349  0.29391013  1
  S  S160  1  0.93051755  0.82522773  0.62503790  1
  S  S161  1  0.92760207  0.82994959  0.95998136  1
  S  S162  1  0.16328351  0.06028574  0.20724973  1
  S  S163  1  0.16947080  0.07019606  0.54461206  1
  S  S164  1  0.17390940  0.07434918  0.87372480  1
  S  S165  1  0.17385513  0.56548217  0.21294553  1
  S  S166  1  0.16956995  0.56698655  0.54390703  1
  S  S167  1  0.16685162  0.55909543  0.87559073  1
  S  S168  1  0.67607831  0.06945772  0.21266556  1
  S  S169  1  0.67091351  0.06583077  0.54195679  1
  S  S170  1  0.66819122  0.06895105  0.87795768  1
  S  S171  1  0.67086348  0.56727565  0.20772586  1
  S  S172  1  0.66666240  0.56651604  0.53845963  1
  S  S173  1  0.66581894  0.57531828  0.87394350  1
  O  O174  1  0.38103425  0.21628866  0.07622496  1
  O  O175  1  0.37187056  0.21520433  0.40580529  1
  O  O176  1  0.36878649  0.22031549  0.74033283  1
  O  O177  1  0.36795916  0.71712692  0.07797173  1
  O  O178  1  0.36794614  0.72228734  0.40911353  1
  O  O179  1  0.36673884  0.72298420  0.74997977  1
  O  O180  1  0.86205287  0.22109476  0.07814177  1
  O  O181  1  0.86627949  0.21083170  0.40414096  1
  O  O182  1  0.86872052  0.20868966  0.73967473  1
  O  O183  1  0.86312107  0.72507583  0.08650782  1
  O  O184  1  0.87049683  0.72133209  0.40671088  1
  O  O185  1  0.87142824  0.71850053  0.73710034  1
  O  O186  1  0.29449317  0.13519689  0.10460191  1
  O  O187  1  0.28353206  0.12739326  0.42232469  1
  O  O188  1  0.28087602  0.13120060  0.75535693  1
  O  O189  1  0.28252625  0.62637154  0.09385236  1
  O  O190  1  0.28020153  0.63245674  0.42290609  1
  O  O191  1  0.27056642  0.62920665  0.74647107  1
  O  O192  1  0.78163615  0.12922859  0.09702051  1
  O  O193  1  0.78150400  0.12498069  0.42689209  1
  O  O194  1  0.79450682  0.12146583  0.77358172  1
  O  O195  1  0.77874216  0.63060392  0.09664379  1
  O  O196  1  0.77692086  0.63540937  0.41829083  1
  O  O197  1  0.77018559  0.63870235  0.74399091  1
  O  O198  1  0.13053551  0.27856115  0.25633223  1
  O  O199  1  0.12446639  0.28716982  0.59829966  1
  O  O200  1  0.13171423  0.27706599  0.92418188  1
  O  O201  1  0.12797553  0.77728530  0.25945131  1
  O  O202  1  0.13458501  0.77636817  0.58795606  1
  O  O203  1  0.13956299  0.78876856  0.92434462  1
  O  O204  1  0.63441897  0.28107966  0.26205787  1
  O  O205  1  0.63517921  0.27890101  0.59227259  1
  O  O206  1  0.62424050  0.28191840  0.92833382  1
  O  O207  1  0.62933196  0.78314861  0.26045428  1
  O  O208  1  0.63338040  0.77336182  0.58010332  1
  O  O209  1  0.63239572  0.79147223  0.93178408  1
  O  O210  1  0.21943685  0.36640835  0.24094044  1
  O  O211  1  0.21801175  0.36525805  0.57716714  1
  O  O212  1  0.22540089  0.36358329  0.91450827  1
  O  O213  1  0.21733948  0.86343762  0.24298261  1
  O  O214  1  0.22006385  0.86917850  0.57386938  1
  O  O215  1  0.21812890  0.88460101  0.90204616  1
  O  O216  1  0.72416448  0.36736308  0.24683445  1
  O  O217  1  0.71744543  0.36764956  0.57035970  1
  O  O218  1  0.71615327  0.35907361  0.90430275  1
  O  O219  1  0.71816153  0.86846350  0.24305304  1
  O  O220  1  0.71722742  0.86821329  0.56965132  1
  O  O221  1  0.71617589  0.87773277  0.90757159  1
  O  O222  1  0.43208398  0.12644816  0.15002717  1
  O  O223  1  0.42231867  0.12525284  0.47984772  1
  O  O224  1  0.41927423  0.13377335  0.81765541  1
  O  O225  1  0.42145558  0.62690646  0.14944815  1
  O  O226  1  0.41833977  0.63448125  0.48421567  1
  O  O227  1  0.40453993  0.63315549  0.82425009  1
  O  O228  1  0.91930595  0.13389936  0.15284452  1
  O  O229  1  0.91993354  0.13117961  0.48773837  1
  O  O230  1  0.93455678  0.12698895  0.81838114  1
  O  O231  1  0.91657983  0.63452436  0.15694387  1
  O  O232  1  0.91382730  0.63517409  0.48484993  1
  O  O233  1  0.90543281  0.63062794  0.81493710  1
  O  O234  1  0.36596308  0.07822533  0.01504773  1
  O  O235  1  0.36885003  0.07681736  0.34440102  1
  O  O236  1  0.36973165  0.08135821  0.68166317  1
  O  O237  1  0.36734485  0.57936778  0.01394498  1
  O  O238  1  0.36984472  0.58431805  0.34827459  1
  O  O239  1  0.37221887  0.58700361  0.68716654  1
  O  O240  1  0.86596972  0.08397549  0.01601375  1
  O  O241  1  0.87145466  0.07204595  0.35316321  1
  O  O242  1  0.87082904  0.07053973  0.68572289  1
  O  O243  1  0.86628535  0.58772848  0.01936071  1
  O  O244  1  0.86849762  0.58300286  0.34827845  1
  O  O245  1  0.86406170  0.58012237  0.67903469  1
  O  O246  1  0.08074995  0.37452920  0.18926601  1
  O  O247  1  0.08015296  0.37430205  0.51980872  1
  O  O248  1  0.08751472  0.37049090  0.85391356  1
  O  O249  1  0.07783140  0.86562692  0.18417907  1
  O  O250  1  0.08148583  0.86592296  0.51687790  1
  O  O251  1  0.07969985  0.86710845  0.84331781  1
  O  O252  1  0.58707514  0.36437550  0.18038783  1
  O  O253  1  0.57994205  0.36029758  0.51089710  1
  O  O254  1  0.57911508  0.36764119  0.84787248  1
  O  O255  1  0.58008976  0.86809517  0.18051658  1
  O  O256  1  0.57907446  0.86789014  0.51331977  1
  O  O257  1  0.57789136  0.86997118  0.84783593  1
  O  O258  1  0.13925492  0.41579220  0.32467189  1
  O  O259  1  0.13400656  0.42527936  0.65512778  1
  O  O260  1  0.13855799  0.41516481  0.98981660  1
  O  O261  1  0.13225148  0.91575417  0.32020027  1
  O  O262  1  0.13642699  0.91371525  0.65434107  1
  O  O263  1  0.13152745  0.92650091  0.97924508  1
  O  O264  1  0.63209384  0.41892901  0.31706341  1
  O  O265  1  0.62973531  0.41714854  0.64732250  1
  O  O266  1  0.63497527  0.42008212  0.98348688  1
  O  O267  1  0.62909389  0.92117106  0.31657355  1
  O  O268  1  0.63121307  0.90980404  0.64905513  1
  O  O269  1  0.62724900  0.92970716  0.98280018  1
  O  O270  1  0.02282838  0.20653053  0.10205061  1
  O  O271  1  0.03639300  0.18834775  0.43767649  1
  O  O272  1  0.03863421  0.19507729  0.77498519  1
  O  O273  1  0.02898928  0.69534320  0.10737230  1
  O  O274  1  0.03100605  0.69552658  0.43714701  1
  O  O275  1  0.02894377  0.68817230  0.76349858  1
  O  O276  1  0.53886661  0.20589413  0.10784855  1
  O  O277  1  0.53290061  0.19538745  0.43677668  1
  O  O278  1  0.52770145  0.20866810  0.77223135  1
  O  O279  1  0.53238191  0.70470916  0.10971055  1
  O  O280  1  0.52668524  0.70285831  0.43502415  1
  O  O281  1  0.52997997  0.70529996  0.76673313  1
  O  O282  1  0.30217412  0.46850580  0.06464826  1
  O  O283  1  0.30480301  0.47187714  0.39154831  1
  O  O284  1  0.29489209  0.47291321  0.73310018  1
  O  O285  1  0.30198506  0.96326906  0.06051677  1
  O  O286  1  0.29960950  0.96838384  0.39526907  1
  O  O287  1  0.30013458  0.97609109  0.73325617  1
  O  O288  1  0.79770695  0.46937042  0.06633431  1
  O  O289  1  0.79355076  0.47532463  0.39397821  1
  O  O290  1  0.78698960  0.47419889  0.72236334  1
  O  O291  1  0.79995004  0.96664034  0.06406797  1
  O  O292  1  0.79470712  0.96452160  0.39648101  1
  O  O293  1  0.80322081  0.94896005  0.72682930  1
  O  O294  1  0.47197385  0.29947344  0.22889024  1
  O  O295  1  0.47215333  0.28895902  0.55848164  1
  O  O296  1  0.46729247  0.30311988  0.89446025  1
  O  O297  1  0.46712712  0.80064439  0.22872922  1
  O  O298  1  0.47036496  0.80405525  0.56563811  1
  O  O299  1  0.46239992  0.82818900  0.90116673  1
  O  O300  1  0.96841244  0.29788252  0.22412678  1
  O  O301  1  0.96087263  0.30177071  0.56196672  1
  O  O302  1  0.97561673  0.28911099  0.89909720  1
  O  O303  1  0.96943671  0.80115989  0.23333229  1
  O  O304  1  0.96865717  0.79737805  0.56360231  1
  O  O305  1  0.95904127  0.80217080  0.89743641  1
  O  O306  1  0.19669305  0.02699674  0.27252158  1
  O  O307  1  0.19774419  0.02975944  0.60367210  1
  O  O308  1  0.20711488  0.04303947  0.93668520  1
  O  O309  1  0.20518686  0.52798690  0.27358023  1
  O  O310  1  0.19022239  0.53286832  0.60523413  1
  O  O311  1  0.20522630  0.52158473  0.93624147  1
  O  O312  1  0.70534832  0.03077979  0.27260065  1
  O  O313  1  0.69737095  0.02977324  0.60192828  1
  O  O314  1  0.70429439  0.03926696  0.94438786  1
  O  O315  1  0.70042555  0.52969407  0.26833741  1
  O  O316  1  0.69409690  0.52935836  0.59842377  1
  O  O317  1  0.69407568  0.54013514  0.93502968  1
  O  O318  1  0.09405919  0.10457771  0.04908968  1
  O  O319  1  0.08055423  0.07752989  0.36121097  1
  O  O320  1  0.08421838  0.08513496  0.69888925  1
  O  O321  1  0.08442243  0.58192162  0.04175572  1
  O  O322  1  0.08771928  0.58468249  0.37088755  1
  O  O323  1  0.09172710  0.58249432  0.70148854  1
  O  O324  1  0.58604223  0.09035007  0.03907580  1
  O  O325  1  0.58233019  0.08257537  0.36727767  1
  O  O326  1  0.56977065  0.08683287  0.71362361  1
  O  O327  1  0.58618203  0.59021031  0.04566667  1
  O  O328  1  0.58270184  0.59107208  0.37304290  1
  O  O329  1  0.58682815  0.59609234  0.70074562  1
  O  O330  1  0.41697631  0.41660545  0.12694064  1
  O  O331  1  0.41947626  0.41847359  0.45445981  1
  O  O332  1  0.40752139  0.41414486  0.78851266  1
  O  O333  1  0.40884094  0.90851734  0.13360282  1
  O  O334  1  0.41430772  0.92014471  0.46400123  1
  O  O335  1  0.41404182  0.92525042  0.80031109  1
  O  O336  1  0.90854520  0.41245847  0.13085198  1
  O  O337  1  0.91142277  0.43088401  0.46049753  1
  O  O338  1  0.90829361  0.43392248  0.78733424  1
  O  O339  1  0.90697442  0.90520066  0.12940260  1
  O  O340  1  0.90973463  0.91568129  0.46159848  1
  O  O341  1  0.91680110  0.90492503  0.80043210  1
  O  O342  1  0.41677481  0.40929361  0.29680509  1
  O  O343  1  0.40889170  0.39736972  0.61411916  1
  O  O344  1  0.41655334  0.41430021  0.96622030  1
  O  O345  1  0.40993450  0.91127814  0.29429796  1
  O  O346  1  0.41306194  0.91402468  0.63077973  1
  O  O347  1  0.40257259  0.92556733  0.97371911  1
  O  O348  1  0.92110160  0.41423005  0.29377972  1
  O  O349  1  0.90989192  0.41468064  0.62693041  1
  O  O350  1  0.91833156  0.40353249  0.95008732  1
  O  O351  1  0.91905626  0.91470986  0.30141969  1
  O  O352  1  0.91254798  0.90674442  0.63247907  1
  O  O353  1  0.91184640  0.91383232  0.97227285  1
  O  O354  1  0.08330247  0.08223866  0.20870185  1
  O  O355  1  0.09024814  0.09309913  0.54121117  1
  O  O356  1  0.09427338  0.09866120  0.87384253  1
  O  O357  1  0.09222507  0.58128152  0.21057257  1
  O  O358  1  0.08595208  0.58470447  0.52735050  1
  O  O359  1  0.08396485  0.55824891  0.86965411  1
  O  O360  1  0.59625226  0.09010991  0.21174388  1
  O  O361  1  0.58716642  0.08330886  0.53514936  1
  O  O362  1  0.58675226  0.08840715  0.87848476  1
  O  O363  1  0.58952363  0.58619209  0.20359286  1
  O  O364  1  0.58565396  0.58788778  0.53227794  1
  O  O365  1  0.58935773  0.60190079  0.86984718  1
  O  O366  1  0.13500827  0.24015175  0.06795139  1
  O  O367  1  0.14075504  0.21116156  0.38816592  1
  O  O368  1  0.14305048  0.21919801  0.72709866  1
  O  O369  1  0.13331915  0.71449429  0.05834128  1
  O  O370  1  0.13887392  0.72005490  0.39353490  1
  O  O371  1  0.13311090  0.71915080  0.71693784  1
  O  O372  1  0.64246307  0.22160063  0.05634725  1
  O  O373  1  0.64069216  0.21614435  0.39086792  1
  O  O374  1  0.63935132  0.21190558  0.72640447  1
  O  O375  1  0.63369630  0.72213642  0.05646361  1
  O  O376  1  0.63659607  0.72389964  0.39209384  1
  O  O377  1  0.63572600  0.73062702  0.72019570  1
  O  O378  1  0.28601137  0.36126154  0.11328809  1
  O  O379  1  0.28858238  0.36731891  0.44199266  1
  O  O380  1  0.27597217  0.36089884  0.77426572  1
  O  O381  1  0.27284740  0.86079669  0.10921710  1
  O  O382  1  0.28191665  0.86059696  0.44185553  1
  O  O383  1  0.28105547  0.86305424  0.77144521  1
  O  O384  1  0.77493701  0.36207666  0.11122222  1
  O  O385  1  0.78180772  0.36435272  0.43762664  1
  O  O386  1  0.78147266  0.36510479  0.76950523  1
  O  O387  1  0.77025852  0.86126332  0.10857457  1
  O  O388  1  0.77848153  0.85668807  0.44264244  1
  O  O389  1  0.78338745  0.85206233  0.78353536  1
  O  O390  1  0.36203339  0.27491109  0.27063894  1
  O  O391  1  0.36889702  0.26581646  0.60840364  1
  O  O392  1  0.36530222  0.27968030  0.94480429  1
  O  O393  1  0.35927537  0.77625880  0.27226346  1
  O  O394  1  0.36088449  0.77873100  0.60732900  1
  O  O395  1  0.35676258  0.78772240  0.94290629  1
  O  O396  1  0.86820721  0.28240856  0.27879903  1
  O  O397  1  0.86010477  0.28233070  0.61465867  1
  O  O398  1  0.86499441  0.27368196  0.94202317  1
  O  O399  1  0.85969063  0.78207175  0.27714832  1
  O  O400  1  0.85834478  0.77185496  0.60391699  1
  O  O401  1  0.85605236  0.78020973  0.94839106  1
  O  O402  1  0.21547244  0.13154322  0.22324832  1
  O  O403  1  0.22640642  0.13668569  0.56022357  1
  O  O404  1  0.22607552  0.13998657  0.87854843  1
  O  O405  1  0.22417989  0.63831308  0.23043754  1
  O  O406  1  0.22277675  0.63852791  0.56168421  1
  O  O407  1  0.20948529  0.63476277  0.89373901  1
  O  O408  1  0.72958460  0.13990229  0.22945486  1
  O  O409  1  0.72143075  0.13714008  0.55584222  1
  O  O410  1  0.71766571  0.14023813  0.88951236  1
  O  O411  1  0.72325446  0.63965491  0.22666109  1
  O  O412  1  0.72121348  0.63619455  0.55401640  1
  O  O413  1  0.72497819  0.64107376  0.88603308  1
  O  O414  1  0.49699594  0.33483701  0.02983046  1
  O  O415  1  0.49264481  0.32656592  0.36141959  1
  O  O416  1  0.49628815  0.33238987  0.69356900  1
  O  O417  1  0.48717349  0.84152761  0.03089726  1
  O  O418  1  0.48911349  0.83378666  0.36253039  1
  O  O419  1  0.48945331  0.83542305  0.69943211  1
  O  O420  1  0.99187484  0.33473923  0.03303853  1
  O  O421  1  1.00341706  0.33762972  0.36036231  1
  O  O422  1  0.99309964  0.34163223  0.69855361  1
  O  O423  1  0.99065305  0.82933786  0.03084403  1
  O  O424  1  0.99139116  0.83066363  0.36668718  1
  O  O425  1  0.98902807  0.82211710  0.69525799  1
  O  O426  1  0.15586315  -0.00148499  0.13724561  1
  O  O427  1  0.16329640  0.00901380  0.47045378  1
  O  O428  1  0.16018599  0.00909334  0.80033029  1
  O  O429  1  0.17374563  0.50835311  0.14067883  1
  O  O430  1  0.17332777  0.50641379  0.47343817  1
  O  O431  1  0.17362135  0.50489672  0.80161683  1
  O  O432  1  0.67119619  0.01085716  0.13932984  1
  O  O433  1  0.66542393  0.00625801  0.46752644  1
  O  O434  1  0.66073045  0.00581160  0.80871174  1
  O  O435  1  0.66884194  0.50957289  0.13496413  1
  O  O436  1  0.66178863  0.50698635  0.46447576  1
  O  O437  1  0.66070375  0.51283098  0.80041118  1
  O  O438  1  0.00727146  0.16634814  0.30365605  1
  O  O439  1  0.01037056  0.17425858  0.64165901  1
  O  O440  1  0.01385298  0.17430767  0.96990717  1
  O  O441  1  0.00920672  0.66332598  0.30339748  1
  O  O442  1  0.00664452  0.65371526  0.62916990  1
  O  O443  1  0.00127005  0.65756385  0.97257582  1
  O  O444  1  0.50880328  0.16482874  0.30232353  1
  O  O445  1  0.50845030  0.16522141  0.63710982  1
  O  O446  1  0.50831826  0.17088526  0.97301217  1
  O  O447  1  0.50713505  0.66965887  0.30193620  1
  O  O448  1  0.50525551  0.67109311  0.63266232  1
  O  O449  1  0.49979837  0.66295180  0.97482192  1
  O  O450  1  0.33932291  0.49217734  0.19889174  1
  O  O451  1  0.34647293  0.50059468  0.52679178  1
  O  O452  1  0.33687089  0.48977540  0.86606771  1
  O  O453  1  0.32945005  0.99211643  0.19389693  1
  O  O454  1  0.32992562  0.99232268  0.52929886  1
  O  O455  1  0.32748163  0.99205317  0.86620022  1
  O  O456  1  0.83330930  0.49202467  0.20072353  1
  O  O457  1  0.82511936  0.49501709  0.52783574  1
  O  O458  1  0.82407953  0.49776874  0.85764349  1
  O  O459  1  0.83364154  0.98951603  0.19806495  1
  O  O460  1  0.82831389  0.98800821  0.53134802  1
  O  O461  1  0.83415198  0.98621315  0.86223703  1
