# generated using pymatgen
data_In86Cu29Se144
_symmetry_space_group_name_H-M   'P 1'
_cell_length_a   17.58874936
_cell_length_b   17.58544698
_cell_length_c   23.43947728
_cell_angle_alpha   89.98365522
_cell_angle_beta   89.97495330
_cell_angle_gamma   90.00236312
_symmetry_Int_Tables_number   1
_chemical_formula_structural   In86Cu29Se144
_chemical_formula_sum   'In86 Cu29 Se144'
_cell_volume   7249.97041983
_cell_formula_units_Z   1
loop_
 _symmetry_equiv_pos_site_id
 _symmetry_equiv_pos_as_xyz
  1  'x, y, z'
loop_
 _atom_site_type_symbol
 _atom_site_label
 _atom_site_symmetry_multiplicity
 _atom_site_fract_x
 _atom_site_fract_y
 _atom_site_fract_z
 _atom_site_occupancy
  In  In0  1  0.00084766  0.16362242  0.12690404  1
  In  In1  1  -0.01667696  0.16808122  0.61957246  1
  In  In2  1  0.00696732  0.49666121  0.13872810  1
  In  In3  1  0.02249324  0.49819848  0.61963152  1
  In  In4  1  0.00028978  0.82727557  0.13693240  1
  In  In5  1  0.00939713  0.82026742  0.63454558  1
  In  In6  1  0.33869239  0.16220454  0.12820119  1
  In  In7  1  0.33615683  0.16390729  0.63702715  1
  In  In8  1  0.32928723  0.49719547  0.12714831  1
  In  In9  1  0.32263362  0.51009105  0.63286782  1
  In  In10  1  0.34067658  0.82751615  0.12992624  1
  In  In11  1  0.33385819  0.82910339  0.62204919  1
  In  In12  1  0.66897485  0.17310607  0.10577715  1
  In  In13  1  0.67037942  0.14932974  0.62858557  1
  In  In14  1  0.66106896  0.51601528  0.11787708  1
  In  In15  1  0.66435570  0.50125943  0.62684139  1
  In  In16  1  0.65899099  0.82972235  0.12042013  1
  In  In17  1  0.66932218  0.84875725  0.62496225  1
  In  In18  1  0.15866102  -0.00797201  0.37259460  1
  In  In19  1  0.16081610  -0.00965015  0.86410381  1
  In  In20  1  0.17209079  0.34291680  0.36456843  1
  In  In21  1  0.17991658  0.33447229  0.87712859  1
  In  In22  1  0.17322062  0.67013853  0.37297890  1
  In  In23  1  0.15812037  0.65764298  0.87605501  1
  In  In24  1  0.48593086  -0.00113040  0.37363868  1
  In  In25  1  0.49847065  -0.00162295  0.87449261  1
  In  In26  1  0.49752005  0.34546674  0.37021523  1
  In  In27  1  0.48898521  0.34369257  0.89132686  1
  In  In28  1  0.50277318  0.67582193  0.36610331  1
  In  In29  1  0.49206634  0.67929244  0.89055916  1
  In  In30  1  0.84856854  -0.00050918  0.37534445  1
  In  In31  1  0.84177307  0.01012990  0.86722099  1
  In  In32  1  0.84568989  0.31771393  0.37934913  1
  In  In33  1  0.82107016  0.32489242  0.88197860  1
  In  In34  1  0.84080072  0.68999928  0.35267229  1
  In  In35  1  0.84146266  0.66471724  0.87128911  1
  In  In36  1  -0.00050456  0.15792334  0.36958634  1
  In  In37  1  -0.00413595  0.15142210  0.87918514  1
  In  In38  1  0.02201260  0.51226939  0.36037657  1
  In  In39  1  0.00013968  0.51441647  0.87869657  1
  In  In40  1  0.00527440  0.84527266  0.37268833  1
  In  In41  1  -0.00218790  0.83774409  0.86596848  1
  In  In42  1  0.32730147  0.16400399  0.36502771  1
  In  In43  1  0.33698107  0.17157335  0.87053996  1
  In  In44  1  0.31628301  0.49640875  0.35949914  1
  In  In45  1  0.32867353  0.50259691  0.87962910  1
  In  In46  1  0.33241245  0.83345663  0.37571184  1
  In  In47  1  0.33867600  0.83616824  0.86977626  1
  In  In48  1  0.67663621  0.17649269  0.37602223  1
  In  In49  1  0.67646663  0.16251057  0.88935662  1
  In  In50  1  0.65851070  0.50893580  0.36831507  1
  In  In51  1  0.65779125  0.49983095  0.88626009  1
  In  In52  1  0.66662394  0.82137313  0.37007649  1
  In  In53  1  0.64977882  0.83054660  0.87706107  1
  In  In54  1  0.16627742  0.00030984  0.13122888  1
  In  In55  1  0.17859591  -0.01102409  0.63116502  1
  In  In56  1  0.15808631  0.34929333  0.13823713  1
  In  In57  1  0.16704897  0.34634544  0.62184564  1
  In  In58  1  0.18082193  0.64938062  0.14623961  1
  In  In59  1  0.17021530  0.66699095  0.62159218  1
  In  In60  1  0.49492384  -0.00330192  0.11372838  1
  In  In61  1  0.50995692  -0.00700317  0.63271026  1
  In  In62  1  0.49099068  0.32275976  0.11334306  1
  In  In63  1  0.49561695  0.32182502  0.62904859  1
  In  In64  1  0.49781548  0.66439207  0.11810341  1
  In  In65  1  0.48255634  0.66168263  0.62525180  1
  In  In66  1  0.83725329  0.00421790  0.12418559  1
  In  In67  1  0.82634645  -0.00078425  0.63454164  1
  In  In68  1  0.84625928  0.32976528  0.12525304  1
  In  In69  1  0.84802458  0.31901239  0.62183965  1
  In  In70  1  0.83492745  0.66683798  0.14024157  1
  In  In71  1  0.84583905  0.68443630  0.62629653  1
  In  In72  1  0.83802512  0.50439375  0.48554232  1
  In  In73  1  0.83708073  0.83904951  0.50021118  1
  In  In74  1  0.49260315  0.50237489  0.49089304  1
  In  In75  1  0.66159151  0.33391117  0.76664759  1
  In  In76  1  0.83347317  0.83463373  0.00545600  1
  In  In77  1  0.66477756  -0.00356825  0.23461531  1
  In  In78  1  0.00521097  0.33355700  0.74411552  1
  In  In79  1  0.83262441  0.49514925  0.00246432  1
  In  In80  1  0.17229752  0.16744195  0.00205036  1
  In  In81  1  0.66342590  0.33882216  0.24128677  1
  In  In82  1  0.16624424  0.16923954  0.49771264  1
  In  In83  1  0.50231199  0.16277703  0.50264941  1
  In  In84  1  0.16364778  0.83175387  -0.00320059  1
  In  In85  1  0.66469250  0.67143411  0.75800228  1
  Cu  Cu86  1  0.16852594  0.83841700  0.25474589  1
  Cu  Cu87  1  0.00262982  0.32976133  0.00930687  1
  Cu  Cu88  1  0.17195802  0.50286987  0.74920355  1
  Cu  Cu89  1  0.00660032  0.66529130  0.00769817  1
  Cu  Cu90  1  0.66819384  0.00084522  0.50561847  1
  Cu  Cu91  1  0.33335044  -0.01181053  0.50174773  1
  Cu  Cu92  1  0.48837822  0.49580066  0.75821473  1
  Cu  Cu93  1  0.16781593  0.16865574  0.24823859  1
  Cu  Cu94  1  0.82985801  0.16569300  0.75195432  1
  Cu  Cu95  1  0.49486375  0.83063322  0.75087499  1
  Cu  Cu96  1  0.84139935  0.50853209  0.75109832  1
  Cu  Cu97  1  0.68296494  0.33192865  0.50157528  1
  Cu  Cu98  1  0.48986651  0.50684096  0.24494289  1
  Cu  Cu99  1  0.49315948  0.83589746  0.24330212  1
  Cu  Cu100  1  0.16690298  0.16339497  0.75269455  1
  Cu  Cu101  1  0.82978300  0.49244690  0.24764501  1
  Cu  Cu102  1  0.33520573  0.33727384  0.49610749  1
  Cu  Cu103  1  0.66091901  0.67108143  0.49151728  1
  Cu  Cu104  1  0.83845769  0.16020045  0.24976712  1
  Cu  Cu105  1  0.32615701  0.34098426  0.00328434  1
  Cu  Cu106  1  0.00857941  0.66340373  0.49780495  1
  Cu  Cu107  1  0.33101084  0.66200478  0.00808607  1
  Cu  Cu108  1  0.32732999  0.66804759  0.49855879  1
  Cu  Cu109  1  0.00242608  0.00106826  0.50020590  1
  Cu  Cu110  1  0.66406061  -0.00653307  -0.00209776  1
  Cu  Cu111  1  0.33614490  -0.00221666  -0.00384091  1
  Cu  Cu112  1  0.17316020  0.82570238  0.74814519  1
  Cu  Cu113  1  0.49287348  0.16872856  0.24360476  1
  Cu  Cu114  1  0.49590049  0.16557508  0.75627317  1
  Se  Se115  1  0.08057324  0.07391995  0.05511746  1
  Se  Se116  1  0.08384906  0.07804507  0.56283095  1
  Se  Se117  1  0.07930884  0.41988805  0.06003453  1
  Se  Se118  1  0.08277901  0.40896462  0.54669472  1
  Se  Se119  1  0.08742750  0.74371200  0.06694222  1
  Se  Se120  1  0.08387407  0.75053255  0.55456965  1
  Se  Se121  1  0.41287250  0.08739035  0.04964269  1
  Se  Se122  1  0.41006874  0.07455473  0.56105838  1
  Se  Se123  1  0.41404263  0.42211611  0.05423431  1
  Se  Se124  1  0.41385935  0.41286588  0.56115676  1
  Se  Se125  1  0.41426461  0.75395531  0.05174170  1
  Se  Se126  1  0.41684362  0.74658571  0.55049969  1
  Se  Se127  1  0.75047062  0.07354438  0.05140983  1
  Se  Se128  1  0.75682529  0.08068772  0.55559567  1
  Se  Se129  1  0.74432438  0.40824813  0.06520658  1
  Se  Se130  1  0.75492226  0.41905256  0.56015981  1
  Se  Se131  1  0.74991563  0.73595769  0.06089872  1
  Se  Se132  1  0.74186779  0.74512280  0.55627169  1
  Se  Se133  1  0.24972616  0.26109121  0.06698845  1
  Se  Se134  1  0.26357206  0.25201096  0.55913960  1
  Se  Se135  1  0.24310514  0.58264979  0.05934015  1
  Se  Se136  1  0.24990958  0.57878571  0.55214298  1
  Se  Se137  1  0.25497468  0.92084355  0.05782634  1
  Se  Se138  1  0.24563393  0.90886586  0.55323811  1
  Se  Se139  1  0.57552828  0.24709763  0.04379280  1
  Se  Se140  1  0.59699951  0.25532801  0.56033891  1
  Se  Se141  1  0.58064653  0.58859824  0.04490809  1
  Se  Se142  1  0.58764234  0.58772369  0.55382733  1
  Se  Se143  1  0.57967471  0.91056353  0.04938070  1
  Se  Se144  1  0.58036902  0.91700549  0.55268489  1
  Se  Se145  1  0.91786015  0.24195708  0.05426465  1
  Se  Se146  1  0.92894395  0.25881917  0.54395719  1
  Se  Se147  1  0.91943332  0.58623153  0.06389514  1
  Se  Se148  1  0.92109608  0.58982998  0.55730724  1
  Se  Se149  1  0.93184718  0.91871342  0.06050371  1
  Se  Se150  1  0.92565535  0.92196723  0.56506185  1
  Se  Se151  1  0.08362288  0.25445744  0.43194220  1
  Se  Se152  1  0.07814927  0.25502080  0.94042501  1
  Se  Se153  1  0.09115898  0.58310844  0.44254528  1
  Se  Se154  1  0.08647466  0.57883802  0.95421411  1
  Se  Se155  1  0.08525500  0.91538869  0.45009032  1
  Se  Se156  1  0.07207818  0.92483520  0.94210724  1
  Se  Se157  1  0.41501106  0.25376231  0.43893585  1
  Se  Se158  1  0.40296062  0.25042972  0.95020504  1
  Se  Se159  1  0.40445493  0.59137304  0.43190475  1
  Se  Se160  1  0.41384830  0.58146822  0.94996522  1
  Se  Se161  1  0.42061398  0.91152371  0.44722540  1
  Se  Se162  1  0.41806910  0.91159824  0.94431036  1
  Se  Se163  1  0.76098546  0.24235582  0.45163022  1
  Se  Se164  1  0.74690695  0.25413226  0.95829382  1
  Se  Se165  1  0.74674036  0.59993554  0.43120217  1
  Se  Se166  1  0.75028931  0.59355649  0.94303406  1
  Se  Se167  1  0.74201763  0.92284899  0.43843054  1
  Se  Se168  1  0.74851396  0.91844766  0.93715692  1
  Se  Se169  1  0.25879483  0.07507288  0.44219774  1
  Se  Se170  1  0.25093460  0.07288423  0.93619302  1
  Se  Se171  1  0.25289653  0.41713485  0.44056649  1
  Se  Se172  1  0.24187208  0.42366740  0.95104480  1
  Se  Se173  1  0.24699359  0.75549527  0.44639695  1
  Se  Se174  1  0.25725866  0.74148649  0.94064816  1
  Se  Se175  1  0.59201624  0.07748851  0.43797448  1
  Se  Se176  1  0.58004172  0.07888612  0.94642949  1
  Se  Se177  1  0.59717545  0.40871258  0.44352423  1
  Se  Se178  1  0.59541931  0.40373289  0.95243081  1
  Se  Se179  1  0.57609973  0.75582755  0.44300639  1
  Se  Se180  1  0.59502802  0.74189035  0.95336262  1
  Se  Se181  1  0.92009606  0.08451025  0.44753726  1
  Se  Se182  1  0.90242396  0.08941951  0.94833625  1
  Se  Se183  1  0.93255604  0.41781201  0.43132066  1
  Se  Se184  1  0.92641483  0.40701071  0.94088762  1
  Se  Se185  1  0.92217034  0.74324896  0.44106230  1
  Se  Se186  1  0.92821649  0.74390848  0.94535043  1
  Se  Se187  1  0.25318087  0.25351259  0.29862051  1
  Se  Se188  1  0.24846066  0.25088322  0.80266516  1
  Se  Se189  1  0.24700609  0.59252772  0.29584880  1
  Se  Se190  1  0.25036292  0.58581075  0.80716214  1
  Se  Se191  1  0.25458170  0.92213387  0.30653913  1
  Se  Se192  1  0.25353341  0.91398037  0.80020453  1
  Se  Se193  1  0.57657413  0.24404514  0.30550075  1
  Se  Se194  1  0.57159551  0.24268486  0.82231238  1
  Se  Se195  1  0.57874955  0.58604692  0.29693982  1
  Se  Se196  1  0.57301505  0.57815117  0.81376547  1
  Se  Se197  1  0.57633723  0.91495709  0.30423649  1
  Se  Se198  1  0.57901717  0.91421108  0.80291594  1
  Se  Se199  1  0.92021105  0.24651694  0.30077771  1
  Se  Se200  1  0.91148555  0.25003781  0.80834449  1
  Se  Se201  1  0.90786125  0.57465189  0.30635118  1
  Se  Se202  1  0.92812102  0.59027272  0.80051157  1
  Se  Se203  1  0.90358879  0.90390553  0.30567630  1
  Se  Se204  1  0.91717927  0.92195761  0.80043012  1
  Se  Se205  1  0.08673570  0.08081245  0.30158273  1
  Se  Se206  1  0.07851030  0.08361744  0.80303813  1
  Se  Se207  1  0.08828927  0.41733037  0.29234705  1
  Se  Se208  1  0.08799763  0.42355803  0.80967198  1
  Se  Se209  1  0.08493955  0.75555052  0.30836710  1
  Se  Se210  1  0.08752368  0.75027241  0.80708181  1
  Se  Se211  1  0.41625213  0.08307108  0.29986073  1
  Se  Se212  1  0.41160522  0.07795926  0.80508201  1
  Se  Se213  1  0.41450467  0.41734087  0.29890575  1
  Se  Se214  1  0.40928085  0.41150265  0.81277571  1
  Se  Se215  1  0.41246852  0.75425005  0.30127386  1
  Se  Se216  1  0.41921411  0.74285771  0.80645406  1
  Se  Se217  1  0.74989461  0.08333658  0.30558207  1
  Se  Se218  1  0.74274643  0.08869947  0.80687262  1
  Se  Se219  1  0.75298744  0.41362298  0.31345948  1
  Se  Se220  1  0.76024000  0.43222605  0.81276330  1
  Se  Se221  1  0.73258844  0.74511063  0.29190626  1
  Se  Se222  1  0.75757447  0.76200607  0.81247900  1
  Se  Se223  1  0.25175237  0.08351487  0.19634814  1
  Se  Se224  1  0.25171964  0.07892593  0.70086301  1
  Se  Se225  1  0.24343927  0.43066233  0.20337108  1
  Se  Se226  1  0.25078734  0.41257997  0.69811640  1
  Se  Se227  1  0.25179260  0.75641710  0.20054229  1
  Se  Se228  1  0.25563238  0.74385982  0.69277666  1
  Se  Se229  1  0.57780809  0.09659815  0.18193764  1
  Se  Se230  1  0.58139964  0.08576273  0.70155818  1
  Se  Se231  1  0.57016509  0.42542556  0.18380752  1
  Se  Se232  1  0.57446728  0.42207402  0.69725306  1
  Se  Se233  1  0.57559812  0.75127062  0.19034020  1
  Se  Se234  1  0.57620422  0.75127800  0.68787054  1
  Se  Se235  1  0.92168285  0.07694141  0.19707787  1
  Se  Se236  1  0.91514961  0.08739620  0.69638561  1
  Se  Se237  1  0.91746101  0.40936578  0.20011632  1
  Se  Se238  1  0.91215924  0.42665358  0.68673261  1
  Se  Se239  1  0.92218019  0.74335909  0.20618688  1
  Se  Se240  1  0.91246718  0.75826209  0.70421808  1
  Se  Se241  1  0.08086493  0.24827043  0.19539777  1
  Se  Se242  1  0.09210412  0.23955889  0.68491886  1
  Se  Se243  1  0.05867180  0.60829711  0.19893848  1
  Se  Se244  1  0.08769028  0.58400245  0.69376497  1
  Se  Se245  1  0.08357380  0.91811498  0.19934416  1
  Se  Se246  1  0.08847431  0.91282097  0.69835575  1
  Se  Se247  1  0.41247616  0.25815160  0.19410668  1
  Se  Se248  1  0.41489302  0.25274662  0.70431297  1
  Se  Se249  1  0.41076065  0.59139530  0.19014078  1
  Se  Se250  1  0.41290903  0.58309430  0.70234495  1
  Se  Se251  1  0.41585623  0.92671075  0.19183073  1
  Se  Se252  1  0.41522386  0.91309905  0.69294884  1
  Se  Se253  1  0.75288755  0.23793252  0.19063074  1
  Se  Se254  1  0.75005653  0.25177953  0.69486450  1
  Se  Se255  1  0.74503273  0.57573995  0.19711011  1
  Se  Se256  1  0.75584307  0.58404766  0.69121000  1
  Se  Se257  1  0.76038768  0.90234743  0.18654580  1
  Se  Se258  1  0.74485698  0.91640601  0.70190366  1
