# generated using pymatgen
data_In86Cu29Se144
_symmetry_space_group_name_H-M   'P 1'
_cell_length_a   17.59352906
_cell_length_b   17.59170636
_cell_length_c   23.45786405
_cell_angle_alpha   90.00165060
_cell_angle_beta   89.98711377
_cell_angle_gamma   89.99708956
_symmetry_Int_Tables_number   1
_chemical_formula_structural   In86Cu29Se144
_chemical_formula_sum   'In86 Cu29 Se144'
_cell_volume   7260.21335082
_cell_formula_units_Z   1
loop_
 _symmetry_equiv_pos_site_id
 _symmetry_equiv_pos_as_xyz
  1  'x, y, z'
loop_
 _atom_site_type_symbol
 _atom_site_label
 _atom_site_symmetry_multiplicity
 _atom_site_fract_x
 _atom_site_fract_y
 _atom_site_fract_z
 _atom_site_occupancy
  In  In0  1  -0.01019659  0.14896315  0.12665627  1
  In  In1  1  0.00608910  0.15512246  0.62421977  1
  In  In2  1  -0.00165375  0.51227080  0.11700078  1
  In  In3  1  -0.01386492  0.51382949  0.62386114  1
  In  In4  1  0.00680647  0.84162298  0.11889564  1
  In  In5  1  0.00025677  0.83126564  0.61775611  1
  In  In6  1  0.34428116  0.17307074  0.11964598  1
  In  In7  1  0.32346318  0.16260513  0.62193130  1
  In  In8  1  0.34718084  0.49408246  0.13267850  1
  In  In9  1  0.34954170  0.50638797  0.62185100  1
  In  In10  1  0.33513069  0.83347615  0.12221009  1
  In  In11  1  0.33652187  0.83283980  0.62929757  1
  In  In12  1  0.66805087  0.17435168  0.13564058  1
  In  In13  1  0.65415584  0.15787652  0.62635086  1
  In  In14  1  0.66242254  0.49473586  0.11918675  1
  In  In15  1  0.66436038  0.50913654  0.62026080  1
  In  In16  1  0.68108756  0.85114007  0.10686819  1
  In  In17  1  0.65994643  0.83669192  0.62492061  1
  In  In18  1  0.16477731  0.00693659  0.37917315  1
  In  In19  1  0.17184515  -0.01218286  0.88245445  1
  In  In20  1  0.16476138  0.31998521  0.37058130  1
  In  In21  1  0.15666431  0.32708984  0.88626541  1
  In  In22  1  0.18191340  0.67145861  0.37362036  1
  In  In23  1  0.18400234  0.66808533  0.87019717  1
  In  In24  1  0.50719686  -0.01142389  0.37550112  1
  In  In25  1  0.49965157  -0.00256932  0.88055416  1
  In  In26  1  0.51166979  0.34163506  0.36618866  1
  In  In27  1  0.49549211  0.33575510  0.88241113  1
  In  In28  1  0.49588027  0.67663481  0.37902943  1
  In  In29  1  0.50396613  0.66639202  0.87067893  1
  In  In30  1  0.82112303  -0.01156146  0.35853365  1
  In  In31  1  0.81197738  -0.01836409  0.87203547  1
  In  In32  1  0.82875993  0.34565324  0.37368099  1
  In  In33  1  0.83177809  0.34618440  0.88312351  1
  In  In34  1  0.82984238  0.67208529  0.38199504  1
  In  In35  1  0.80497432  0.69099368  0.89510643  1
  In  In36  1  0.01470039  0.16474198  0.37386274  1
  In  In37  1  0.00306188  0.17615004  0.88842877  1
  In  In38  1  -0.01348890  0.49247016  0.37566620  1
  In  In39  1  -0.01486930  0.50534056  0.88616201  1
  In  In40  1  -0.00837300  0.84514631  0.38138375  1
  In  In41  1  -0.01161424  0.83478153  0.88720725  1
  In  In42  1  0.32230797  0.16325628  0.37262613  1
  In  In43  1  0.34273518  0.15537967  0.88703369  1
  In  In44  1  0.34770321  0.51151551  0.36698295  1
  In  In45  1  0.34283352  0.51500912  0.86878225  1
  In  In46  1  0.34448748  0.82698198  0.38140061  1
  In  In47  1  0.33471276  0.83403765  0.87535716  1
  In  In48  1  0.66393962  0.16031297  0.36126845  1
  In  In49  1  0.66244089  0.14266093  0.87961843  1
  In  In50  1  0.67032761  0.49936244  0.37761881  1
  In  In51  1  0.64763180  0.51813699  0.88307091  1
  In  In52  1  0.66520865  0.84579025  0.38456010  1
  In  In53  1  0.66411054  0.82989905  0.87740444  1
  In  In54  1  0.16069294  -0.00707986  0.11986710  1
  In  In55  1  0.17110376  0.00408488  0.62184653  1
  In  In56  1  0.18622220  0.33761214  0.12679962  1
  In  In57  1  0.17094588  0.32188550  0.61903500  1
  In  In58  1  0.17481929  0.68456204  0.11967249  1
  In  In59  1  0.16391775  0.68268558  0.62595091  1
  In  In60  1  0.51778720  0.01345348  0.10706341  1
  In  In61  1  0.52007084  -0.02309474  0.64026433  1
  In  In62  1  0.50309829  0.33406598  0.12661663  1
  In  In63  1  0.48886345  0.33787541  0.62107952  1
  In  In64  1  0.49797583  0.66546526  0.11869914  1
  In  In65  1  0.49720763  0.66905735  0.62853212  1
  In  In66  1  0.83871139  0.00338009  0.13605871  1
  In  In67  1  0.82152689  -0.01569632  0.61986861  1
  In  In68  1  0.81776613  0.32506169  0.12696974  1
  In  In69  1  0.81962277  0.34388836  0.62335705  1
  In  In70  1  0.85010129  0.66553021  0.10436709  1
  In  In71  1  0.82520369  0.66729115  0.61996807  1
  In  In72  1  0.66529432  0.66817633  0.24102894  1
  In  In73  1  0.83799178  0.16732560  0.49654120  1
  In  In74  1  0.00021425  0.33422490  0.76556736  1
  In  In75  1  0.33872412  -0.00307143  0.25093594  1
  In  In76  1  0.66296789  0.32761001  0.74677300  1
  In  In77  1  -0.00259406  -0.00571224  0.76304625  1
  In  In78  1  0.83287370  0.16550366  0.00366250  1
  In  In79  1  -0.00082835  0.32868026  0.24665067  1
  In  In80  1  0.16219847  0.50045525  0.49436358  1
  In  In81  1  -0.00151116  0.66785607  0.75228228  1
  In  In82  1  0.17221993  0.50138917  -0.00206882  1
  In  In83  1  0.33528103  0.33334676  0.75715193  1
  In  In84  1  0.00533614  0.67057567  0.24158903  1
  In  In85  1  0.49531428  0.15890221  0.49297295  1
  Cu  Cu86  1  0.33117698  0.33588106  0.49709191  1
  Cu  Cu87  1  0.33853086  0.67029010  -0.00541173  1
  Cu  Cu88  1  0.66235421  0.66010629  -0.00128381  1
  Cu  Cu89  1  0.32757463  -0.00592982  0.00098397  1
  Cu  Cu90  1  0.17560727  0.49735700  0.75069315  1
  Cu  Cu91  1  0.82531422  0.50504940  0.75001706  1
  Cu  Cu92  1  -0.00538450  -0.00060829  0.00142818  1
  Cu  Cu93  1  0.17133329  0.83770492  0.75172699  1
  Cu  Cu94  1  0.17197076  0.16173561  0.75128349  1
  Cu  Cu95  1  0.50197142  0.50106470  0.24457001  1
  Cu  Cu96  1  0.00777341  0.00196277  0.49953583  1
  Cu  Cu97  1  0.83262836  0.15288719  0.75424647  1
  Cu  Cu98  1  0.49513474  0.15706911  0.75652862  1
  Cu  Cu99  1  0.82874071  0.83784076  0.24775592  1
  Cu  Cu100  1  0.33678549  -0.00708998  0.50457066  1
  Cu  Cu101  1  -0.00361453  0.33388787  0.49576196  1
  Cu  Cu102  1  0.66151100  0.33195078  0.00471697  1
  Cu  Cu103  1  0.49802282  0.83069646  0.75434055  1
  Cu  Cu104  1  0.82772601  0.50035548  0.24782352  1
  Cu  Cu105  1  0.16708043  0.83634668  0.24537170  1
  Cu  Cu106  1  0.66294643  0.34077059  0.49648200  1
  Cu  Cu107  1  -0.00400426  0.67093399  0.50044100  1
  Cu  Cu108  1  0.33839912  0.33440998  0.00428234  1
  Cu  Cu109  1  0.33420044  0.67178950  0.50111899  1
  Cu  Cu110  1  0.50155412  0.16878943  0.24184662  1
  Cu  Cu111  1  0.17688437  0.50160773  0.25134016  1
  Cu  Cu112  1  0.16997780  0.16229516  0.24906498  1
  Cu  Cu113  1  0.66123184  0.67117598  0.50207482  1
  Cu  Cu114  1  0.50341780  0.83316199  0.25019596  1
  Se  Se115  1  0.07879338  0.08140507  0.05432354  1
  Se  Se116  1  0.09084629  0.08800805  0.55055207  1
  Se  Se117  1  0.08674540  0.41278431  0.06194878  1
  Se  Se118  1  0.07338796  0.41355720  0.56143338  1
  Se  Se119  1  0.06515704  0.73329900  0.05857823  1
  Se  Se120  1  0.08548125  0.75181290  0.54882063  1
  Se  Se121  1  0.41219442  0.08171842  0.04958708  1
  Se  Se122  1  0.41804129  0.07394922  0.56424854  1
  Se  Se123  1  0.42184404  0.41861484  0.05603749  1
  Se  Se124  1  0.41581261  0.41934810  0.54705513  1
  Se  Se125  1  0.41792371  0.75305562  0.05181232  1
  Se  Se126  1  0.41703022  0.75283232  0.55711281  1
  Se  Se127  1  0.74429798  0.07939616  0.06462616  1
  Se  Se128  1  0.74245623  0.08187125  0.55482615  1
  Se  Se129  1  0.75141944  0.41278617  0.05335974  1
  Se  Se130  1  0.74616129  0.42362731  0.55049073  1
  Se  Se131  1  0.74802991  0.74342302  0.04993265  1
  Se  Se132  1  0.74534146  0.75479935  0.55441391  1
  Se  Se133  1  0.25262938  0.25044400  0.05300732  1
  Se  Se134  1  0.25200059  0.24636970  0.54679048  1
  Se  Se135  1  0.26361220  0.58805369  0.05992934  1
  Se  Se136  1  0.24954867  0.58884821  0.55791174  1
  Se  Se137  1  0.24496328  0.90921451  0.05392298  1
  Se  Se138  1  0.25091891  0.91299979  0.55857785  1
  Se  Se139  1  0.58482655  0.24592585  0.06030083  1
  Se  Se140  1  0.58502888  0.25579866  0.55513628  1
  Se  Se141  1  0.57871779  0.57776017  0.05253546  1
  Se  Se142  1  0.57632729  0.58752028  0.55391122  1
  Se  Se143  1  0.56715771  0.90016662  0.04845607  1
  Se  Se144  1  0.58090801  0.91881318  0.55252404  1
  Se  Se145  1  0.92278614  0.25560647  0.06314296  1
  Se  Se146  1  0.92214410  0.25841921  0.56484719  1
  Se  Se147  1  0.91449005  0.56715115  0.03846987  1
  Se  Se148  1  0.90960114  0.58595647  0.54865576  1
  Se  Se149  1  0.91060945  0.92200112  0.05949557  1
  Se  Se150  1  0.92178769  0.92234919  0.55337515  1
  Se  Se151  1  0.08432496  0.25142350  0.44785365  1
  Se  Se152  1  0.08997773  0.24326388  0.95993809  1
  Se  Se153  1  0.07238465  0.59288232  0.43438568  1
  Se  Se154  1  0.08558721  0.59349763  0.93795624  1
  Se  Se155  1  0.08921416  0.91568108  0.44643465  1
  Se  Se156  1  0.07979272  0.91464144  0.95000545  1
  Se  Se157  1  0.41183206  0.25741659  0.43462278  1
  Se  Se158  1  0.41993660  0.24847678  0.95086534  1
  Se  Se159  1  0.41587597  0.58777753  0.44654494  1
  Se  Se160  1  0.42216404  0.58401397  0.94476188  1
  Se  Se161  1  0.42231058  0.91669768  0.44789222  1
  Se  Se162  1  0.41386408  0.91386272  0.94782105  1
  Se  Se163  1  0.73969008  0.25443039  0.43872472  1
  Se  Se164  1  0.73903321  0.25270053  0.94014046  1
  Se  Se165  1  0.74500637  0.58799497  0.44663396  1
  Se  Se166  1  0.75108550  0.57379069  0.94985497  1
  Se  Se167  1  0.76668544  0.91610020  0.44405127  1
  Se  Se168  1  0.74575202  0.90864134  0.95100793  1
  Se  Se169  1  0.25727988  0.07877094  0.44852089  1
  Se  Se170  1  0.24482526  0.08125719  0.94947095  1
  Se  Se171  1  0.25332827  0.41432957  0.43308096  1
  Se  Se172  1  0.26488334  0.41282838  0.93629627  1
  Se  Se173  1  0.24958034  0.75468570  0.44902138  1
  Se  Se174  1  0.24942734  0.75199496  0.94614284  1
  Se  Se175  1  0.59756329  0.07535632  0.44131658  1
  Se  Se176  1  0.57197499  0.08623442  0.95246335  1
  Se  Se177  1  0.57776130  0.42290777  0.44437356  1
  Se  Se178  1  0.58228925  0.41654674  0.94798423  1
  Se  Se179  1  0.58173976  0.75590373  0.44638169  1
  Se  Se180  1  0.58011795  0.74551796  0.94597054  1
  Se  Se181  1  0.92484180  0.07637668  0.43696158  1
  Se  Se182  1  0.91336593  0.07200922  0.93646108  1
  Se  Se183  1  0.90822930  0.41869814  0.45058804  1
  Se  Se184  1  0.94205265  0.39090832  0.94563377  1
  Se  Se185  1  0.91333738  0.75586391  0.44773811  1
  Se  Se186  1  0.91858768  0.74162578  0.95262482  1
  Se  Se187  1  0.25254464  0.24936270  0.29869437  1
  Se  Se188  1  0.24445665  0.24363414  0.81564054  1
  Se  Se189  1  0.25679783  0.59030429  0.30143899  1
  Se  Se190  1  0.25804072  0.58736694  0.79592422  1
  Se  Se191  1  0.24728892  0.91004362  0.31173034  1
  Se  Se192  1  0.25330700  0.92076930  0.80539226  1
  Se  Se193  1  0.58453561  0.25125136  0.29799103  1
  Se  Se194  1  0.57581653  0.24191801  0.81285694  1
  Se  Se195  1  0.57924173  0.58302769  0.30752520  1
  Se  Se196  1  0.58961664  0.58929474  0.79984964  1
  Se  Se197  1  0.58949157  0.91392745  0.30279997  1
  Se  Se198  1  0.57920031  0.91456716  0.80950526  1
  Se  Se199  1  0.91354252  0.24742053  0.31456700  1
  Se  Se200  1  0.90274857  0.23877647  0.81459670  1
  Se  Se201  1  0.90961194  0.58369159  0.30442840  1
  Se  Se202  1  0.90544496  0.58210225  0.81153188  1
  Se  Se203  1  0.92190716  0.91367245  0.29864522  1
  Se  Se204  1  0.90204456  0.89572682  0.80589947  1
  Se  Se205  1  0.08695493  0.07893330  0.30125093  1
  Se  Se206  1  0.08760850  0.09188417  0.81558981  1
  Se  Se207  1  0.08832427  0.42539856  0.30729542  1
  Se  Se208  1  0.09361981  0.43087164  0.81609867  1
  Se  Se209  1  0.08770979  0.75741408  0.30922376  1
  Se  Se210  1  0.08709621  0.76104690  0.81202418  1
  Se  Se211  1  0.42863881  0.09067546  0.31037025  1
  Se  Se212  1  0.41097827  0.07610019  0.80929831  1
  Se  Se213  1  0.41945430  0.41797206  0.30023954  1
  Se  Se214  1  0.43285994  0.42631687  0.80389244  1
  Se  Se215  1  0.41807387  0.75217458  0.30269939  1
  Se  Se216  1  0.41277377  0.74786765  0.80597988  1
  Se  Se217  1  0.75454985  0.08706098  0.29564251  1
  Se  Se218  1  0.74237592  0.07352912  0.80220878  1
  Se  Se219  1  0.74427820  0.41936492  0.30126196  1
  Se  Se220  1  0.74824806  0.42013928  0.80839395  1
  Se  Se221  1  0.75175528  0.75454943  0.30721688  1
  Se  Se222  1  0.74353680  0.74554336  0.80653323  1
  Se  Se223  1  0.25035209  0.08358317  0.18715843  1
  Se  Se224  1  0.25197043  0.07988242  0.69668049  1
  Se  Se225  1  0.26019841  0.41525862  0.20185892  1
  Se  Se226  1  0.24679475  0.41527802  0.68706722  1
  Se  Se227  1  0.25462259  0.75426445  0.19657018  1
  Se  Se228  1  0.25024715  0.75010697  0.69866322  1
  Se  Se229  1  0.58228513  0.07838279  0.19393937  1
  Se  Se230  1  0.58548017  0.08059045  0.70386798  1
  Se  Se231  1  0.58823821  0.41704185  0.19552741  1
  Se  Se232  1  0.57566111  0.42029682  0.68871134  1
  Se  Se233  1  0.58208667  0.76247831  0.18218006  1
  Se  Se234  1  0.58127397  0.75192248  0.69625491  1
  Se  Se235  1  0.91445335  0.08782585  0.20704578  1
  Se  Se236  1  0.91394386  0.07947680  0.69193862  1
  Se  Se237  1  0.91402913  0.42551626  0.18833417  1
  Se  Se238  1  0.91111236  0.42091938  0.69728563  1
  Se  Se239  1  0.90672974  0.75580901  0.18707435  1
  Se  Se240  1  0.91149668  0.75533555  0.68923613  1
  Se  Se241  1  0.09207701  0.24278271  0.18631874  1
  Se  Se242  1  0.08709101  0.24507669  0.69731313  1
  Se  Se243  1  0.09898084  0.57713995  0.18748600  1
  Se  Se244  1  0.09076653  0.57483180  0.69112385  1
  Se  Se245  1  0.08106430  0.91880667  0.19581658  1
  Se  Se246  1  0.08537746  0.91340008  0.69281985  1
  Se  Se247  1  0.41488921  0.25376771  0.19551080  1
  Se  Se248  1  0.42146327  0.23976807  0.69314237  1
  Se  Se249  1  0.42045081  0.59125750  0.19643434  1
  Se  Se250  1  0.41239954  0.58737173  0.69753891  1
  Se  Se251  1  0.42992589  0.91730479  0.18682570  1
  Se  Se252  1  0.41385950  0.91651404  0.70176151  1
  Se  Se253  1  0.75560847  0.24793155  0.20589270  1
  Se  Se254  1  0.75950299  0.23601167  0.68995000  1
  Se  Se255  1  0.76113420  0.58372493  0.18154612  1
  Se  Se256  1  0.74694385  0.58600499  0.69242546  1
  Se  Se257  1  0.74301796  0.91740584  0.19420193  1
  Se  Se258  1  0.74159541  0.91975453  0.69567696  1
