# generated using pymatgen
data_In86Cu29Se144
_symmetry_space_group_name_H-M   'P 1'
_cell_length_a   17.58003661
_cell_length_b   17.58030130
_cell_length_c   23.43927524
_cell_angle_alpha   90.00301253
_cell_angle_beta   89.98251425
_cell_angle_gamma   89.98725689
_symmetry_Int_Tables_number   1
_chemical_formula_structural   In86Cu29Se144
_chemical_formula_sum   'In86 Cu29 Se144'
_cell_volume   7244.19673925
_cell_formula_units_Z   1
loop_
 _symmetry_equiv_pos_site_id
 _symmetry_equiv_pos_as_xyz
  1  'x, y, z'
loop_
 _atom_site_type_symbol
 _atom_site_label
 _atom_site_symmetry_multiplicity
 _atom_site_fract_x
 _atom_site_fract_y
 _atom_site_fract_z
 _atom_site_occupancy
  In  In0  1  0.00353555  0.16490394  0.12160113  1
  In  In1  1  0.01686400  0.15555515  0.63249036  1
  In  In2  1  -0.00002173  0.50050283  0.11287111  1
  In  In3  1  0.00405195  0.49783963  0.63207187  1
  In  In4  1  -0.00645417  0.84335586  0.11761946  1
  In  In5  1  0.00690884  0.82802954  0.63459428  1
  In  In6  1  0.32905008  0.15395493  0.12809365  1
  In  In7  1  0.33031623  0.18279876  0.62860928  1
  In  In8  1  0.34453451  0.51103376  0.11461178  1
  In  In9  1  0.33235916  0.50165757  0.62675286  1
  In  In10  1  0.34304262  0.81909765  0.13284211  1
  In  In11  1  0.33134342  0.82771608  0.62435359  1
  In  In12  1  0.65847830  0.17089879  0.12515325  1
  In  In13  1  0.65650193  0.15314579  0.62860180  1
  In  In14  1  0.66614160  0.49717716  0.11849516  1
  In  In15  1  0.66743912  0.51391304  0.62745153  1
  In  In16  1  0.66794506  0.84209687  0.11386703  1
  In  In17  1  0.65679557  0.83847505  0.64132672  1
  In  In18  1  0.18747839  -0.02030617  0.40115126  1
  In  In19  1  0.15625209  0.00206597  0.87056960  1
  In  In20  1  0.16566201  0.33724554  0.38501177  1
  In  In21  1  0.18520056  0.34829557  0.86664110  1
  In  In22  1  0.17246991  0.66276638  0.38222445  1
  In  In23  1  0.15828694  0.65955184  0.86429849  1
  In  In24  1  0.49047359  -0.00778086  0.36763907  1
  In  In25  1  0.53771827  -0.02941121  0.91275410  1
  In  In26  1  0.51049817  0.33192825  0.37021011  1
  In  In27  1  0.47975449  0.34474058  0.89182971  1
  In  In28  1  0.48669285  0.67937726  0.38284514  1
  In  In29  1  0.49707286  0.67044091  0.86564688  1
  In  In30  1  0.83282015  0.00559167  0.37204198  1
  In  In31  1  0.79907591  -0.04211373  0.83355538  1
  In  In32  1  0.81886160  0.33907431  0.36947475  1
  In  In33  1  0.84861757  0.33586580  0.87474945  1
  In  In34  1  0.83995397  0.66304865  0.37601219  1
  In  In35  1  0.82577878  0.66886624  0.87544547  1
  In  In36  1  0.00292799  0.17129572  0.38248013  1
  In  In37  1  -0.00264659  0.16525346  0.86480424  1
  In  In38  1  0.00338942  0.50824571  0.37889957  1
  In  In39  1  0.00505540  0.50304753  0.87481625  1
  In  In40  1  0.01815889  0.84202114  0.38017908  1
  In  In41  1  -0.02718995  0.81216565  0.84840891  1
  In  In42  1  0.33678147  0.15295074  0.37739632  1
  In  In43  1  0.34013363  0.17749544  0.87450568  1
  In  In44  1  0.32740200  0.51062136  0.38028139  1
  In  In45  1  0.33128025  0.50009603  0.87344166  1
  In  In46  1  0.33340176  0.83516936  0.37603702  1
  In  In47  1  0.35682163  0.82798001  0.86912827  1
  In  In48  1  0.65936070  0.15813081  0.36433095  1
  In  In49  1  0.65972216  0.14537964  0.88025059  1
  In  In50  1  0.66206895  0.48716754  0.36911750  1
  In  In51  1  0.65235418  0.51583530  0.88201945  1
  In  In52  1  0.65206200  0.82832917  0.37436198  1
  In  In53  1  0.66264352  0.82726588  0.87062424  1
  In  In54  1  0.16750516  0.00568288  0.12926421  1
  In  In55  1  0.15717457  -0.00736032  0.61034376  1
  In  In56  1  0.16112895  0.33778155  0.12197947  1
  In  In57  1  0.16572699  0.33961684  0.62437633  1
  In  In58  1  0.18469569  0.66956471  0.12432889  1
  In  In59  1  0.16973621  0.66540042  0.62733966  1
  In  In60  1  0.50067425  -0.00314044  0.12066384  1
  In  In61  1  0.51330852  -0.00615450  0.63324539  1
  In  In62  1  0.50724705  0.35203230  0.11296419  1
  In  In63  1  0.48337656  0.33317760  0.63181087  1
  In  In64  1  0.49409076  0.66212906  0.11664190  1
  In  In65  1  0.49984260  0.66507834  0.62771935  1
  In  In66  1  0.82569856  -0.01570141  0.11559713  1
  In  In67  1  0.83653385  -0.01175196  0.64085979  1
  In  In68  1  0.82395098  0.33247807  0.12092956  1
  In  In69  1  0.83578411  0.35057320  0.63108925  1
  In  In70  1  0.82753446  0.66637257  0.11189188  1
  In  In71  1  0.82954083  0.68242346  0.64506621  1
  In  In72  1  0.16627013  0.83040381  -0.00217052  1
  In  In73  1  0.83279933  0.16627347  -0.00175704  1
  In  In74  1  0.00289738  0.00009219  0.25167380  1
  In  In75  1  0.66666026  0.33109493  0.76147321  1
  In  In76  1  0.33712160  0.00424557  0.75229275  1
  In  In77  1  0.33946720  0.33311385  0.24514656  1
  In  In78  1  0.17095552  0.16891272  -0.00005604  1
  In  In79  1  0.49539361  0.16576849  0.49957291  1
  In  In80  1  0.83899357  0.50501242  0.50004852  1
  In  In81  1  -0.00452605  0.32986699  0.24636123  1
  In  In82  1  0.83482264  0.83226401  0.51387562  1
  In  In83  1  0.83761959  0.16501879  0.50238718  1
  In  In84  1  0.66037601  0.66508174  0.23996102  1
  In  In85  1  -0.00198101  0.66368066  0.25691659  1
  Cu  Cu86  1  0.49872077  0.50689836  0.24185834  1
  Cu  Cu87  1  0.50595067  0.16518380  0.24510485  1
  Cu  Cu88  1  0.33458517  0.66416561  -0.00690773  1
  Cu  Cu89  1  0.01142599  0.34099276  -0.00862346  1
  Cu  Cu90  1  0.66452687  0.66901967  -0.00349331  1
  Cu  Cu91  1  0.50010274  0.16178181  0.75870158  1
  Cu  Cu92  1  0.82792095  0.83104635  0.24320552  1
  Cu  Cu93  1  0.16776025  0.50005752  0.74737744  1
  Cu  Cu94  1  0.17126587  0.50696848  0.25192761  1
  Cu  Cu95  1  0.00397424  0.33232023  0.50782300  1
  Cu  Cu96  1  0.66520509  -0.01161171  0.50360654  1
  Cu  Cu97  1  0.33669824  -0.00305591  0.00263396  1
  Cu  Cu98  1  0.17580294  0.15730696  0.25779638  1
  Cu  Cu99  1  0.17095932  0.83384526  0.74369597  1
  Cu  Cu100  1  0.49753961  0.84246868  0.25117415  1
  Cu  Cu101  1  -0.01110768  -0.00682783  -0.01142692  1
  Cu  Cu102  1  0.16709742  0.17283007  0.74655391  1
  Cu  Cu103  1  0.34026633  -0.00235447  0.50283389  1
  Cu  Cu104  1  0.65472899  0.66366405  0.50281735  1
  Cu  Cu105  1  0.00018232  0.66630796  -0.01115669  1
  Cu  Cu106  1  0.84118492  0.50529951  0.75693444  1
  Cu  Cu107  1  0.82409851  0.16033214  0.24540003  1
  Cu  Cu108  1  0.49850033  0.49996714  0.75409619  1
  Cu  Cu109  1  0.33012632  0.34278407  0.50383747  1
  Cu  Cu110  1  0.67138459  0.33973212  -0.00282580  1
  Cu  Cu111  1  0.83328509  0.17287858  0.75143552  1
  Cu  Cu112  1  0.00455625  0.66875199  0.50794464  1
  Cu  Cu113  1  0.33405046  0.66567245  0.50483448  1
  Cu  Cu114  1  0.65786086  0.33455492  0.49475615  1
  Se  Se115  1  0.07301436  0.06882944  0.05044037  1
  Se  Se116  1  0.08770625  0.09380869  0.54919928  1
  Se  Se117  1  0.09198808  0.42217688  0.04835522  1
  Se  Se118  1  0.08224495  0.42505208  0.55541034  1
  Se  Se119  1  0.07515938  0.74003878  0.05934994  1
  Se  Se120  1  0.08709093  0.75337687  0.55980294  1
  Se  Se121  1  0.41484878  0.08446977  0.05527167  1
  Se  Se122  1  0.41455136  0.07768029  0.56798809  1
  Se  Se123  1  0.40934951  0.41594339  0.04751528  1
  Se  Se124  1  0.41894459  0.41880215  0.55692634  1
  Se  Se125  1  0.41251133  0.74992545  0.05013939  1
  Se  Se126  1  0.41919693  0.74837602  0.55684313  1
  Se  Se127  1  0.74005376  0.07800916  0.05562181  1
  Se  Se128  1  0.74656795  0.07061393  0.56069148  1
  Se  Se129  1  0.75702118  0.42190193  0.04890591  1
  Se  Se130  1  0.74173055  0.41239335  0.55454698  1
  Se  Se131  1  0.74912988  0.75532475  0.04702735  1
  Se  Se132  1  0.73895250  0.73989187  0.56356605  1
  Se  Se133  1  0.25898895  0.25682982  0.06177931  1
  Se  Se134  1  0.24885007  0.25503645  0.55437772  1
  Se  Se135  1  0.24935205  0.58535292  0.04869291  1
  Se  Se136  1  0.24874011  0.58181315  0.55605764  1
  Se  Se137  1  0.25235117  0.91936509  0.06199747  1
  Se  Se138  1  0.25476528  0.91257581  0.55291798  1
  Se  Se139  1  0.58892706  0.25776148  0.05237530  1
  Se  Se140  1  0.58651013  0.25518953  0.56155133  1
  Se  Se141  1  0.58458446  0.58377262  0.05204964  1
  Se  Se142  1  0.57641422  0.57588973  0.55495972  1
  Se  Se143  1  0.57317566  0.91130147  0.04751744  1
  Se  Se144  1  0.58322744  0.90839102  0.55928319  1
  Se  Se145  1  0.93119172  0.26035799  0.05376753  1
  Se  Se146  1  0.91910398  0.25743206  0.56652661  1
  Se  Se147  1  0.91712973  0.58586557  0.04725764  1
  Se  Se148  1  0.91553894  0.59730674  0.56730678  1
  Se  Se149  1  0.90827950  0.90939112  0.04281845  1
  Se  Se150  1  0.92759545  0.92591232  0.56449441  1
  Se  Se151  1  0.08553186  0.25031211  0.45162101  1
  Se  Se152  1  0.08466810  0.25326818  0.93361994  1
  Se  Se153  1  0.08304997  0.58421405  0.45067424  1
  Se  Se154  1  0.09098489  0.58330976  0.94482375  1
  Se  Se155  1  0.07934016  0.91933522  0.45934003  1
  Se  Se156  1  0.07352012  0.91083984  0.93420027  1
  Se  Se157  1  0.40828560  0.26187220  0.44001657  1
  Se  Se158  1  0.41537630  0.24229628  0.95465266  1
  Se  Se159  1  0.41781097  0.58297201  0.44939239  1
  Se  Se160  1  0.42010771  0.58516893  0.93796495  1
  Se  Se161  1  0.42134676  0.91569015  0.44613290  1
  Se  Se162  1  0.41389199  0.90685638  0.95185312  1
  Se  Se163  1  0.73904828  0.24873048  0.44083595  1
  Se  Se164  1  0.74462433  0.25682397  0.93502578  1
  Se  Se165  1  0.73912426  0.58936597  0.44060413  1
  Se  Se166  1  0.75097422  0.58326188  0.94795048  1
  Se  Se167  1  0.74885587  0.91486112  0.44118426  1
  Se  Se168  1  0.74282160  0.92621985  0.93130088  1
  Se  Se169  1  0.25678752  0.08888172  0.45615319  1
  Se  Se170  1  0.25479375  0.07228181  0.94014559  1
  Se  Se171  1  0.24705472  0.42493744  0.44858279  1
  Se  Se172  1  0.25861448  0.41334978  0.94639227  1
  Se  Se173  1  0.25423061  0.75004640  0.44757101  1
  Se  Se174  1  0.25415098  0.74506499  0.93284078  1
  Se  Se175  1  0.58827907  0.07346064  0.44306818  1
  Se  Se176  1  0.57211200  0.09844539  0.96005728  1
  Se  Se177  1  0.57638183  0.42045299  0.44460547  1
  Se  Se178  1  0.58134572  0.42170217  0.94879880  1
  Se  Se179  1  0.57826994  0.75412542  0.45104746  1
  Se  Se180  1  0.57889895  0.74609703  0.94073231  1
  Se  Se181  1  0.92589363  0.06974821  0.44558307  1
  Se  Se182  1  0.91385753  0.07966108  0.93192271  1
  Se  Se183  1  0.92219760  0.40374277  0.44041512  1
  Se  Se184  1  0.91929004  0.42276397  0.94622031  1
  Se  Se185  1  0.92454056  0.74628316  0.44490636  1
  Se  Se186  1  0.91660276  0.75355384  0.94044734  1
  Se  Se187  1  0.24885457  0.24960091  0.31251014  1
  Se  Se188  1  0.25400100  0.24850508  0.80189075  1
  Se  Se189  1  0.25256246  0.58979695  0.30520490  1
  Se  Se190  1  0.25247971  0.58226264  0.80089208  1
  Se  Se191  1  0.24891652  0.92422193  0.31286872  1
  Se  Se192  1  0.24670612  0.90896436  0.81112384  1
  Se  Se193  1  0.58716016  0.25186162  0.29768443  1
  Se  Se194  1  0.57352945  0.24728357  0.82099991  1
  Se  Se195  1  0.57336875  0.58498464  0.30972539  1
  Se  Se196  1  0.58615093  0.58586257  0.79926644  1
  Se  Se197  1  0.58795382  0.91961876  0.30255338  1
  Se  Se198  1  0.57246239  0.92088038  0.81388202  1
  Se  Se199  1  0.90522925  0.23727170  0.30813259  1
  Se  Se200  1  0.92001864  0.25707640  0.79836239  1
  Se  Se201  1  0.90303411  0.56406516  0.30534140  1
  Se  Se202  1  0.92142263  0.59066318  0.80994258  1
  Se  Se203  1  0.91158311  0.90289085  0.30871633  1
  Se  Se204  1  0.93977604  0.94290094  0.80610344  1
  Se  Se205  1  0.08926140  0.08470562  0.31701158  1
  Se  Se206  1  0.08540391  0.08589082  0.79708263  1
  Se  Se207  1  0.08876920  0.42212504  0.30661711  1
  Se  Se208  1  0.08510383  0.41808879  0.80423433  1
  Se  Se209  1  0.09271847  0.75499697  0.30887891  1
  Se  Se210  1  0.08567225  0.74964187  0.79505405  1
  Se  Se211  1  0.41950074  0.08757266  0.30074759  1
  Se  Se212  1  0.42680269  0.07836174  0.82092493  1
  Se  Se213  1  0.42222120  0.42699698  0.30745017  1
  Se  Se214  1  0.41694293  0.41359981  0.80566118  1
  Se  Se215  1  0.41725677  0.75502020  0.30392009  1
  Se  Se216  1  0.41058556  0.74085914  0.79193444  1
  Se  Se217  1  0.74604307  0.07388191  0.29967599  1
  Se  Se218  1  0.74694782  0.09123871  0.80135378  1
  Se  Se219  1  0.74501797  0.41655979  0.29641720  1
  Se  Se220  1  0.75454373  0.42829799  0.81610077  1
  Se  Se221  1  0.75405725  0.74974707  0.30754896  1
  Se  Se222  1  0.75585499  0.75536235  0.80290882  1
  Se  Se223  1  0.25461409  0.07376907  0.20289284  1
  Se  Se224  1  0.24471533  0.08565253  0.68727360  1
  Se  Se225  1  0.24676673  0.42540347  0.18933401  1
  Se  Se226  1  0.25213336  0.41485799  0.69561783  1
  Se  Se227  1  0.24477226  0.75499941  0.19926903  1
  Se  Se228  1  0.25494435  0.74605044  0.69698760  1
  Se  Se229  1  0.58511986  0.07769678  0.19188430  1
  Se  Se230  1  0.58489295  0.07916863  0.70674511  1
  Se  Se231  1  0.58335840  0.42183523  0.19267846  1
  Se  Se232  1  0.58139370  0.41849838  0.69409852  1
  Se  Se233  1  0.57298045  0.76153249  0.18574535  1
  Se  Se234  1  0.59915499  0.72672881  0.69612951  1
  Se  Se235  1  0.90941882  0.08494236  0.18611398  1
  Se  Se236  1  0.91501499  0.08943623  0.69624354  1
  Se  Se237  1  0.91205515  0.42301257  0.18686365  1
  Se  Se238  1  0.92091093  0.41894861  0.70399769  1
  Se  Se239  1  0.91205792  0.75152148  0.18787405  1
  Se  Se240  1  0.91206949  0.76914407  0.70706725  1
  Se  Se241  1  0.09669416  0.23615591  0.19545483  1
  Se  Se242  1  0.08265290  0.25800647  0.69515758  1
  Se  Se243  1  0.08561250  0.57878686  0.18956945  1
  Se  Se244  1  0.08291890  0.58688237  0.69764848  1
  Se  Se245  1  0.08853925  0.90525729  0.19171811  1
  Se  Se246  1  0.09048032  0.92354296  0.69438619  1
  Se  Se247  1  0.42822146  0.24609593  0.18346814  1
  Se  Se248  1  0.41749559  0.24532132  0.70533408  1
  Se  Se249  1  0.41264059  0.59055698  0.19334507  1
  Se  Se250  1  0.41619212  0.58110848  0.69701587  1
  Se  Se251  1  0.41429982  0.92098090  0.19319723  1
  Se  Se252  1  0.42266871  0.90729070  0.69515212  1
  Se  Se253  1  0.74882317  0.24995981  0.19239515  1
  Se  Se254  1  0.74987459  0.24734469  0.68809693  1
  Se  Se255  1  0.75924155  0.57812877  0.18846494  1
  Se  Se256  1  0.75316711  0.58047258  0.70143310  1
  Se  Se257  1  0.74523443  0.91562417  0.19282353  1
  Se  Se258  1  0.74253528  0.92094017  0.70743953  1
