# generated using pymatgen
data_In86Cu29Se144
_symmetry_space_group_name_H-M   'P 1'
_cell_length_a   17.58148471
_cell_length_b   17.57929593
_cell_length_c   23.42976979
_cell_angle_alpha   89.96259097
_cell_angle_beta   89.99104672
_cell_angle_gamma   90.00661507
_symmetry_Int_Tables_number   1
_chemical_formula_structural   In86Cu29Se144
_chemical_formula_sum   'In86 Cu29 Se144'
_cell_volume   7241.44014428
_cell_formula_units_Z   1
loop_
 _symmetry_equiv_pos_site_id
 _symmetry_equiv_pos_as_xyz
  1  'x, y, z'
loop_
 _atom_site_type_symbol
 _atom_site_label
 _atom_site_symmetry_multiplicity
 _atom_site_fract_x
 _atom_site_fract_y
 _atom_site_fract_z
 _atom_site_occupancy
  In  In0  1  0.00978959  0.16119416  0.12308397  1
  In  In1  1  -0.01582300  0.16825511  0.62638519  1
  In  In2  1  -0.00834058  0.50427098  0.11657463  1
  In  In3  1  -0.00484938  0.49659559  0.61806597  1
  In  In4  1  -0.00594766  0.83312910  0.11479037  1
  In  In5  1  0.00955995  0.83468712  0.63229540  1
  In  In6  1  0.32370859  0.17913141  0.12706884  1
  In  In7  1  0.33531831  0.17425589  0.62831783  1
  In  In8  1  0.32286711  0.48898118  0.11616237  1
  In  In9  1  0.33567492  0.50085895  0.63859851  1
  In  In10  1  0.32085455  0.83527894  0.10965701  1
  In  In11  1  0.33512200  0.81731959  0.63286961  1
  In  In12  1  0.67113573  0.16203078  0.13577785  1
  In  In13  1  0.67336476  0.16071976  0.62944729  1
  In  In14  1  0.66606730  0.50124785  0.12260428  1
  In  In15  1  0.67517052  0.48837992  0.62981487  1
  In  In16  1  0.66730313  0.82989728  0.12478237  1
  In  In17  1  0.67139304  0.84944419  0.62528176  1
  In  In18  1  0.16174053  0.00546730  0.36809923  1
  In  In19  1  0.15185111  0.00784276  0.89683724  1
  In  In20  1  0.16669141  0.33835948  0.36138889  1
  In  In21  1  0.16801468  0.32629782  0.88582707  1
  In  In22  1  0.15862088  0.67902261  0.36628082  1
  In  In23  1  0.17129132  0.66018969  0.88614635  1
  In  In24  1  0.50412271  -0.01770785  0.37652064  1
  In  In25  1  0.50419108  -0.01143205  0.87725601  1
  In  In26  1  0.49741535  0.33084635  0.36792053  1
  In  In27  1  0.50986330  0.34297646  0.86950729  1
  In  In28  1  0.51329733  0.66342838  0.37415477  1
  In  In29  1  0.48906481  0.67420704  0.88177990  1
  In  In30  1  0.84445817  0.01080517  0.36475512  1
  In  In31  1  0.82557563  -0.00429689  0.87244918  1
  In  In32  1  0.83480378  0.33679343  0.37508740  1
  In  In33  1  0.82925937  0.34368543  0.87443963  1
  In  In34  1  0.82675327  0.65461848  0.36427213  1
  In  In35  1  0.84109199  0.65686915  0.88849948  1
  In  In36  1  -0.00596350  0.16370648  0.36849761  1
  In  In37  1  0.01346846  0.16828509  0.88402386  1
  In  In38  1  -0.02005953  0.48204668  0.35428119  1
  In  In39  1  -0.00172867  0.49752897  0.89840479  1
  In  In40  1  -0.00139892  0.83331365  0.35764444  1
  In  In41  1  -0.02155049  0.84197063  0.90541723  1
  In  In42  1  0.32565578  0.17308598  0.37278463  1
  In  In43  1  0.31515999  0.16880499  0.87907927  1
  In  In44  1  0.33830163  0.49825014  0.36858616  1
  In  In45  1  0.33214032  0.50252632  0.87701667  1
  In  In46  1  0.33180028  0.84333393  0.37448009  1
  In  In47  1  0.34614219  0.83557030  0.88555883  1
  In  In48  1  0.68116155  0.18023775  0.36352371  1
  In  In49  1  0.66567723  0.16887917  0.86472805  1
  In  In50  1  0.67297944  0.50653437  0.36696344  1
  In  In51  1  0.67461354  0.48671064  0.88141516  1
  In  In52  1  0.66484844  0.82566586  0.36682238  1
  In  In53  1  0.66102760  0.83481473  0.88009941  1
  In  In54  1  0.14230307  -0.01479623  0.09598645  1
  In  In55  1  0.16204389  -0.01309233  0.63449967  1
  In  In56  1  0.15935874  0.33889464  0.12229724  1
  In  In57  1  0.16733396  0.34290494  0.62844891  1
  In  In58  1  0.13756824  0.64893539  0.09618953  1
  In  In59  1  0.16830628  0.67525395  0.63547619  1
  In  In60  1  0.51105385  -0.00494055  0.12814071  1
  In  In61  1  0.51778090  0.00153263  0.62457680  1
  In  In62  1  0.49023291  0.33651487  0.13107680  1
  In  In63  1  0.49489163  0.33860760  0.63295853  1
  In  In64  1  0.50876348  0.67424358  0.12003324  1
  In  In65  1  0.49306554  0.65950796  0.62823502  1
  In  In66  1  0.84784286  -0.01406697  0.12795000  1
  In  In67  1  0.82494046  0.00838627  0.63249810  1
  In  In68  1  0.82517764  0.34036194  0.12875089  1
  In  In69  1  0.83496608  0.32124269  0.61634222  1
  In  In70  1  0.83187133  0.66480387  0.12000292  1
  In  In71  1  0.84302750  0.65787046  0.62531885  1
  In  In72  1  0.66720713  0.66524162  0.75224530  1
  In  In73  1  0.83773678  0.16656424  0.00623553  1
  In  In74  1  0.32984234  0.00675167  0.24604242  1
  In  In75  1  0.83363029  0.83365621  0.49662403  1
  In  In76  1  0.32981889  0.66578136  0.23794754  1
  In  In77  1  0.16672465  0.83161496  0.50350310  1
  In  In78  1  0.50534406  0.49774604  0.50971621  1
  In  In79  1  0.16209268  0.49944876  0.49526048  1
  In  In80  1  0.00143558  0.33183670  0.75298048  1
  In  In81  1  0.50761296  0.17117413  0.49073058  1
  In  In82  1  0.16259031  0.16670020  0.49751906  1
  In  In83  1  0.49697696  0.16749867  0.00109428  1
  In  In84  1  0.00532427  0.66329996  0.77054161  1
  In  In85  1  0.33737773  0.00018174  0.76314934  1
  Cu  Cu86  1  0.16609908  0.16343803  0.76180344  1
  Cu  Cu87  1  0.67341492  0.00231913  0.50044727  1
  Cu  Cu88  1  0.50149179  0.82823606  0.24802694  1
  Cu  Cu89  1  0.16170759  0.50205531  0.23443381  1
  Cu  Cu90  1  -0.00516796  0.00116169  0.49748542  1
  Cu  Cu91  1  0.50252419  0.83560082  0.75690327  1
  Cu  Cu92  1  0.83120315  0.83315674  0.24210167  1
  Cu  Cu93  1  0.34327258  0.66438686  0.00036770  1
  Cu  Cu94  1  0.66764076  0.33609956  0.00416289  1
  Cu  Cu95  1  0.50335553  0.49661207  0.24658862  1
  Cu  Cu96  1  0.50091690  0.17356678  0.74826362  1
  Cu  Cu97  1  0.16112578  0.16686165  0.24565065  1
  Cu  Cu98  1  -0.00810974  0.65696704  0.49400746  1
  Cu  Cu99  1  0.49506465  0.50566526  0.75497345  1
  Cu  Cu100  1  0.66223057  0.66594318  0.00031206  1
  Cu  Cu101  1  0.66768131  -0.01105753  0.00165809  1
  Cu  Cu102  1  0.66963531  0.33407667  0.49905289  1
  Cu  Cu103  1  0.83567383  0.17205947  0.24635878  1
  Cu  Cu104  1  0.33245288  0.33974161  0.00192077  1
  Cu  Cu105  1  0.15639080  0.83175202  0.23148135  1
  Cu  Cu106  1  0.33766808  0.66471841  0.50790898  1
  Cu  Cu107  1  0.16416665  0.83470123  0.76151606  1
  Cu  Cu108  1  0.83857729  0.83340541  0.75805489  1
  Cu  Cu109  1  0.67177041  0.66962061  0.49120037  1
  Cu  Cu110  1  0.83223709  0.50381647  0.24402384  1
  Cu  Cu111  1  0.34557668  -0.00383580  0.50163956  1
  Cu  Cu112  1  0.16648144  0.50122179  0.75754653  1
  Cu  Cu113  1  0.83456994  0.16326401  0.74840753  1
  Cu  Cu114  1  0.50198464  0.16645828  0.24874133  1
  Se  Se115  1  0.08170256  0.09633248  0.04001287  1
  Se  Se116  1  0.08091140  0.07088148  0.56105015  1
  Se  Se117  1  0.09467288  0.43605010  0.05503553  1
  Se  Se118  1  0.07421344  0.40226524  0.55220044  1
  Se  Se119  1  0.10390491  0.77816476  0.04896555  1
  Se  Se120  1  0.07144477  0.73523620  0.55705016  1
  Se  Se121  1  0.41536533  0.08353769  0.06930037  1
  Se  Se122  1  0.41865805  0.08325796  0.55928277  1
  Se  Se123  1  0.42308956  0.41725448  0.05289071  1
  Se  Se124  1  0.40274156  0.41261561  0.55994336  1
  Se  Se125  1  0.41956805  0.75373699  0.05370260  1
  Se  Se126  1  0.42115820  0.75013909  0.55792576  1
  Se  Se127  1  0.74362478  0.07378898  0.06144435  1
  Se  Se128  1  0.75417737  0.08598453  0.55435590  1
  Se  Se129  1  0.75313234  0.42152261  0.05267641  1
  Se  Se130  1  0.75284675  0.41589898  0.55382871  1
  Se  Se131  1  0.74684197  0.74946367  0.05264825  1
  Se  Se132  1  0.74674630  0.74393062  0.56137389  1
  Se  Se133  1  0.24675773  0.25636583  0.05303240  1
  Se  Se134  1  0.25331786  0.25732912  0.55711444  1
  Se  Se135  1  0.25319304  0.58258037  0.04835328  1
  Se  Se136  1  0.25084217  0.58771857  0.56356925  1
  Se  Se137  1  0.26869866  0.94474841  0.04857006  1
  Se  Se138  1  0.26163961  0.92085563  0.56306586  1
  Se  Se139  1  0.59038096  0.25168809  0.06348879  1
  Se  Se140  1  0.58669765  0.25859219  0.56102063  1
  Se  Se141  1  0.57993948  0.58047018  0.05266180  1
  Se  Se142  1  0.59925496  0.59287446  0.56195560  1
  Se  Se143  1  0.58015794  0.91008145  0.05432749  1
  Se  Se144  1  0.58719171  0.91759590  0.54949721  1
  Se  Se145  1  0.92182483  0.26037897  0.06400545  1
  Se  Se146  1  0.92299396  0.24619201  0.54776433  1
  Se  Se147  1  0.92647875  0.60259676  0.04689126  1
  Se  Se148  1  0.91015970  0.57602635  0.54860312  1
  Se  Se149  1  0.91360603  0.91757029  0.04509290  1
  Se  Se150  1  0.92254357  0.91866877  0.56231860  1
  Se  Se151  1  0.08068813  0.25669590  0.43367580  1
  Se  Se152  1  0.07731726  0.25715657  0.95529317  1
  Se  Se153  1  0.07665320  0.58715917  0.43103430  1
  Se  Se154  1  0.07878399  0.59268924  0.95560066  1
  Se  Se155  1  0.07612498  0.91901319  0.43943338  1
  Se  Se156  1  0.09656202  0.89674622  0.95828930  1
  Se  Se157  1  0.40581293  0.26092879  0.44384812  1
  Se  Se158  1  0.41143440  0.25925991  0.93902366  1
  Se  Se159  1  0.41439627  0.58650382  0.44395813  1
  Se  Se160  1  0.42220477  0.57596420  0.94779739  1
  Se  Se161  1  0.42055578  0.90671540  0.44898303  1
  Se  Se162  1  0.41957970  0.92746537  0.95267197  1
  Se  Se163  1  0.75146400  0.25087717  0.44438445  1
  Se  Se164  1  0.74072559  0.24961848  0.94372497  1
  Se  Se165  1  0.75237620  0.58105237  0.44303039  1
  Se  Se166  1  0.74571499  0.57922273  0.94962902  1
  Se  Se167  1  0.74854106  0.92360168  0.43427017  1
  Se  Se168  1  0.75327439  0.91085332  0.94641794  1
  Se  Se169  1  0.25931685  0.06993801  0.44252903  1
  Se  Se170  1  0.25644877  0.07998787  0.95302515  1
  Se  Se171  1  0.25641223  0.41112284  0.43796721  1
  Se  Se172  1  0.24841004  0.42107827  0.94672718  1
  Se  Se173  1  0.25757264  0.73994002  0.44264758  1
  Se  Se174  1  0.25951442  0.74823679  0.94796580  1
  Se  Se175  1  0.59610534  0.07820822  0.43392330  1
  Se  Se176  1  0.59516906  0.08035148  0.94356632  1
  Se  Se177  1  0.58703643  0.41271947  0.43964291  1
  Se  Se178  1  0.58066123  0.41537099  0.95019888  1
  Se  Se179  1  0.58435181  0.75299402  0.44435289  1
  Se  Se180  1  0.57920473  0.75215544  0.94805943  1
  Se  Se181  1  0.91514645  0.08578372  0.44424903  1
  Se  Se182  1  0.91844574  0.07640158  0.94094522  1
  Se  Se183  1  0.91765595  0.42316168  0.44136117  1
  Se  Se184  1  0.91179142  0.40356820  0.95193899  1
  Se  Se185  1  0.92223048  0.74630131  0.43377907  1
  Se  Se186  1  0.92389747  0.72835730  0.96266886  1
  Se  Se187  1  0.24932286  0.24760367  0.29791780  1
  Se  Se188  1  0.24619762  0.25639208  0.80611184  1
  Se  Se189  1  0.23928347  0.57733270  0.30303777  1
  Se  Se190  1  0.24882428  0.58803755  0.80785493  1
  Se  Se191  1  0.23556456  0.90534814  0.29924138  1
  Se  Se192  1  0.24317042  0.91670384  0.82196211  1
  Se  Se193  1  0.58422526  0.25372735  0.30009629  1
  Se  Se194  1  0.58710555  0.25756203  0.79887435  1
  Se  Se195  1  0.58361952  0.58407211  0.29882895  1
  Se  Se196  1  0.57846373  0.58114335  0.81614071  1
  Se  Se197  1  0.58410724  0.91452472  0.29960667  1
  Se  Se198  1  0.59062023  0.91873549  0.80378493  1
  Se  Se199  1  0.91627826  0.25449388  0.30311755  1
  Se  Se200  1  0.91201690  0.24007267  0.81313532  1
  Se  Se201  1  0.92011202  0.58968640  0.29327970  1
  Se  Se202  1  0.91242292  0.56417815  0.81522551  1
  Se  Se203  1  0.91493868  0.91908870  0.29484028  1
  Se  Se204  1  0.92271920  0.90955405  0.81583283  1
  Se  Se205  1  0.07840471  0.08142524  0.29901269  1
  Se  Se206  1  0.08389786  0.07872217  0.81265311  1
  Se  Se207  1  0.08292236  0.41694019  0.29195992  1
  Se  Se208  1  0.08390710  0.42415728  0.81700085  1
  Se  Se209  1  0.07860135  0.74755892  0.28984639  1
  Se  Se210  1  0.08414130  0.76228565  0.82715898  1
  Se  Se211  1  0.42433661  0.08673207  0.31326084  1
  Se  Se212  1  0.42744110  0.09710859  0.81697427  1
  Se  Se213  1  0.41649241  0.41585724  0.29924259  1
  Se  Se214  1  0.41334799  0.41823263  0.80630134  1
  Se  Se215  1  0.41570497  0.75183095  0.30780251  1
  Se  Se216  1  0.41482545  0.75505097  0.80647958  1
  Se  Se217  1  0.75160513  0.08420918  0.29760299  1
  Se  Se218  1  0.74903863  0.08067842  0.80144658  1
  Se  Se219  1  0.75358543  0.41858987  0.30214387  1
  Se  Se220  1  0.74172121  0.41036715  0.80210012  1
  Se  Se221  1  0.75163969  0.74828217  0.29920734  1
  Se  Se222  1  0.76100785  0.74847236  0.81594794  1
  Se  Se223  1  0.23370701  0.08235298  0.18369460  1
  Se  Se224  1  0.24614610  0.08640049  0.69613555  1
  Se  Se225  1  0.25108416  0.41333089  0.19409993  1
  Se  Se226  1  0.24739786  0.41680603  0.70216589  1
  Se  Se227  1  0.23670788  0.74757953  0.17627901  1
  Se  Se228  1  0.24796504  0.75233173  0.70812538  1
  Se  Se229  1  0.58431481  0.07819748  0.20105361  1
  Se  Se230  1  0.58435506  0.08536156  0.69935878  1
  Se  Se231  1  0.58682063  0.41382509  0.19282107  1
  Se  Se232  1  0.57755230  0.42521153  0.69766793  1
  Se  Se233  1  0.58691325  0.74587287  0.19719448  1
  Se  Se234  1  0.57988506  0.75844047  0.69115355  1
  Se  Se235  1  0.91575137  0.08812053  0.19045884  1
  Se  Se236  1  0.92122642  0.07787832  0.69991188  1
  Se  Se237  1  0.91731777  0.42194719  0.19142276  1
  Se  Se238  1  0.91219739  0.41693137  0.68986093  1
  Se  Se239  1  0.91516466  0.75200911  0.18741971  1
  Se  Se240  1  0.91662872  0.75001561  0.69890035  1
  Se  Se241  1  0.08001887  0.25330808  0.19319025  1
  Se  Se242  1  0.09118049  0.23895366  0.69224910  1
  Se  Se243  1  0.07767063  0.58880136  0.18644040  1
  Se  Se244  1  0.08397027  0.57545140  0.69385215  1
  Se  Se245  1  0.07674429  0.92275533  0.18311025  1
  Se  Se246  1  0.07903080  0.91615589  0.70841700  1
  Se  Se247  1  0.41319025  0.24747082  0.19944096  1
  Se  Se248  1  0.41130469  0.25477374  0.70045590  1
  Se  Se249  1  0.42235711  0.57404476  0.18378008  1
  Se  Se250  1  0.41157739  0.59240316  0.70494908  1
  Se  Se251  1  0.41451472  0.90578944  0.19117805  1
  Se  Se252  1  0.42325061  0.91593189  0.69275914  1
  Se  Se253  1  0.74685719  0.25594140  0.19924408  1
  Se  Se254  1  0.75520462  0.24995770  0.69362605  1
  Se  Se255  1  0.74768491  0.58656181  0.19142748  1
  Se  Se256  1  0.76298639  0.57528226  0.69797735  1
  Se  Se257  1  0.74695168  0.91896298  0.19240369  1
  Se  Se258  1  0.75539944  0.91389796  0.70157177  1
