# generated using pymatgen
data_In86Cu29Se144
_symmetry_space_group_name_H-M   'P 1'
_cell_length_a   17.58078213
_cell_length_b   17.58258148
_cell_length_c   23.44951464
_cell_angle_alpha   89.97563278
_cell_angle_beta   90.01935785
_cell_angle_gamma   90.00304254
_symmetry_Int_Tables_number   1
_chemical_formula_structural   In86Cu29Se144
_chemical_formula_sum   'In86 Cu29 Se144'
_cell_volume   7248.60816412
_cell_formula_units_Z   1
loop_
 _symmetry_equiv_pos_site_id
 _symmetry_equiv_pos_as_xyz
  1  'x, y, z'
loop_
 _atom_site_type_symbol
 _atom_site_label
 _atom_site_symmetry_multiplicity
 _atom_site_fract_x
 _atom_site_fract_y
 _atom_site_fract_z
 _atom_site_occupancy
  In  In0  1  0.01228903  0.17353032  0.11467121  1
  In  In1  1  -0.01087340  0.16233481  0.63319467  1
  In  In2  1  -0.00921276  0.51094746  0.12606634  1
  In  In3  1  0.01714486  0.50662652  0.62262776  1
  In  In4  1  -0.00172754  0.82396448  0.12548175  1
  In  In5  1  -0.01038691  0.83314611  0.63456751  1
  In  In6  1  0.31897445  0.17134869  0.11995844  1
  In  In7  1  0.34640523  0.14763292  0.64265918  1
  In  In8  1  0.35148218  0.50545208  0.12107522  1
  In  In9  1  0.32432006  0.51244870  0.63040394  1
  In  In10  1  0.32063800  0.84927313  0.13929655  1
  In  In11  1  0.34201571  0.82239582  0.62775709  1
  In  In12  1  0.67186114  0.16476335  0.12850145  1
  In  In13  1  0.66589070  0.17804450  0.63309034  1
  In  In14  1  0.64883993  0.48946554  0.11800944  1
  In  In15  1  0.66559196  0.49278607  0.63024049  1
  In  In16  1  0.67771433  0.83939666  0.13089115  1
  In  In17  1  0.65672138  0.83206463  0.62029729  1
  In  In18  1  0.17746849  -0.02226504  0.36814055  1
  In  In19  1  0.16320156  -0.00447623  0.87686782  1
  In  In20  1  0.17027489  0.34681266  0.37091576  1
  In  In21  1  0.17080898  0.32086870  0.87846699  1
  In  In22  1  0.15612870  0.66648565  0.36531028  1
  In  In23  1  0.17876880  0.67775685  0.87122623  1
  In  In24  1  0.49995379  0.00125148  0.37380640  1
  In  In25  1  0.49035499  0.01725723  0.86690560  1
  In  In26  1  0.49502866  0.31948020  0.37657105  1
  In  In27  1  0.51068140  0.33436993  0.86313170  1
  In  In28  1  0.50078378  0.67726853  0.37769961  1
  In  In29  1  0.49443703  0.65649610  0.86731607  1
  In  In30  1  0.81934484  0.00339865  0.37763548  1
  In  In31  1  0.86640337  -0.00441323  0.87985061  1
  In  In32  1  0.83103229  0.32955177  0.36279071  1
  In  In33  1  0.83046324  0.33493449  0.88352034  1
  In  In34  1  0.84604238  0.66762189  0.37651794  1
  In  In35  1  0.82706288  0.66132230  0.86543299  1
  In  In36  1  -0.01372268  0.16506617  0.36817341  1
  In  In37  1  0.01797632  0.14555607  0.89869835  1
  In  In38  1  0.00879188  0.51180313  0.36271667  1
  In  In39  1  -0.01375258  0.49577069  0.87886074  1
  In  In40  1  0.00915498  0.81741027  0.37653746  1
  In  In41  1  0.00990474  0.84501457  0.86205923  1
  In  In42  1  0.34984234  0.17125642  0.37537618  1
  In  In43  1  0.32922862  0.15651501  0.86292253  1
  In  In44  1  0.31842530  0.49813884  0.37715443  1
  In  In45  1  0.34514716  0.50642091  0.87211901  1
  In  In46  1  0.33693710  0.84204312  0.36525456  1
  In  In47  1  0.32546561  0.82672172  0.86972835  1
  In  In48  1  0.65891770  0.15755483  0.36751874  1
  In  In49  1  0.66351269  0.18108065  0.87487600  1
  In  In50  1  0.67575372  0.50008622  0.37141784  1
  In  In51  1  0.66730397  0.49686946  0.87346248  1
  In  In52  1  0.65404209  0.84130315  0.38582262  1
  In  In53  1  0.68759267  0.82589009  0.86665286  1
  In  In54  1  0.16890020  0.00865491  0.11521604  1
  In  In55  1  0.16562263  -0.01127057  0.63280868  1
  In  In56  1  0.17557096  0.31579261  0.11969335  1
  In  In57  1  0.17221288  0.35247507  0.62258045  1
  In  In58  1  0.16257602  0.67873115  0.13306612  1
  In  In59  1  0.17847085  0.65753964  0.63038291  1
  In  In60  1  0.50431456  0.00274228  0.13015739  1
  In  In61  1  0.49253861  -0.00854867  0.61982979  1
  In  In62  1  0.50001599  0.35399747  0.12617098  1
  In  In63  1  0.50082018  0.32138996  0.63543501  1
  In  In64  1  0.49050932  0.64863059  0.12216872  1
  In  In65  1  0.48354034  0.68133256  0.62869465  1
  In  In66  1  0.82906098  -0.00627930  0.12545743  1
  In  In67  1  0.84217019  -0.00015314  0.63274053  1
  In  In68  1  0.82915091  0.33780183  0.12318277  1
  In  In69  1  0.82754802  0.32261455  0.63392857  1
  In  In70  1  0.84370762  0.66917293  0.12412464  1
  In  In71  1  0.81545767  0.68106051  0.64268960  1
  In  In72  1  0.17135669  0.17165862  0.49969800  1
  In  In73  1  0.49814907  0.82509276  -0.00725027  1
  In  In74  1  0.33425395  0.33561606  0.24576871  1
  In  In75  1  0.66411124  0.66741871  0.25124526  1
  In  In76  1  0.49706127  0.50333107  0.50135052  1
  In  In77  1  0.16682201  0.49777808  -0.00112234  1
  In  In78  1  0.00194083  -0.00059815  0.24641964  1
  In  In79  1  0.17402585  0.82516611  0.49920494  1
  In  In80  1  0.82822155  0.16628029  0.50793880  1
  In  In81  1  0.83997507  0.50341347  0.49824139  1
  In  In82  1  0.84238123  0.83232196  -0.00055551  1
  In  In83  1  0.66478804  0.00025389  0.75457999  1
  In  In84  1  0.49395415  0.17478754  -0.00536514  1
  In  In85  1  -0.00131841  0.33212747  0.75529374  1
  Cu  Cu86  1  0.83406259  0.17777195  0.24439613  1
  Cu  Cu87  1  0.50385014  0.16496275  0.25004060  1
  Cu  Cu88  1  0.67068368  0.00225940  0.00407835  1
  Cu  Cu89  1  0.16282581  0.83636510  0.75018857  1
  Cu  Cu90  1  0.00252224  0.66964757  0.00013298  1
  Cu  Cu91  1  0.17231728  0.50394873  0.75358723  1
  Cu  Cu92  1  0.34039243  0.00290604  0.49724901  1
  Cu  Cu93  1  0.65921717  -0.00173273  0.49880824  1
  Cu  Cu94  1  0.50501684  0.49804397  0.74703618  1
  Cu  Cu95  1  0.83694144  0.16452648  0.76126567  1
  Cu  Cu96  1  0.66427342  0.33985897  -0.00176318  1
  Cu  Cu97  1  0.83080262  0.49913915  0.24591285  1
  Cu  Cu98  1  0.32611826  0.00073830  -0.00291938  1
  Cu  Cu99  1  -0.00058950  -0.00594033  0.51012245  1
  Cu  Cu100  1  0.66171586  0.32695468  0.50237813  1
  Cu  Cu101  1  0.83251692  0.83779232  0.25358678  1
  Cu  Cu102  1  0.00464597  0.34140843  0.49543328  1
  Cu  Cu103  1  -0.00668338  0.33455021  0.00258114  1
  Cu  Cu104  1  0.16657078  0.16192892  0.24300561  1
  Cu  Cu105  1  0.00284627  0.66630297  0.50018076  1
  Cu  Cu106  1  0.50609737  0.83772835  0.25333388  1
  Cu  Cu107  1  0.83242326  0.49521433  0.75533496  1
  Cu  Cu108  1  0.33006903  0.67202031  -0.00302641  1
  Cu  Cu109  1  0.49930147  0.83370046  0.74757291  1
  Cu  Cu110  1  0.16129334  0.50070430  0.24511246  1
  Cu  Cu111  1  0.15878732  0.16337269  0.75535512  1
  Cu  Cu112  1  0.33740358  0.33216133  0.50340149  1
  Cu  Cu113  1  0.66495561  0.67580646  0.50845083  1
  Cu  Cu114  1  0.67041059  0.65621279  -0.00516526  1
  Se  Se115  1  0.08581258  0.08634666  0.04611683  1
  Se  Se116  1  0.07932943  0.08162439  0.56223916  1
  Se  Se117  1  0.07766987  0.41232619  0.06328897  1
  Se  Se118  1  0.08799711  0.42318097  0.54806472  1
  Se  Se119  1  0.08539237  0.75068332  0.05424545  1
  Se  Se120  1  0.08074756  0.74584390  0.56364805  1
  Se  Se121  1  0.41314994  0.07593599  0.05630500  1
  Se  Se122  1  0.41552231  0.08728344  0.55554006  1
  Se  Se123  1  0.41112340  0.41062175  0.05093871  1
  Se  Se124  1  0.41415207  0.41327462  0.56580250  1
  Se  Se125  1  0.40900827  0.74965282  0.06145706  1
  Se  Se126  1  0.41014227  0.74833112  0.54857416  1
  Se  Se127  1  0.75264120  0.08338625  0.05774596  1
  Se  Se128  1  0.73798086  0.07387515  0.56523123  1
  Se  Se129  1  0.74781822  0.42226066  0.05302064  1
  Se  Se130  1  0.74964087  0.40655403  0.55649177  1
  Se  Se131  1  0.74176773  0.74367463  0.05624480  1
  Se  Se132  1  0.75516816  0.75452732  0.55809838  1
  Se  Se133  1  0.25556641  0.25134410  0.04230462  1
  Se  Se134  1  0.25867569  0.25235635  0.56626323  1
  Se  Se135  1  0.25247770  0.59041280  0.05938932  1
  Se  Se136  1  0.24880028  0.58249047  0.55228624  1
  Se  Se137  1  0.25163697  0.91380002  0.05395050  1
  Se  Se138  1  0.25745941  0.92393878  0.55732296  1
  Se  Se139  1  0.58561797  0.25639815  0.05969776  1
  Se  Se140  1  0.58102375  0.24707116  0.55847900  1
  Se  Se141  1  0.57917790  0.58281081  0.04852134  1
  Se  Se142  1  0.58809064  0.58878573  0.56446414  1
  Se  Se143  1  0.58816037  0.91680373  0.05657626  1
  Se  Se144  1  0.57547084  0.91247353  0.54956540  1
  Se  Se145  1  0.91166699  0.25044286  0.05641384  1
  Se  Se146  1  0.92725666  0.26227024  0.55844638  1
  Se  Se147  1  0.91455921  0.58692186  0.04888131  1
  Se  Se148  1  0.91977180  0.59270729  0.56386809  1
  Se  Se149  1  0.92953556  0.92602969  0.05810198  1
  Se  Se150  1  0.91267834  0.91355349  0.55963812  1
  Se  Se151  1  0.07544457  0.25274044  0.43591399  1
  Se  Se152  1  0.08412257  0.25574804  0.95303744  1
  Se  Se153  1  0.08193512  0.58504914  0.44173561  1
  Se  Se154  1  0.08049332  0.58971781  0.93727747  1
  Se  Se155  1  0.07918966  0.92192058  0.44449687  1
  Se  Se156  1  0.07275663  0.91774906  0.94313702  1
  Se  Se157  1  0.42072119  0.24582409  0.45450198  1
  Se  Se158  1  0.40925956  0.25554727  0.92791363  1
  Se  Se159  1  0.40749524  0.58912242  0.44045738  1
  Se  Se160  1  0.41749110  0.58921513  0.94779381  1
  Se  Se161  1  0.41669566  0.91598702  0.44135459  1
  Se  Se162  1  0.41197728  0.92546233  0.93754449  1
  Se  Se163  1  0.74563451  0.25297053  0.44004510  1
  Se  Se164  1  0.74587954  0.25010024  0.95069445  1
  Se  Se165  1  0.74168954  0.59589456  0.44519747  1
  Se  Se166  1  0.75620319  0.57816393  0.94093448  1
  Se  Se167  1  0.74985985  0.91749811  0.45020791  1
  Se  Se168  1  0.74749042  0.92222813  0.94137974  1
  Se  Se169  1  0.25361673  0.07567457  0.43683870  1
  Se  Se170  1  0.24944364  0.08543328  0.94010538  1
  Se  Se171  1  0.24982408  0.41051463  0.45062524  1
  Se  Se172  1  0.25914280  0.41441916  0.93827379  1
  Se  Se173  1  0.25612396  0.74368799  0.43060130  1
  Se  Se174  1  0.24651809  0.75870276  0.94900978  1
  Se  Se175  1  0.58138418  0.08603932  0.44460969  1
  Se  Se176  1  0.58787165  0.07695205  0.94218863  1
  Se  Se177  1  0.59016922  0.41262053  0.44115431  1
  Se  Se178  1  0.57906144  0.41597644  0.94095934  1
  Se  Se179  1  0.57776514  0.75233191  0.45351058  1
  Se  Se180  1  0.59621695  0.74156252  0.93447715  1
  Se  Se181  1  0.92210344  0.07685259  0.44806649  1
  Se  Se182  1  0.90120160  0.09582809  0.95376230  1
  Se  Se183  1  0.92137722  0.41296968  0.43268828  1
  Se  Se184  1  0.90989157  0.42032861  0.95377004  1
  Se  Se185  1  0.91869324  0.75188384  0.44961347  1
  Se  Se186  1  0.92261949  0.74288053  0.93402233  1
  Se  Se187  1  0.24550374  0.24204140  0.30764040  1
  Se  Se188  1  0.24568693  0.24987530  0.80024554  1
  Se  Se189  1  0.24452910  0.57850030  0.30295510  1
  Se  Se190  1  0.25747883  0.58791479  0.80552020  1
  Se  Se191  1  0.25047697  0.90955823  0.29043263  1
  Se  Se192  1  0.24766685  0.91823233  0.80460540  1
  Se  Se193  1  0.58291873  0.25260579  0.30327286  1
  Se  Se194  1  0.57612566  0.23454561  0.79779976  1
  Se  Se195  1  0.57502509  0.57714308  0.31117543  1
  Se  Se196  1  0.58757834  0.58123795  0.80237332  1
  Se  Se197  1  0.58977419  0.92093079  0.30615159  1
  Se  Se198  1  0.57472877  0.90741774  0.81562729  1
  Se  Se199  1  0.92383213  0.25585320  0.29569074  1
  Se  Se200  1  0.92078918  0.24165187  0.82145043  1
  Se  Se201  1  0.91178710  0.58586627  0.29924667  1
  Se  Se202  1  0.92037387  0.57866267  0.80261971  1
  Se  Se203  1  0.91444287  0.91583633  0.31486868  1
  Se  Se204  1  0.89351596  0.89492044  0.80497360  1
  Se  Se205  1  0.09340993  0.08628703  0.31161393  1
  Se  Se206  1  0.07597518  0.08131859  0.80948616  1
  Se  Se207  1  0.08148250  0.41391684  0.29867779  1
  Se  Se208  1  0.09151538  0.42359279  0.81381321  1
  Se  Se209  1  0.08384247  0.75612684  0.29601347  1
  Se  Se210  1  0.08509790  0.74593328  0.80194433  1
  Se  Se211  1  0.41701136  0.08413475  0.30267834  1
  Se  Se212  1  0.41514937  0.08555425  0.78982951  1
  Se  Se213  1  0.41895607  0.41980178  0.31339819  1
  Se  Se214  1  0.41903141  0.41880997  0.80145970  1
  Se  Se215  1  0.42250400  0.75167236  0.30262471  1
  Se  Se216  1  0.41653245  0.75012990  0.80370522  1
  Se  Se217  1  0.75766066  0.09043680  0.30159912  1
  Se  Se218  1  0.75613740  0.08216758  0.81975875  1
  Se  Se219  1  0.74689716  0.41626237  0.29861599  1
  Se  Se220  1  0.75161316  0.40872505  0.80705531  1
  Se  Se221  1  0.75207821  0.75695100  0.31460156  1
  Se  Se222  1  0.75130995  0.74248267  0.79191942  1
  Se  Se223  1  0.25217623  0.08092698  0.19154024  1
  Se  Se224  1  0.24045509  0.07858968  0.70009805  1
  Se  Se225  1  0.24375049  0.42383503  0.18382105  1
  Se  Se226  1  0.25293936  0.41905595  0.70005972  1
  Se  Se227  1  0.27516836  0.72967169  0.19225850  1
  Se  Se228  1  0.24823934  0.75380033  0.69684990  1
  Se  Se229  1  0.58976700  0.08195649  0.19791553  1
  Se  Se230  1  0.57675572  0.08264873  0.68921552  1
  Se  Se231  1  0.58083053  0.42295148  0.20122703  1
  Se  Se232  1  0.58733661  0.40802426  0.69876252  1
  Se  Se233  1  0.57617562  0.75564762  0.18623424  1
  Se  Se234  1  0.58198366  0.75009857  0.69443624  1
  Se  Se235  1  0.91449492  0.09267422  0.18718219  1
  Se  Se236  1  0.91806053  0.08020098  0.70711109  1
  Se  Se237  1  0.91616888  0.41817970  0.19237826  1
  Se  Se238  1  0.91442675  0.42303943  0.68869632  1
  Se  Se239  1  0.91250108  0.75345607  0.19919191  1
  Se  Se240  1  0.93243551  0.72755308  0.69751649  1
  Se  Se241  1  0.08607683  0.24985127  0.19321737  1
  Se  Se242  1  0.08976363  0.24811754  0.68877878  1
  Se  Se243  1  0.07824772  0.58831659  0.19446799  1
  Se  Se244  1  0.08679917  0.58441942  0.70023979  1
  Se  Se245  1  0.09101110  0.91310001  0.18614990  1
  Se  Se246  1  0.07344191  0.91873409  0.70076010  1
  Se  Se247  1  0.42398120  0.24245375  0.18605542  1
  Se  Se248  1  0.39691883  0.26203487  0.69874443  1
  Se  Se249  1  0.41796854  0.57914714  0.20172524  1
  Se  Se250  1  0.41928009  0.58378384  0.69716016  1
  Se  Se251  1  0.42237354  0.92161411  0.19901169  1
  Se  Se252  1  0.41396027  0.91610171  0.69559544  1
  Se  Se253  1  0.74496420  0.25844730  0.19484714  1
  Se  Se254  1  0.75162182  0.24630496  0.70838636  1
  Se  Se255  1  0.75054204  0.58099090  0.18579971  1
  Se  Se256  1  0.74694872  0.57433347  0.69926881  1
  Se  Se257  1  0.74947390  0.92358741  0.20356403  1
  Se  Se258  1  0.74931888  0.91113059  0.69147049  1
