# generated using pymatgen
data_In86Cu29Se144
_symmetry_space_group_name_H-M   'P 1'
_cell_length_a   17.58793516
_cell_length_b   17.58564834
_cell_length_c   23.45002955
_cell_angle_alpha   90.00225874
_cell_angle_beta   89.98335617
_cell_angle_gamma   89.99966503
_symmetry_Int_Tables_number   1
_chemical_formula_structural   In86Cu29Se144
_chemical_formula_sum   'In86 Cu29 Se144'
_cell_volume   7252.98227370
_cell_formula_units_Z   1
loop_
 _symmetry_equiv_pos_site_id
 _symmetry_equiv_pos_as_xyz
  1  'x, y, z'
loop_
 _atom_site_type_symbol
 _atom_site_label
 _atom_site_symmetry_multiplicity
 _atom_site_fract_x
 _atom_site_fract_y
 _atom_site_fract_z
 _atom_site_occupancy
  In  In0  1  -0.01599020  0.16309029  0.12537099  1
  In  In1  1  0.00242830  0.16498930  0.62382207  1
  In  In2  1  0.00976901  0.48885336  0.12041397  1
  In  In3  1  -0.01060896  0.48303058  0.62105823  1
  In  In4  1  0.00189649  0.85202842  0.12292877  1
  In  In5  1  -0.00053722  0.84582255  0.63269642  1
  In  In6  1  0.33561025  0.16927956  0.13067441  1
  In  In7  1  0.34617412  0.18094099  0.61882182  1
  In  In8  1  0.32999499  0.49133678  0.11390176  1
  In  In9  1  0.33048124  0.49773019  0.62621811  1
  In  In10  1  0.34550530  0.83493872  0.12310443  1
  In  In11  1  0.33151448  0.81933768  0.62985770  1
  In  In12  1  0.67668036  0.16939616  0.12277851  1
  In  In13  1  0.67251213  0.17985626  0.60517601  1
  In  In14  1  0.65302301  0.49679215  0.12766937  1
  In  In15  1  0.67231526  0.49464229  0.61445788  1
  In  In16  1  0.66376858  0.84033280  0.10950474  1
  In  In17  1  0.67364271  0.83980581  0.61774634  1
  In  In18  1  0.17343761  0.01380678  0.36822681  1
  In  In19  1  0.15837565  0.01034123  0.86872950  1
  In  In20  1  0.17577844  0.32489923  0.38238570  1
  In  In21  1  0.18181800  0.34458885  0.86241059  1
  In  In22  1  0.15942758  0.66171778  0.38037782  1
  In  In23  1  0.16760130  0.64686923  0.87588130  1
  In  In24  1  0.49066398  0.00877844  0.37884508  1
  In  In25  1  0.50801494  -0.00095073  0.89197887  1
  In  In26  1  0.49526002  0.33524916  0.37351993  1
  In  In27  1  0.48629183  0.34587609  0.89094289  1
  In  In28  1  0.50177176  0.66246484  0.38278037  1
  In  In29  1  0.48779664  0.67183984  0.88175219  1
  In  In30  1  0.83328987  0.00037984  0.37715589  1
  In  In31  1  0.83968975  -0.00601367  0.88002066  1
  In  In32  1  0.82424431  0.33395217  0.38802220  1
  In  In33  1  0.82576954  0.32136539  0.86835760  1
  In  In34  1  0.83097519  0.66364210  0.38614460  1
  In  In35  1  0.84268883  0.67372137  0.87213474  1
  In  In36  1  0.00410585  0.16032081  0.38141744  1
  In  In37  1  -0.00431752  0.16013229  0.86512686  1
  In  In38  1  0.00667589  0.48886859  0.38762201  1
  In  In39  1  0.01276899  0.50143857  0.86960664  1
  In  In40  1  -0.01460839  0.83963071  0.37964660  1
  In  In41  1  -0.01555406  0.83400350  0.87060137  1
  In  In42  1  0.33150929  0.17028432  0.37349100  1
  In  In43  1  0.34044057  0.17542655  0.87437769  1
  In  In44  1  0.34449881  0.48773019  0.38401206  1
  In  In45  1  0.33522921  0.49767194  0.87479888  1
  In  In46  1  0.33390697  0.84887726  0.37348184  1
  In  In47  1  0.34339505  0.83126528  0.87312959  1
  In  In48  1  0.64548168  0.18853161  0.39518914  1
  In  In49  1  0.66573185  0.16565821  0.88741788  1
  In  In50  1  0.67401302  0.48126948  0.38899624  1
  In  In51  1  0.65554299  0.48694829  0.87288390  1
  In  In52  1  0.66817844  0.82863551  0.38098355  1
  In  In53  1  0.67012280  0.83649426  0.87963869  1
  In  In54  1  0.16214746  0.00987661  0.13397294  1
  In  In55  1  0.15448332  -0.00082565  0.62899484  1
  In  In56  1  0.17721778  0.34575001  0.11925892  1
  In  In57  1  0.16815272  0.33142407  0.62317300  1
  In  In58  1  0.18047118  0.65432263  0.11921659  1
  In  In59  1  0.18339298  0.66936720  0.63197272  1
  In  In60  1  0.49403875  -0.00594089  0.11999092  1
  In  In61  1  0.50921907  0.00914480  0.61700025  1
  In  In62  1  0.50020956  0.33579306  0.13094549  1
  In  In63  1  0.49598578  0.32588430  0.61814662  1
  In  In64  1  0.48729830  0.66316300  0.11044644  1
  In  In65  1  0.49099181  0.65415917  0.62118870  1
  In  In66  1  0.83351371  0.00874092  0.12070970  1
  In  In67  1  0.83870491  0.00219184  0.62227065  1
  In  In68  1  0.83519181  0.31907080  0.12630190  1
  In  In69  1  0.84533417  0.34203732  0.61615568  1
  In  In70  1  0.81838915  0.66969670  0.12133989  1
  In  In71  1  0.83380218  0.66384999  0.61884119  1
  In  In72  1  0.17206819  0.17707316  0.00122928  1
  In  In73  1  0.00464199  0.32545920  0.25074969  1
  In  In74  1  0.33426781  0.66926642  0.24468700  1
  In  In75  1  0.66736652  0.00399146  0.74613728  1
  In  In76  1  0.00497772  0.66385956  0.74790480  1
  In  In77  1  0.66746319  0.00676011  0.25067581  1
  In  In78  1  -0.00249623  0.67028912  0.25719184  1
  In  In79  1  0.16749553  0.83293496  0.50934462  1
  In  In80  1  0.83373279  0.50295020  -0.01000781  1
  In  In81  1  0.66586786  0.66684006  0.74398371  1
  In  In82  1  0.33032738  0.00178123  0.75288429  1
  In  In83  1  0.16581425  0.82640410  -0.00429740  1
  In  In84  1  0.65901950  0.66758194  0.24581993  1
  In  In85  1  0.66555485  0.33234397  0.74561105  1
  Cu  Cu86  1  0.16540821  0.84608759  0.24999536  1
  Cu  Cu87  1  0.00130211  -0.00119299  0.50237982  1
  Cu  Cu88  1  0.50093173  0.17693589  0.75102677  1
  Cu  Cu89  1  0.16471438  0.17164357  0.74626869  1
  Cu  Cu90  1  0.66383584  0.66757544  0.50291848  1
  Cu  Cu91  1  0.82890416  0.16408426  0.25188340  1
  Cu  Cu92  1  0.84052930  0.16279873  0.74654990  1
  Cu  Cu93  1  0.00049670  0.65927783  0.50320927  1
  Cu  Cu94  1  0.66775757  0.33102435  0.00421247  1
  Cu  Cu95  1  0.66344516  0.67484589  -0.00358556  1
  Cu  Cu96  1  0.16971509  0.49128340  0.74783716  1
  Cu  Cu97  1  0.48888307  0.49962505  0.74995173  1
  Cu  Cu98  1  0.00108210  0.32707628  0.50240967  1
  Cu  Cu99  1  0.00511387  0.32820856  -0.00316654  1
  Cu  Cu100  1  0.83695526  0.83878655  0.25143715  1
  Cu  Cu101  1  0.50023319  0.83944641  0.24591374  1
  Cu  Cu102  1  0.33449526  0.66601803  0.50421751  1
  Cu  Cu103  1  0.83038146  0.48986780  0.26102443  1
  Cu  Cu104  1  -0.00185342  0.66900967  -0.00593023  1
  Cu  Cu105  1  0.33740496  0.00412008  0.49745477  1
  Cu  Cu106  1  0.66884955  -0.00916285  0.49624989  1
  Cu  Cu107  1  0.17608312  0.50001157  0.24837680  1
  Cu  Cu108  1  0.50153139  0.49118234  0.25418199  1
  Cu  Cu109  1  0.33070897  0.33567689  0.50030227  1
  Cu  Cu110  1  0.49755434  0.83245198  0.74943773  1
  Cu  Cu111  1  -0.01142425  0.00385454  -0.00356895  1
  Cu  Cu112  1  0.16761772  0.17110382  0.25302721  1
  Cu  Cu113  1  0.33225395  -0.00189387  0.00341321  1
  Cu  Cu114  1  0.49696714  0.16990625  0.25462052  1
  Se  Se115  1  0.07576504  0.08108263  0.05476301  1
  Se  Se116  1  0.08661686  0.08189451  0.55344816  1
  Se  Se117  1  0.08846698  0.41471304  0.04646503  1
  Se  Se118  1  0.08403005  0.41374163  0.55356129  1
  Se  Se119  1  0.07535297  0.74163307  0.06301373  1
  Se  Se120  1  0.07623225  0.74077576  0.56630856  1
  Se  Se121  1  0.40938779  0.08441063  0.05827241  1
  Se  Se122  1  0.42023399  0.08846155  0.55153627  1
  Se  Se123  1  0.44133529  0.43245976  0.05945472  1
  Se  Se124  1  0.41387773  0.41784924  0.55560426  1
  Se  Se125  1  0.40381881  0.74855881  0.04752345  1
  Se  Se126  1  0.41702254  0.75112439  0.55600113  1
  Se  Se127  1  0.74345684  0.07775824  0.05273479  1
  Se  Se128  1  0.74910286  0.07460056  0.55252473  1
  Se  Se129  1  0.75198140  0.41614288  0.06045333  1
  Se  Se130  1  0.73551016  0.39238221  0.55295908  1
  Se  Se131  1  0.75267265  0.75458222  0.04700504  1
  Se  Se132  1  0.75245318  0.75004673  0.55220761  1
  Se  Se133  1  0.26984189  0.26424407  0.05356416  1
  Se  Se134  1  0.24889331  0.24818698  0.55189814  1
  Se  Se135  1  0.25192382  0.57761449  0.04566609  1
  Se  Se136  1  0.24914898  0.58456294  0.55637830  1
  Se  Se137  1  0.24434255  0.92344957  0.06097236  1
  Se  Se138  1  0.26156955  0.92615027  0.56346346  1
  Se  Se139  1  0.58552817  0.25299512  0.06203705  1
  Se  Se140  1  0.57426887  0.24914973  0.54419960  1
  Se  Se141  1  0.59127617  0.58834689  0.05505432  1
  Se  Se142  1  0.58279806  0.58094328  0.55423824  1
  Se  Se143  1  0.57297895  0.91705121  0.04739474  1
  Se  Se144  1  0.58132158  0.91380786  0.55170582  1
  Se  Se145  1  0.91836444  0.25027950  0.05073379  1
  Se  Se146  1  0.91671789  0.24247309  0.55342216  1
  Se  Se147  1  0.92143042  0.58748554  0.06023332  1
  Se  Se148  1  0.91422034  0.57567918  0.55364402  1
  Se  Se149  1  0.91141399  0.91759885  0.05224010  1
  Se  Se150  1  0.91956797  0.91306714  0.55452526  1
  Se  Se151  1  0.08561785  0.24662705  0.44745604  1
  Se  Se152  1  0.08350662  0.25330554  0.93146678  1
  Se  Se153  1  0.08782023  0.57808406  0.45259143  1
  Se  Se154  1  0.08032960  0.57827062  0.94942584  1
  Se  Se155  1  0.08559082  0.92107276  0.44097756  1
  Se  Se156  1  0.07599779  0.92448096  0.94121659  1
  Se  Se157  1  0.41226073  0.25232758  0.44379137  1
  Se  Se158  1  0.43057195  0.23315636  0.94817063  1
  Se  Se159  1  0.41646340  0.58242940  0.44985448  1
  Se  Se160  1  0.43347208  0.56379568  0.94202852  1
  Se  Se161  1  0.41892159  0.91489022  0.44814419  1
  Se  Se162  1  0.41214250  0.91446213  0.94819271  1
  Se  Se163  1  0.76150685  0.23367390  0.45222115  1
  Se  Se164  1  0.75397443  0.25299800  0.94960829  1
  Se  Se165  1  0.74749423  0.58030582  0.45130572  1
  Se  Se166  1  0.73878693  0.59282649  0.93284840  1
  Se  Se167  1  0.75647344  0.91029625  0.44489690  1
  Se  Se168  1  0.73580346  0.93495161  0.94323737  1
  Se  Se169  1  0.25112098  0.08517239  0.44495942  1
  Se  Se170  1  0.25434627  0.07696188  0.94088419  1
  Se  Se171  1  0.24481450  0.42103100  0.44935151  1
  Se  Se172  1  0.25044725  0.41396391  0.94228850  1
  Se  Se173  1  0.25685554  0.74742819  0.44140067  1
  Se  Se174  1  0.25747055  0.73828602  0.93878683  1
  Se  Se175  1  0.58167906  0.07681998  0.44900793  1
  Se  Se176  1  0.57210858  0.09843987  0.95509940  1
  Se  Se177  1  0.55938516  0.43074308  0.44375522  1
  Se  Se178  1  0.58565844  0.41844963  0.95418527  1
  Se  Se179  1  0.58138781  0.75068855  0.44861349  1
  Se  Se180  1  0.57916958  0.75576850  0.94275581  1
  Se  Se181  1  0.91678151  0.07994266  0.44785569  1
  Se  Se182  1  0.91365820  0.09337496  0.94273020  1
  Se  Se183  1  0.91543856  0.41397056  0.45240841  1
  Se  Se184  1  0.92394603  0.40795888  0.93553452  1
  Se  Se185  1  0.92076883  0.74578963  0.44916509  1
  Se  Se186  1  0.91287532  0.75489035  0.94793082  1
  Se  Se187  1  0.25111139  0.25589133  0.30282299  1
  Se  Se188  1  0.25509146  0.24489564  0.80086577  1
  Se  Se189  1  0.24987639  0.58132299  0.31168190  1
  Se  Se190  1  0.25073208  0.57627205  0.80172028  1
  Se  Se191  1  0.25357437  0.92485295  0.30147449  1
  Se  Se192  1  0.24196550  0.90994372  0.81180275  1
  Se  Se193  1  0.58288322  0.25124443  0.30708562  1
  Se  Se194  1  0.58085097  0.25144945  0.81561185  1
  Se  Se195  1  0.58201423  0.57510964  0.31185451  1
  Se  Se196  1  0.57548720  0.57880239  0.80584169  1
  Se  Se197  1  0.58081168  0.91180092  0.31018668  1
  Se  Se198  1  0.57480432  0.91543354  0.80792867  1
  Se  Se199  1  0.91040090  0.24486317  0.31257868  1
  Se  Se200  1  0.91768604  0.25243497  0.79927495  1
  Se  Se201  1  0.91300978  0.57156604  0.31558287  1
  Se  Se202  1  0.90938799  0.57420772  0.80558475  1
  Se  Se203  1  0.91754099  0.92290859  0.30404289  1
  Se  Se204  1  0.91828794  0.92589258  0.80238899  1
  Se  Se205  1  0.07984618  0.08804650  0.30201927  1
  Se  Se206  1  0.08079233  0.08329286  0.79348226  1
  Se  Se207  1  0.09235769  0.42133042  0.30782972  1
  Se  Se208  1  0.08028846  0.41141277  0.79814482  1
  Se  Se209  1  0.09169424  0.76387793  0.31232940  1
  Se  Se210  1  0.08765861  0.74953399  0.81578710  1
  Se  Se211  1  0.41282109  0.08359777  0.30405967  1
  Se  Se212  1  0.43166423  0.08403918  0.80935419  1
  Se  Se213  1  0.40847210  0.41336235  0.30187848  1
  Se  Se214  1  0.41680178  0.40932489  0.80576235  1
  Se  Se215  1  0.42476532  0.75549651  0.30825245  1
  Se  Se216  1  0.41684798  0.74608745  0.80076070  1
  Se  Se217  1  0.74503225  0.09627309  0.31786867  1
  Se  Se218  1  0.75249694  0.09381861  0.80915194  1
  Se  Se219  1  0.74651058  0.40636401  0.31005410  1
  Se  Se220  1  0.75623599  0.42607039  0.80382218  1
  Se  Se221  1  0.75854074  0.75144106  0.30651247  1
  Se  Se222  1  0.75424714  0.75809496  0.80478115  1
  Se  Se223  1  0.25139767  0.08712377  0.19923522  1
  Se  Se224  1  0.25013233  0.09316975  0.68675362  1
  Se  Se225  1  0.25794722  0.41797211  0.19458252  1
  Se  Se226  1  0.25402821  0.40836447  0.69482085  1
  Se  Se227  1  0.23781886  0.76056452  0.18887112  1
  Se  Se228  1  0.24643914  0.75746151  0.70505354  1
  Se  Se229  1  0.57376624  0.09047487  0.19013512  1
  Se  Se230  1  0.58362979  0.10310103  0.68846857  1
  Se  Se231  1  0.59003962  0.41101541  0.20313452  1
  Se  Se232  1  0.57404863  0.42539236  0.68868584  1
  Se  Se233  1  0.57333431  0.75746434  0.18315960  1
  Se  Se234  1  0.57645115  0.75818091  0.68481935  1
  Se  Se235  1  0.91183046  0.08026565  0.19918212  1
  Se  Se236  1  0.92213333  0.07819887  0.69380972  1
  Se  Se237  1  0.91315904  0.42144879  0.19345525  1
  Se  Se238  1  0.91172696  0.41268688  0.69795881  1
  Se  Se239  1  0.91062414  0.75409772  0.18928293  1
  Se  Se240  1  0.90885560  0.75206410  0.69254986  1
  Se  Se241  1  0.09255740  0.24400014  0.18200123  1
  Se  Se242  1  0.08055365  0.25281592  0.69250376  1
  Se  Se243  1  0.08797271  0.57897326  0.19443006  1
  Se  Se244  1  0.08971959  0.57119558  0.68611296  1
  Se  Se245  1  0.07617175  0.92582206  0.19984543  1
  Se  Se246  1  0.09823032  0.90409664  0.70003509  1
  Se  Se247  1  0.41534227  0.25397947  0.19989721  1
  Se  Se248  1  0.41662035  0.25769907  0.69772842  1
  Se  Se249  1  0.42675804  0.57561094  0.19209499  1
  Se  Se250  1  0.40835048  0.58606323  0.69724912  1
  Se  Se251  1  0.41280151  0.92171160  0.19705720  1
  Se  Se252  1  0.42541380  0.92026988  0.68850932  1
  Se  Se253  1  0.74891556  0.25047668  0.19939276  1
  Se  Se254  1  0.75644811  0.24127685  0.68754081  1
  Se  Se255  1  0.75834502  0.57260688  0.19617738  1
  Se  Se256  1  0.75594615  0.57256621  0.68969495  1
  Se  Se257  1  0.75029451  0.90937897  0.18988607  1
  Se  Se258  1  0.75931438  0.90963441  0.69417014  1
