# generated using pymatgen
data_In86Cu29Se144
_symmetry_space_group_name_H-M   'P 1'
_cell_length_a   17.57623754
_cell_length_b   17.57317997
_cell_length_c   23.43924396
_cell_angle_alpha   89.99167194
_cell_angle_beta   90.00342981
_cell_angle_gamma   90.01832859
_symmetry_Int_Tables_number   1
_chemical_formula_structural   In86Cu29Se144
_chemical_formula_sum   'In86 Cu29 Se144'
_cell_volume   7239.68785986
_cell_formula_units_Z   1
loop_
 _symmetry_equiv_pos_site_id
 _symmetry_equiv_pos_as_xyz
  1  'x, y, z'
loop_
 _atom_site_type_symbol
 _atom_site_label
 _atom_site_symmetry_multiplicity
 _atom_site_fract_x
 _atom_site_fract_y
 _atom_site_fract_z
 _atom_site_occupancy
  In  In0  1  0.01048806  0.17750187  0.11326414  1
  In  In1  1  -0.00697425  0.15258714  0.62580536  1
  In  In2  1  0.00288301  0.50552144  0.12452933  1
  In  In3  1  0.01322228  0.50992725  0.62494467  1
  In  In4  1  0.00560183  0.81704637  0.12974390  1
  In  In5  1  0.00382089  0.83259317  0.62953563  1
  In  In6  1  0.32944819  0.16219414  0.11217182  1
  In  In7  1  0.31780142  0.16444056  0.62547038  1
  In  In8  1  0.32853735  0.49931959  0.11620344  1
  In  In9  1  0.35158014  0.50526687  0.62310285  1
  In  In10  1  0.33171045  0.82924238  0.11625215  1
  In  In11  1  0.33504023  0.83002894  0.62760892  1
  In  In12  1  0.66592792  0.16764366  0.10922199  1
  In  In13  1  0.67232352  0.16274695  0.63696707  1
  In  In14  1  0.67255363  0.50758315  0.12131780  1
  In  In15  1  0.65306977  0.51163118  0.62903837  1
  In  In16  1  0.65643600  0.83241548  0.12434136  1
  In  In17  1  0.67291648  0.84686421  0.60153202  1
  In  In18  1  0.17140629  -0.00478489  0.38655545  1
  In  In19  1  0.16669556  -0.00237891  0.87269346  1
  In  In20  1  0.15181012  0.33333962  0.37743272  1
  In  In21  1  0.16917040  0.33445116  0.88460980  1
  In  In22  1  0.15646406  0.67200723  0.37058182  1
  In  In23  1  0.16979687  0.67043226  0.87667327  1
  In  In24  1  0.49988508  -0.01218504  0.38056819  1
  In  In25  1  0.49730158  -0.00091988  0.86916578  1
  In  In26  1  0.51233335  0.33897726  0.37252861  1
  In  In27  1  0.50753747  0.32620630  0.87829373  1
  In  In28  1  0.50842564  0.66154038  0.39405325  1
  In  In29  1  0.49493452  0.67951757  0.88119408  1
  In  In30  1  0.82356621  -0.00998824  0.38128940  1
  In  In31  1  0.84479857  0.00341679  0.86320733  1
  In  In32  1  0.84342643  0.32634280  0.37016648  1
  In  In33  1  0.82467734  0.34203886  0.87883727  1
  In  In34  1  0.84304655  0.67027628  0.37299507  1
  In  In35  1  0.82919649  0.65891706  0.87427589  1
  In  In36  1  0.00360739  0.17798537  0.37290238  1
  In  In37  1  0.01002055  0.15686077  0.88231053  1
  In  In38  1  -0.00071007  0.49391964  0.36370784  1
  In  In39  1  -0.00329007  0.50624246  0.88161892  1
  In  In40  1  0.01488987  0.81642890  0.38826854  1
  In  In41  1  0.00679058  0.84600341  0.86367580  1
  In  In42  1  0.33024080  0.14989921  0.37600380  1
  In  In43  1  0.33902979  0.16003622  0.87676558  1
  In  In44  1  0.33351025  0.52700923  0.37977171  1
  In  In45  1  0.32613436  0.50947649  0.88308918  1
  In  In46  1  0.32348244  0.82012336  0.38532909  1
  In  In47  1  0.33364779  0.83251683  0.87143161  1
  In  In48  1  0.66324230  0.16329342  0.37537669  1
  In  In49  1  0.66473118  0.16628045  0.87204900  1
  In  In50  1  0.64888278  0.50458926  0.38089592  1
  In  In51  1  0.67562430  0.49442469  0.88067150  1
  In  In52  1  0.68776602  0.81028441  0.40658718  1
  In  In53  1  0.65556607  0.83135109  0.87085490  1
  In  In54  1  0.16389692  -0.00103561  0.11485217  1
  In  In55  1  0.16528059  -0.00368090  0.63042845  1
  In  In56  1  0.16193502  0.33318021  0.12187032  1
  In  In57  1  0.17640144  0.33476051  0.62179588  1
  In  In58  1  0.16034590  0.66395627  0.12001409  1
  In  In59  1  0.15779122  0.67758812  0.63256331  1
  In  In60  1  0.49356755  -0.00482751  0.11039070  1
  In  In61  1  0.51333191  -0.01816777  0.63688769  1
  In  In62  1  0.50433910  0.33920727  0.11485542  1
  In  In63  1  0.50782051  0.34584151  0.62828192  1
  In  In64  1  0.50481004  0.67184978  0.11964221  1
  In  In65  1  0.49719663  0.66769659  0.61591217  1
  In  In66  1  0.82171871  0.00102048  0.11578090  1
  In  In67  1  0.83521699  -0.01127112  0.63861423  1
  In  In68  1  0.84575700  0.34478377  0.11478763  1
  In  In69  1  0.83501917  0.32126640  0.62800166  1
  In  In70  1  0.84296434  0.65381730  0.13221731  1
  In  In71  1  0.82517979  0.70805622  0.62870029  1
  In  In72  1  0.83930864  0.15880536  0.50480758  1
  In  In73  1  0.33350634  -0.00795438  0.25884723  1
  In  In74  1  -0.00129318  0.33342382  0.75509453  1
  In  In75  1  0.66580062  0.67268404  0.74758825  1
  In  In76  1  -0.00317747  -0.00373118  0.24849651  1
  In  In77  1  0.66698968  -0.00439620  0.25482679  1
  In  In78  1  0.49795245  0.15770923  0.49845781  1
  In  In79  1  0.32182901  0.66895990  0.25320036  1
  In  In80  1  0.17140013  0.50402043  0.49845453  1
  In  In81  1  0.68177934  0.34661975  0.23897946  1
  In  In82  1  0.83659104  0.83213553  -0.00278310  1
  In  In83  1  0.33832367  0.33355695  0.74966085  1
  In  In84  1  0.32881810  0.33708860  0.24214554  1
  In  In85  1  0.83675281  0.49933753  0.49805176  1
  Cu  Cu86  1  0.66727867  0.33498247  0.50350545  1
  Cu  Cu87  1  0.33743714  0.67207834  -0.00150131  1
  Cu  Cu88  1  0.66082360  0.33086408  -0.00353104  1
  Cu  Cu89  1  0.50047372  0.16410155  0.75409714  1
  Cu  Cu90  1  0.00084369  -0.00085360  -0.00709546  1
  Cu  Cu91  1  0.16559708  0.16628998  0.24532074  1
  Cu  Cu92  1  0.84400869  0.17125852  0.24436068  1
  Cu  Cu93  1  0.49366398  0.51199824  0.25522137  1
  Cu  Cu94  1  0.33294753  -0.00016456  -0.01028096  1
  Cu  Cu95  1  0.66240866  0.00248164  -0.00869553  1
  Cu  Cu96  1  0.50313391  0.50411501  0.75149548  1
  Cu  Cu97  1  0.50018221  0.82449082  0.24997366  1
  Cu  Cu98  1  0.82878680  0.16616294  0.75327059  1
  Cu  Cu99  1  0.16050856  0.16064378  0.75170555  1
  Cu  Cu100  1  0.66866070  0.66356379  -0.00089304  1
  Cu  Cu101  1  -0.00538614  0.33530394  -0.00097231  1
  Cu  Cu102  1  0.00385608  0.66616551  0.00121321  1
  Cu  Cu103  1  0.50851599  0.16833049  0.23981950  1
  Cu  Cu104  1  0.49646553  0.83286460  0.74874584  1
  Cu  Cu105  1  0.83139534  0.82574484  0.25916567  1
  Cu  Cu106  1  -0.00697731  0.67039730  0.50488246  1
  Cu  Cu107  1  0.33430762  0.32923935  0.50057662  1
  Cu  Cu108  1  0.17194241  0.51320590  0.75453067  1
  Cu  Cu109  1  0.16988581  0.83351773  0.75123509  1
  Cu  Cu110  1  0.00235513  -0.00599751  0.50787049  1
  Cu  Cu111  1  0.83332037  0.50569401  0.24550040  1
  Cu  Cu112  1  0.83445731  0.50334221  0.75475833  1
  Cu  Cu113  1  0.32243193  0.00044125  0.50988578  1
  Cu  Cu114  1  0.33220684  0.33700024  0.00013854  1
  Se  Se115  1  0.08439116  0.08397814  0.04734411  1
  Se  Se116  1  0.08448049  0.08104863  0.55859911  1
  Se  Se117  1  0.07883363  0.41718436  0.05434284  1
  Se  Se118  1  0.07867189  0.41076011  0.55600394  1
  Se  Se119  1  0.08599054  0.75509105  0.04980822  1
  Se  Se120  1  0.08250836  0.75119923  0.55480685  1
  Se  Se121  1  0.41657900  0.08439586  0.04456907  1
  Se  Se122  1  0.41237828  0.07557907  0.56609447  1
  Se  Se123  1  0.41788621  0.42166090  0.05011366  1
  Se  Se124  1  0.41798957  0.40968160  0.55454081  1
  Se  Se125  1  0.42378784  0.75531508  0.05054480  1
  Se  Se126  1  0.42230837  0.76331312  0.55301094  1
  Se  Se127  1  0.75008573  0.08390209  0.04281896  1
  Se  Se128  1  0.74669287  0.07522777  0.56438420  1
  Se  Se129  1  0.74238624  0.41275464  0.05420393  1
  Se  Se130  1  0.74744461  0.41249078  0.56399690  1
  Se  Se131  1  0.74959214  0.74377942  0.06148216  1
  Se  Se132  1  0.72857576  0.72970194  0.54923331  1
  Se  Se133  1  0.24645776  0.25321985  0.05220556  1
  Se  Se134  1  0.24765347  0.24790133  0.55016269  1
  Se  Se135  1  0.25073836  0.59006705  0.05137145  1
  Se  Se136  1  0.25204351  0.58966703  0.56611267  1
  Se  Se137  1  0.25361570  0.91919320  0.05045720  1
  Se  Se138  1  0.24409862  0.91107758  0.56092160  1
  Se  Se139  1  0.57395303  0.24623126  0.04655826  1
  Se  Se140  1  0.58920418  0.24802428  0.56047494  1
  Se  Se141  1  0.58260648  0.58194782  0.05277367  1
  Se  Se142  1  0.57809421  0.57781801  0.55085287  1
  Se  Se143  1  0.58748471  0.91553329  0.04901479  1
  Se  Se144  1  0.56485713  0.91613379  0.54720198  1
  Se  Se145  1  0.91154237  0.24591642  0.04837805  1
  Se  Se146  1  0.93027273  0.25718588  0.55574974  1
  Se  Se147  1  0.91620096  0.58342829  0.05236417  1
  Se  Se148  1  0.91396216  0.59159138  0.56601313  1
  Se  Se149  1  0.92705393  0.92036610  0.06059843  1
  Se  Se150  1  0.91618067  0.91619092  0.56256815  1
  Se  Se151  1  0.09042775  0.23939956  0.44741144  1
  Se  Se152  1  0.08149740  0.25172570  0.94831834  1
  Se  Se153  1  0.06697865  0.58450246  0.44282219  1
  Se  Se154  1  0.08845718  0.58405195  0.94617353  1
  Se  Se155  1  0.08685805  0.91233649  0.45286966  1
  Se  Se156  1  0.08446810  0.91349541  0.94326511  1
  Se  Se157  1  0.41385393  0.25364524  0.43521270  1
  Se  Se158  1  0.41172125  0.25358715  0.94327979  1
  Se  Se159  1  0.42214844  0.57626001  0.45689511  1
  Se  Se160  1  0.42042093  0.58582155  0.94742325  1
  Se  Se161  1  0.39488242  0.92681791  0.44180780  1
  Se  Se162  1  0.41900945  0.91500098  0.94054907  1
  Se  Se163  1  0.74623160  0.25507378  0.44285121  1
  Se  Se164  1  0.74607784  0.24979132  0.94290574  1
  Se  Se165  1  0.74542535  0.58794473  0.44030581  1
  Se  Se166  1  0.75538114  0.58050269  0.94991723  1
  Se  Se167  1  0.75343794  0.91957156  0.46002510  1
  Se  Se168  1  0.74713363  0.92047838  0.93576973  1
  Se  Se169  1  0.24633664  0.08770696  0.45326376  1
  Se  Se170  1  0.24555958  0.08518348  0.94228967  1
  Se  Se171  1  0.26027004  0.41185821  0.43611844  1
  Se  Se172  1  0.24682253  0.42283828  0.95106134  1
  Se  Se173  1  0.24825902  0.72389918  0.44609137  1
  Se  Se174  1  0.25244848  0.75450837  0.94539583  1
  Se  Se175  1  0.59788823  0.06801072  0.44554679  1
  Se  Se176  1  0.57713718  0.08511801  0.93934722  1
  Se  Se177  1  0.57932275  0.41467265  0.45218123  1
  Se  Se178  1  0.58064148  0.41974930  0.94541344  1
  Se  Se179  1  0.55634186  0.77933178  0.44916919  1
  Se  Se180  1  0.58790658  0.75251914  0.94926159  1
  Se  Se181  1  0.92890614  0.07216701  0.43916353  1
  Se  Se182  1  0.91193783  0.08014958  0.94394970  1
  Se  Se183  1  0.92797589  0.40577812  0.44225581  1
  Se  Se184  1  0.91237192  0.42043025  0.94640757  1
  Se  Se185  1  0.90944297  0.75360472  0.45104510  1
  Se  Se186  1  0.92648353  0.74464188  0.93679091  1
  Se  Se187  1  0.25005202  0.24084198  0.30727053  1
  Se  Se188  1  0.24155589  0.24695230  0.80747060  1
  Se  Se189  1  0.23178524  0.56992969  0.30518302  1
  Se  Se190  1  0.25913351  0.59209993  0.80645151  1
  Se  Se191  1  0.23755078  0.90225669  0.31098121  1
  Se  Se192  1  0.25272316  0.91896698  0.80351980  1
  Se  Se193  1  0.58882477  0.24865072  0.29826269  1
  Se  Se194  1  0.58397276  0.25241603  0.80157838  1
  Se  Se195  1  0.57772806  0.59202229  0.30953160  1
  Se  Se196  1  0.58253144  0.58349207  0.81418960  1
  Se  Se197  1  0.58118183  0.90239883  0.31200129  1
  Se  Se198  1  0.58195412  0.91684406  0.79978731  1
  Se  Se199  1  0.92624987  0.25415752  0.29663174  1
  Se  Se200  1  0.91118840  0.24314993  0.81551518  1
  Se  Se201  1  0.91769169  0.58529013  0.30194441  1
  Se  Se202  1  0.92003745  0.58427160  0.80603261  1
  Se  Se203  1  0.91298866  0.90849656  0.31494051  1
  Se  Se204  1  0.91057930  0.90895337  0.79545033  1
  Se  Se205  1  0.09269618  0.08259174  0.30889665  1
  Se  Se206  1  0.07701089  0.07744632  0.80389070  1
  Se  Se207  1  0.08469953  0.40967391  0.30005550  1
  Se  Se208  1  0.09413434  0.42440719  0.81011506  1
  Se  Se209  1  0.07277833  0.75006404  0.30129707  1
  Se  Se210  1  0.08705221  0.74927254  0.80474940  1
  Se  Se211  1  0.43489360  0.08928537  0.30559699  1
  Se  Se212  1  0.41103812  0.08166142  0.80042743  1
  Se  Se213  1  0.41673599  0.42395555  0.31066472  1
  Se  Se214  1  0.42179923  0.42481245  0.81243379  1
  Se  Se215  1  0.41969578  0.74998128  0.31301365  1
  Se  Se216  1  0.41650308  0.74678904  0.80247443  1
  Se  Se217  1  0.76396310  0.09325306  0.30633435  1
  Se  Se218  1  0.74509140  0.07978792  0.80333401  1
  Se  Se219  1  0.75739300  0.42942427  0.31452281  1
  Se  Se220  1  0.74845400  0.41826973  0.80202593  1
  Se  Se221  1  0.74309408  0.75058088  0.31445226  1
  Se  Se222  1  0.75926489  0.75894275  0.80799071  1
  Se  Se223  1  0.24888650  0.08318055  0.19102167  1
  Se  Se224  1  0.24893116  0.08120412  0.69999962  1
  Se  Se225  1  0.23686427  0.43138277  0.19080821  1
  Se  Se226  1  0.24737262  0.42967179  0.69279465  1
  Se  Se227  1  0.24146925  0.76098393  0.18948611  1
  Se  Se228  1  0.25302301  0.74811054  0.69922270  1
  Se  Se229  1  0.58279100  0.08048814  0.18360289  1
  Se  Se230  1  0.58450044  0.08016388  0.70073538  1
  Se  Se231  1  0.57156150  0.42859024  0.19360403  1
  Se  Se232  1  0.58913225  0.41929668  0.70240367  1
  Se  Se233  1  0.58564184  0.74506034  0.19617515  1
  Se  Se234  1  0.57919915  0.75955660  0.68485509  1
  Se  Se235  1  0.91342500  0.08529151  0.18242445  1
  Se  Se236  1  0.91466473  0.08289954  0.70198472  1
  Se  Se237  1  0.91580008  0.42070000  0.19298804  1
  Se  Se238  1  0.91436102  0.42470831  0.69052397  1
  Se  Se239  1  0.91331496  0.74936583  0.19917932  1
  Se  Se240  1  0.93069876  0.73988775  0.69812750  1
  Se  Se241  1  0.08273182  0.24948024  0.19337177  1
  Se  Se242  1  0.08830616  0.24738715  0.69052128  1
  Se  Se243  1  0.07143791  0.59979576  0.19304531  1
  Se  Se244  1  0.08092105  0.58847718  0.70239340  1
  Se  Se245  1  0.09339495  0.91184630  0.19145838  1
  Se  Se246  1  0.08224429  0.91708207  0.70108356  1
  Se  Se247  1  0.42177229  0.24403184  0.18436074  1
  Se  Se248  1  0.42520688  0.24216705  0.68738199  1
  Se  Se249  1  0.41463163  0.58344009  0.18949676  1
  Se  Se250  1  0.42486010  0.58829358  0.69578707  1
  Se  Se251  1  0.42449762  0.90973462  0.19162543  1
  Se  Se252  1  0.40967012  0.91861811  0.69965977  1
  Se  Se253  1  0.75805841  0.24248406  0.18284941  1
  Se  Se254  1  0.74940235  0.25515961  0.70238847  1
  Se  Se255  1  0.74263688  0.58730446  0.19859907  1
  Se  Se256  1  0.76086948  0.58396664  0.68831814  1
  Se  Se257  1  0.75948283  0.90685434  0.19317436  1
  Se  Se258  1  0.73709965  0.90316256  0.69008621  1
