# generated using pymatgen
data_In86Cu29Se144
_symmetry_space_group_name_H-M   'P 1'
_cell_length_a   17.58108112
_cell_length_b   17.58473310
_cell_length_c   23.43903829
_cell_angle_alpha   89.97885323
_cell_angle_beta   89.99679774
_cell_angle_gamma   90.00261131
_symmetry_Int_Tables_number   1
_chemical_formula_structural   In86Cu29Se144
_chemical_formula_sum   'In86 Cu29 Se144'
_cell_volume   7246.38020033
_cell_formula_units_Z   1
loop_
 _symmetry_equiv_pos_site_id
 _symmetry_equiv_pos_as_xyz
  1  'x, y, z'
loop_
 _atom_site_type_symbol
 _atom_site_label
 _atom_site_symmetry_multiplicity
 _atom_site_fract_x
 _atom_site_fract_y
 _atom_site_fract_z
 _atom_site_occupancy
  In  In0  1  -0.00082975  0.16720423  0.11852130  1
  In  In1  1  0.01472221  0.15688518  0.63446730  1
  In  In2  1  0.00194756  0.50330288  0.12255018  1
  In  In3  1  -0.01808576  0.49937500  0.62586267  1
  In  In4  1  -0.01272505  0.81869495  0.11588683  1
  In  In5  1  0.00586196  0.84179338  0.62943410  1
  In  In6  1  0.32430955  0.17244451  0.12030200  1
  In  In7  1  0.32342933  0.16269868  0.62542377  1
  In  In8  1  0.32987102  0.51257756  0.12458647  1
  In  In9  1  0.34284901  0.49615766  0.62481818  1
  In  In10  1  0.32305819  0.82153772  0.10575398  1
  In  In11  1  0.34088443  0.83464526  0.64406073  1
  In  In12  1  0.67240996  0.14552163  0.12856351  1
  In  In13  1  0.66041830  0.16443302  0.62303522  1
  In  In14  1  0.68793915  0.50544802  0.12336833  1
  In  In15  1  0.66785713  0.50585538  0.62109078  1
  In  In16  1  0.66759948  0.83410051  0.12574220  1
  In  In17  1  0.65480178  0.83923291  0.64214490  1
  In  In18  1  0.17438526  -0.00015563  0.37853843  1
  In  In19  1  0.16512388  0.00128133  0.88413075  1
  In  In20  1  0.15202832  0.32817633  0.37160068  1
  In  In21  1  0.14460204  0.33903953  0.88981512  1
  In  In22  1  0.16821673  0.66395949  0.35922035  1
  In  In23  1  0.17579979  0.66832789  0.87874499  1
  In  In24  1  0.51101035  -0.00203400  0.38460160  1
  In  In25  1  0.48002045  -0.03510869  0.84515827  1
  In  In26  1  0.50499968  0.33016155  0.38754837  1
  In  In27  1  0.49927265  0.33447121  0.87197266  1
  In  In28  1  0.49971576  0.66842964  0.37028137  1
  In  In29  1  0.51773085  0.69216862  0.85396679  1
  In  In30  1  0.82280901  0.01109046  0.36840220  1
  In  In31  1  0.83217550  -0.00598005  0.87200126  1
  In  In32  1  0.85204620  0.33061243  0.36987635  1
  In  In33  1  0.85389044  0.31765336  0.89732765  1
  In  In34  1  0.82244729  0.65833532  0.36276744  1
  In  In35  1  0.82931420  0.67293849  0.88541173  1
  In  In36  1  -0.00808475  0.17744940  0.37361144  1
  In  In37  1  0.00132681  0.16399287  0.87947399  1
  In  In38  1  -0.00561036  0.48898859  0.36818192  1
  In  In39  1  0.00281472  0.49358911  0.88624308  1
  In  In40  1  0.00838378  0.83167584  0.36678384  1
  In  In41  1  -0.01184434  0.84434831  0.88477276  1
  In  In42  1  0.33002602  0.16878819  0.38661357  1
  In  In43  1  0.32941013  0.14337147  0.87895712  1
  In  In44  1  0.33820642  0.51120679  0.37284606  1
  In  In45  1  0.31513877  0.50726534  0.87781133  1
  In  In46  1  0.34235011  0.83066121  0.37187905  1
  In  In47  1  0.33633151  0.83620920  0.88171337  1
  In  In48  1  0.66601575  0.14968437  0.37795390  1
  In  In49  1  0.68445573  0.15638033  0.87930608  1
  In  In50  1  0.66307039  0.50858141  0.38054376  1
  In  In51  1  0.66980583  0.51183852  0.87641436  1
  In  In52  1  0.67474183  0.83647511  0.36188827  1
  In  In53  1  0.66858407  0.83356435  0.87380517  1
  In  In54  1  0.16721875  -0.01185243  0.10707248  1
  In  In55  1  0.15925225  0.01579724  0.63964158  1
  In  In56  1  0.13868139  0.31959589  0.10321272  1
  In  In57  1  0.16498901  0.31651435  0.62958339  1
  In  In58  1  0.16748897  0.66164728  0.11846667  1
  In  In59  1  0.16911588  0.68096696  0.62884031  1
  In  In60  1  0.51651150  -0.00563097  0.12633469  1
  In  In61  1  0.49463903  0.00249582  0.63475748  1
  In  In62  1  0.49836299  0.33000985  0.12767527  1
  In  In63  1  0.50016063  0.33617398  0.61399522  1
  In  In64  1  0.49009618  0.67500369  0.13157527  1
  In  In65  1  0.50773107  0.66552262  0.63221039  1
  In  In66  1  0.82260031  -0.01131001  0.11752081  1
  In  In67  1  0.83757225  0.00305802  0.63133023  1
  In  In68  1  0.85587064  0.34187853  0.10921538  1
  In  In69  1  0.83344526  0.34511181  0.62591499  1
  In  In70  1  0.83730445  0.67407564  0.13002331  1
  In  In71  1  0.82613642  0.64928116  0.62145605  1
  In  In72  1  -0.00197704  0.67020434  0.75150927  1
  In  In73  1  0.83073744  0.83460486  0.49906287  1
  In  In74  1  0.50210091  0.83545401  0.50905970  1
  In  In75  1  0.83472127  0.16910668  0.49653591  1
  In  In76  1  0.33379287  -0.00541990  0.24587999  1
  In  In77  1  0.49732307  0.50630951  -0.00192252  1
  In  In78  1  0.16864890  0.84031424  0.50347564  1
  In  In79  1  0.16814966  0.49232238  0.49564594  1
  In  In80  1  0.67781628  0.33018402  0.24626953  1
  In  In81  1  0.32634437  0.32861648  0.75331387  1
  In  In82  1  0.50308227  0.15363746  -0.00509033  1
  In  In83  1  0.32689768  0.34487893  0.24907801  1
  In  In84  1  0.67441757  0.33583538  0.75066244  1
  In  In85  1  -0.00712663  -0.00283331  0.24380467  1
  Cu  Cu86  1  0.00263449  0.66648867  0.00264529  1
  Cu  Cu87  1  0.66916275  0.32901882  0.00567319  1
  Cu  Cu88  1  -0.00469612  0.00111495  -0.00122388  1
  Cu  Cu89  1  0.16574808  0.82193630  0.23697270  1
  Cu  Cu90  1  0.83199919  0.49702124  0.75315403  1
  Cu  Cu91  1  0.66396472  0.66774692  0.50094260  1
  Cu  Cu92  1  0.33538545  0.33107588  0.50321209  1
  Cu  Cu93  1  0.50407772  0.16399296  0.74845088  1
  Cu  Cu94  1  0.49638047  0.50882879  0.74761323  1
  Cu  Cu95  1  0.50040962  0.82872796  0.24889886  1
  Cu  Cu96  1  0.67312356  0.34097321  0.50039589  1
  Cu  Cu97  1  0.32616019  0.33140790  -0.00308427  1
  Cu  Cu98  1  0.16455874  0.16646271  0.75932658  1
  Cu  Cu99  1  0.15840690  0.50034602  0.75760546  1
  Cu  Cu100  1  0.83975714  0.50383016  0.24582251  1
  Cu  Cu101  1  0.32935209  0.00771950  0.51125809  1
  Cu  Cu102  1  -0.00065006  0.33019077  0.49822603  1
  Cu  Cu103  1  0.83276354  0.82838288  0.75650575  1
  Cu  Cu104  1  0.33492934  0.66418807  0.49667770  1
  Cu  Cu105  1  0.66794688  -0.00944512  -0.00405144  1
  Cu  Cu106  1  0.15740081  0.16703694  0.24387292  1
  Cu  Cu107  1  0.66636379  0.67263468  0.00073581  1
  Cu  Cu108  1  0.16387156  0.49856160  0.24162129  1
  Cu  Cu109  1  0.50012808  0.15989300  0.25579180  1
  Cu  Cu110  1  0.16949020  0.84176071  0.75835897  1
  Cu  Cu111  1  -0.00613623  0.66113463  0.49336681  1
  Cu  Cu112  1  0.84383066  0.16571706  0.75701551  1
  Cu  Cu113  1  0.33865066  0.66953853  -0.00446557  1
  Cu  Cu114  1  0.50907951  0.50657319  0.25093233  1
  Se  Se115  1  0.08162609  0.08158442  0.05123520  1
  Se  Se116  1  0.08840890  0.08236210  0.55776881  1
  Se  Se117  1  0.09152818  0.43656170  0.04929606  1
  Se  Se118  1  0.07785174  0.41003353  0.56171998  1
  Se  Se119  1  0.08862670  0.75245775  0.05203636  1
  Se  Se120  1  0.07094448  0.74228333  0.55484660  1
  Se  Se121  1  0.41518410  0.07731769  0.06521950  1
  Se  Se122  1  0.41920150  0.08629396  0.56224425  1
  Se  Se123  1  0.40957062  0.40830047  0.05743202  1
  Se  Se124  1  0.41750441  0.42266494  0.54780358  1
  Se  Se125  1  0.42732584  0.74813323  0.04804787  1
  Se  Se126  1  0.40564829  0.74534905  0.56247429  1
  Se  Se127  1  0.74780750  0.08020834  0.04747312  1
  Se  Se128  1  0.74813215  0.07686066  0.55686105  1
  Se  Se129  1  0.75382127  0.41752571  0.05099263  1
  Se  Se130  1  0.75466268  0.42402008  0.55402033  1
  Se  Se131  1  0.75112583  0.75082796  0.05752872  1
  Se  Se132  1  0.73933970  0.74966489  0.56377437  1
  Se  Se133  1  0.24326016  0.24479297  0.04685598  1
  Se  Se134  1  0.24833251  0.24978443  0.55413471  1
  Se  Se135  1  0.25459385  0.58390236  0.04675330  1
  Se  Se136  1  0.25001850  0.58964906  0.55794147  1
  Se  Se137  1  0.26870469  0.92812282  0.04328807  1
  Se  Se138  1  0.25644838  0.92096937  0.57143016  1
  Se  Se139  1  0.58651230  0.24747673  0.06142770  1
  Se  Se140  1  0.59138710  0.25457185  0.55235351  1
  Se  Se141  1  0.58830585  0.58928628  0.06225040  1
  Se  Se142  1  0.57861102  0.58607353  0.55479901  1
  Se  Se143  1  0.58323915  0.91046029  0.05079192  1
  Se  Se144  1  0.59249804  0.92782990  0.56295798  1
  Se  Se145  1  0.93398247  0.25457945  0.04136134  1
  Se  Se146  1  0.92258791  0.25224888  0.56370996  1
  Se  Se147  1  0.91517953  0.58978335  0.05835497  1
  Se  Se148  1  0.91277970  0.57898021  0.54837377  1
  Se  Se149  1  0.91394357  0.91382078  0.05081618  1
  Se  Se150  1  0.92467491  0.92390053  0.55683460  1
  Se  Se151  1  0.08224170  0.24532290  0.44667226  1
  Se  Se152  1  0.06046748  0.25660762  0.95635465  1
  Se  Se153  1  0.08290780  0.58737544  0.43628011  1
  Se  Se154  1  0.08599429  0.58838952  0.94461137  1
  Se  Se155  1  0.07410123  0.92337472  0.44248052  1
  Se  Se156  1  0.08277753  0.91427872  0.95160330  1
  Se  Se157  1  0.42007211  0.24564551  0.45243554  1
  Se  Se158  1  0.41104230  0.25346616  0.93979026  1
  Se  Se159  1  0.42228860  0.58608329  0.44420159  1
  Se  Se160  1  0.41778171  0.59352225  0.93077130  1
  Se  Se161  1  0.40380240  0.92329843  0.44881169  1
  Se  Se162  1  0.42980300  0.91992078  0.94136753  1
  Se  Se163  1  0.74573975  0.26059637  0.43523757  1
  Se  Se164  1  0.75020633  0.24285192  0.95356353  1
  Se  Se165  1  0.75212756  0.59014659  0.44633895  1
  Se  Se166  1  0.74864459  0.58382944  0.95231119  1
  Se  Se167  1  0.73993330  0.92548492  0.44063875  1
  Se  Se168  1  0.75636783  0.90893188  0.94474095  1
  Se  Se169  1  0.24543014  0.08356001  0.45202337  1
  Se  Se170  1  0.24334477  0.08650191  0.95517013  1
  Se  Se171  1  0.25967933  0.40474769  0.43359491  1
  Se  Se172  1  0.24437074  0.41871837  0.94747336  1
  Se  Se173  1  0.25179754  0.74380527  0.43891216  1
  Se  Se174  1  0.24872825  0.75495285  0.95021974  1
  Se  Se175  1  0.57516081  0.09263305  0.45204418  1
  Se  Se176  1  0.58763892  0.06636669  0.93200982  1
  Se  Se177  1  0.58469566  0.42249432  0.44949658  1
  Se  Se178  1  0.58981171  0.40784255  0.94375397  1
  Se  Se179  1  0.58957450  0.75300176  0.44053055  1
  Se  Se180  1  0.58344929  0.74996205  0.94265697  1
  Se  Se181  1  0.92312289  0.07429842  0.43936259  1
  Se  Se182  1  0.91098807  0.07958530  0.94224311  1
  Se  Se183  1  0.91778006  0.41602654  0.44634564  1
  Se  Se184  1  0.89793048  0.43722182  0.95050481  1
  Se  Se185  1  0.91943618  0.74676042  0.43520066  1
  Se  Se186  1  0.91650697  0.75120001  0.95236462  1
  Se  Se187  1  0.24522747  0.23971055  0.30507040  1
  Se  Se188  1  0.24066742  0.24835035  0.82234565  1
  Se  Se189  1  0.25261128  0.57565387  0.29673411  1
  Se  Se190  1  0.24574580  0.58701100  0.80064945  1
  Se  Se191  1  0.23893503  0.90230551  0.30407714  1
  Se  Se192  1  0.25113699  0.92245091  0.81401043  1
  Se  Se193  1  0.57919160  0.24893628  0.30856876  1
  Se  Se194  1  0.58321670  0.24241897  0.80964016  1
  Se  Se195  1  0.59088567  0.58931928  0.30486733  1
  Se  Se196  1  0.58767655  0.58131975  0.80120270  1
  Se  Se197  1  0.57430332  0.91675823  0.30604376  1
  Se  Se198  1  0.60566709  0.92485919  0.79981434  1
  Se  Se199  1  0.91903039  0.24761619  0.29564759  1
  Se  Se200  1  0.91962582  0.25325641  0.81099288  1
  Se  Se201  1  0.92340272  0.58434262  0.30228902  1
  Se  Se202  1  0.91203730  0.57988563  0.81274906  1
  Se  Se203  1  0.90569391  0.91072151  0.30852927  1
  Se  Se204  1  0.91988996  0.91436340  0.80217490  1
  Se  Se205  1  0.08711909  0.08272295  0.30794206  1
  Se  Se206  1  0.08220997  0.07994647  0.81077421  1
  Se  Se207  1  0.08460155  0.41474437  0.29875362  1
  Se  Se208  1  0.07719239  0.41610003  0.80907163  1
  Se  Se209  1  0.08062409  0.74607746  0.29504494  1
  Se  Se210  1  0.08436464  0.75888014  0.81414128  1
  Se  Se211  1  0.41493439  0.08420084  0.31384286  1
  Se  Se212  1  0.41594785  0.08586918  0.80109249  1
  Se  Se213  1  0.43120526  0.41995538  0.30924794  1
  Se  Se214  1  0.41768525  0.42708954  0.80771840  1
  Se  Se215  1  0.41286313  0.74601057  0.29984122  1
  Se  Se216  1  0.39638726  0.74116691  0.80798799  1
  Se  Se217  1  0.75808485  0.10532913  0.30053012  1
  Se  Se218  1  0.75404822  0.08084538  0.80052551  1
  Se  Se219  1  0.75853768  0.42556727  0.30953853  1
  Se  Se220  1  0.76020909  0.41562042  0.81915640  1
  Se  Se221  1  0.75426052  0.75271340  0.29642921  1
  Se  Se222  1  0.75122875  0.74238434  0.80713415  1
  Se  Se223  1  0.23859677  0.08397800  0.18792874  1
  Se  Se224  1  0.25433585  0.08799234  0.70596680  1
  Se  Se225  1  0.23687980  0.41511226  0.17831526  1
  Se  Se226  1  0.23923095  0.42344272  0.69217846  1
  Se  Se227  1  0.25614219  0.74489553  0.18626268  1
  Se  Se228  1  0.24652188  0.75272114  0.70438394  1
  Se  Se229  1  0.58400766  0.07907088  0.20226482  1
  Se  Se230  1  0.59032547  0.08221472  0.69767776  1
  Se  Se231  1  0.58266367  0.42441739  0.18888188  1
  Se  Se232  1  0.57521361  0.42033673  0.69187468  1
  Se  Se233  1  0.58595060  0.74732224  0.19584313  1
  Se  Se234  1  0.57888725  0.74814511  0.70536458  1
  Se  Se235  1  0.90619278  0.08622220  0.18326802  1
  Se  Se236  1  0.92327397  0.08070437  0.70058576  1
  Se  Se237  1  0.91906580  0.41819157  0.19187372  1
  Se  Se238  1  0.91747532  0.41381885  0.70202855  1
  Se  Se239  1  0.91740823  0.75796593  0.19958501  1
  Se  Se240  1  0.90608591  0.75250831  0.68594268  1
  Se  Se241  1  0.07772055  0.25146219  0.19060694  1
  Se  Se242  1  0.08170744  0.25092820  0.70575736  1
  Se  Se243  1  0.08332908  0.58842670  0.19261416  1
  Se  Se244  1  0.08620987  0.57819762  0.68832566  1
  Se  Se245  1  0.08783776  0.91078786  0.18413610  1
  Se  Se246  1  0.08304875  0.91912876  0.70247391  1
  Se  Se247  1  0.41871021  0.24010537  0.19755676  1
  Se  Se248  1  0.42479608  0.24971522  0.69087058  1
  Se  Se249  1  0.41673666  0.58012260  0.19796099  1
  Se  Se250  1  0.40963649  0.58748673  0.69446908  1
  Se  Se251  1  0.41948494  0.90445292  0.18518201  1
  Se  Se252  1  0.42765725  0.91491111  0.70787600  1
  Se  Se253  1  0.76012390  0.25218963  0.17551383  1
  Se  Se254  1  0.76204756  0.24061265  0.69156838  1
  Se  Se255  1  0.75223621  0.58862852  0.19941185  1
  Se  Se256  1  0.74769714  0.57809421  0.69857261  1
  Se  Se257  1  0.73292348  0.93175019  0.19351184  1
  Se  Se258  1  0.75771249  0.91485475  0.69771814  1
