# generated using pymatgen
data_In86Cu29Se144
_symmetry_space_group_name_H-M   'P 1'
_cell_length_a   17.58344121
_cell_length_b   17.58565084
_cell_length_c   23.44825951
_cell_angle_alpha   89.96430928
_cell_angle_beta   90.01773303
_cell_angle_gamma   90.00513356
_symmetry_Int_Tables_number   1
_chemical_formula_structural   In86Cu29Se144
_chemical_formula_sum   'In86 Cu29 Se144'
_cell_volume   7250.58127278
_cell_formula_units_Z   1
loop_
 _symmetry_equiv_pos_site_id
 _symmetry_equiv_pos_as_xyz
  1  'x, y, z'
loop_
 _atom_site_type_symbol
 _atom_site_label
 _atom_site_symmetry_multiplicity
 _atom_site_fract_x
 _atom_site_fract_y
 _atom_site_fract_z
 _atom_site_occupancy
  In  In0  1  0.01245950  0.15985708  0.12665844  1
  In  In1  1  0.01123103  0.17328284  0.61786970  1
  In  In2  1  0.01769096  0.50572141  0.11692359  1
  In  In3  1  -0.01846623  0.51579264  0.63353991  1
  In  In4  1  -0.00677241  0.82002516  0.11029199  1
  In  In5  1  -0.01206136  0.81898143  0.63050117  1
  In  In6  1  0.32309972  0.17096754  0.12807570  1
  In  In7  1  0.32631229  0.15073113  0.62092756  1
  In  In8  1  0.35131777  0.50850713  0.11226827  1
  In  In9  1  0.33786616  0.51045240  0.62879454  1
  In  In10  1  0.33722970  0.83679359  0.12375802  1
  In  In11  1  0.33994819  0.82591866  0.63394988  1
  In  In12  1  0.67866181  0.16997964  0.13345809  1
  In  In13  1  0.66673310  0.16337726  0.62343910  1
  In  In14  1  0.65418851  0.50190933  0.12182019  1
  In  In15  1  0.67574861  0.48825960  0.63279986  1
  In  In16  1  0.65701690  0.82632768  0.11499787  1
  In  In17  1  0.66646138  0.84586584  0.64070875  1
  In  In18  1  0.17635225  -0.00416202  0.37651237  1
  In  In19  1  0.17099798  -0.01433101  0.88125367  1
  In  In20  1  0.15753312  0.33366046  0.37514748  1
  In  In21  1  0.15966207  0.34257712  0.88388529  1
  In  In22  1  0.16845472  0.67241156  0.36354862  1
  In  In23  1  0.16962763  0.66508974  0.87784937  1
  In  In24  1  0.49392848  0.00271488  0.37642614  1
  In  In25  1  0.48947454  -0.00408865  0.86783958  1
  In  In26  1  0.50280981  0.30925780  0.37289769  1
  In  In27  1  0.50866121  0.33663999  0.87344414  1
  In  In28  1  0.49508462  0.67837271  0.37788363  1
  In  In29  1  0.49739539  0.66925361  0.87466966  1
  In  In30  1  0.84571416  0.00580508  0.38399889  1
  In  In31  1  0.81823654  -0.00999970  0.86593140  1
  In  In32  1  0.82814752  0.33720451  0.38343849  1
  In  In33  1  0.83074949  0.33335434  0.86489424  1
  In  In34  1  0.83387487  0.65791338  0.37869952  1
  In  In35  1  0.84820822  0.68831395  0.85637575  1
  In  In36  1  0.00293945  0.16133681  0.39654990  1
  In  In37  1  -0.00438773  0.17476615  0.86909321  1
  In  In38  1  -0.00841183  0.50199721  0.37490864  1
  In  In39  1  0.01367120  0.51226608  0.86904607  1
  In  In40  1  0.00937914  0.83373778  0.37162973  1
  In  In41  1  0.00952422  0.81362886  0.88914311  1
  In  In42  1  0.35174702  0.14550531  0.38515907  1
  In  In43  1  0.33393564  0.15206058  0.87408291  1
  In  In44  1  0.32572417  0.50708832  0.36974664  1
  In  In45  1  0.31540794  0.51142631  0.88914624  1
  In  In46  1  0.34166590  0.84675441  0.35868476  1
  In  In47  1  0.33559304  0.83478823  0.87555417  1
  In  In48  1  0.65516294  0.17587379  0.38604363  1
  In  In49  1  0.66635095  0.16832480  0.86168504  1
  In  In50  1  0.68176727  0.49912825  0.37940876  1
  In  In51  1  0.65895859  0.49838007  0.87059196  1
  In  In52  1  0.65563504  0.82318043  0.37888397  1
  In  In53  1  0.66567241  0.83014804  0.87338745  1
  In  In54  1  0.17753165  0.00581079  0.11745126  1
  In  In55  1  0.16099816  0.01337541  0.62638334  1
  In  In56  1  0.19378167  0.34636020  0.09945731  1
  In  In57  1  0.16345601  0.32101099  0.62512333  1
  In  In58  1  0.16855610  0.67184544  0.11851243  1
  In  In59  1  0.16050469  0.67267632  0.63592727  1
  In  In60  1  0.49941505  -0.01550786  0.12852289  1
  In  In61  1  0.50118179  -0.00278220  0.62635506  1
  In  In62  1  0.49765204  0.34437749  0.12833322  1
  In  In63  1  0.51427003  0.32842200  0.62697398  1
  In  In64  1  0.49555708  0.66539319  0.11890221  1
  In  In65  1  0.49406643  0.68057671  0.63239220  1
  In  In66  1  0.84198223  -0.00276811  0.12499856  1
  In  In67  1  0.82166160  -0.00913872  0.62629455  1
  In  In68  1  0.83196695  0.32602500  0.12811623  1
  In  In69  1  0.83220542  0.33541001  0.62496091  1
  In  In70  1  0.83520225  0.67568216  0.11882400  1
  In  In71  1  0.84157074  0.65677417  0.63628355  1
  In  In72  1  0.50346914  0.49555987  0.50724489  1
  In  In73  1  0.49718833  0.16957628  0.00082794  1
  In  In74  1  0.83378103  0.50701782  -0.01011580  1
  In  In75  1  0.66040799  0.00191098  0.25744461  1
  In  In76  1  0.16159380  0.49967618  0.49499039  1
  In  In77  1  0.33269825  0.33694383  0.75487388  1
  In  In78  1  0.83838741  0.16130661  0.00072850  1
  In  In79  1  0.33630650  0.33358031  0.24926920  1
  In  In80  1  -0.00244836  -0.00604395  0.74579445  1
  In  In81  1  0.65957441  0.66527258  0.24203768  1
  In  In82  1  0.00726570  -0.00161631  0.25155012  1
  In  In83  1  0.00264531  0.33677245  0.24877216  1
  In  In84  1  0.16325946  0.83735353  0.50243004  1
  In  In85  1  0.83135291  0.83286543  0.50782537  1
  Cu  Cu86  1  0.49647574  0.50929760  0.74974803  1
  Cu  Cu87  1  0.66485911  0.66850305  0.50509590  1
  Cu  Cu88  1  -0.00063317  -0.00512293  0.00002859  1
  Cu  Cu89  1  0.33393512  0.67321355  -0.00104654  1
  Cu  Cu90  1  0.50127895  0.16527267  0.74596577  1
  Cu  Cu91  1  0.16531668  0.16546330  0.74683193  1
  Cu  Cu92  1  0.66534664  0.33682902  -0.00434272  1
  Cu  Cu93  1  0.33235865  0.31979489  0.50289571  1
  Cu  Cu94  1  0.83063288  0.17051267  0.74223116  1
  Cu  Cu95  1  0.82698739  0.49553313  0.75268398  1
  Cu  Cu96  1  0.16563636  0.82985090  0.24044085  1
  Cu  Cu97  1  0.17300166  0.51564761  0.24045025  1
  Cu  Cu98  1  0.17148233  0.83078911  0.75821637  1
  Cu  Cu99  1  0.50359972  0.50097202  0.24763444  1
  Cu  Cu100  1  0.33431241  -0.00490728  -0.00228698  1
  Cu  Cu101  1  0.16866955  0.17387035  0.24917213  1
  Cu  Cu102  1  0.50161527  0.83696831  0.75463684  1
  Cu  Cu103  1  0.66304504  0.66751477  -0.00623142  1
  Cu  Cu104  1  0.33690105  -0.00322147  0.49987524  1
  Cu  Cu105  1  0.82848455  0.82940986  0.24283533  1
  Cu  Cu106  1  0.66212056  -0.00444949  0.50629254  1
  Cu  Cu107  1  -0.00368771  0.33917823  0.50314169  1
  Cu  Cu108  1  0.00923961  0.33232767  -0.00717693  1
  Cu  Cu109  1  0.16275759  0.49945436  0.75776791  1
  Cu  Cu110  1  0.83657319  0.50160434  0.25519936  1
  Cu  Cu111  1  0.83214807  0.17647129  0.25956336  1
  Cu  Cu112  1  0.32924707  0.67590608  0.50091506  1
  Cu  Cu113  1  0.67054203  0.32918925  0.50448077  1
  Cu  Cu114  1  0.66074597  -0.00568518  -0.00633169  1
  Se  Se115  1  0.08254937  0.08156952  0.05106711  1
  Se  Se116  1  0.08514405  0.08327502  0.54996745  1
  Se  Se117  1  0.08845693  0.41993507  0.04491314  1
  Se  Se118  1  0.07703202  0.41827350  0.56448447  1
  Se  Se119  1  0.09034087  0.75331166  0.04658516  1
  Se  Se120  1  0.07493050  0.74029531  0.55683240  1
  Se  Se121  1  0.41178949  0.07621388  0.06104116  1
  Se  Se122  1  0.42068300  0.08007007  0.55412232  1
  Se  Se123  1  0.41091319  0.40041042  0.05243036  1
  Se  Se124  1  0.40633263  0.40518120  0.56364085  1
  Se  Se125  1  0.41920443  0.75516416  0.05214330  1
  Se  Se126  1  0.41587182  0.75367992  0.55493472  1
  Se  Se127  1  0.74002983  0.07284805  0.05716381  1
  Se  Se128  1  0.74924760  0.07805654  0.55531362  1
  Se  Se129  1  0.74993097  0.41309714  0.05631328  1
  Se  Se130  1  0.75098476  0.41921202  0.55327303  1
  Se  Se131  1  0.74656931  0.74849695  0.04975976  1
  Se  Se132  1  0.74321199  0.74513183  0.56930743  1
  Se  Se133  1  0.24715422  0.23169842  0.04660232  1
  Se  Se134  1  0.24579000  0.24155564  0.55587821  1
  Se  Se135  1  0.25396306  0.58524545  0.05220665  1
  Se  Se136  1  0.24994496  0.59200783  0.55801408  1
  Se  Se137  1  0.25023632  0.91253262  0.05147954  1
  Se  Se138  1  0.25667054  0.92139763  0.56396136  1
  Se  Se139  1  0.59518842  0.25398975  0.06095001  1
  Se  Se140  1  0.58264723  0.24533879  0.55213295  1
  Se  Se141  1  0.58144514  0.58437418  0.04963809  1
  Se  Se142  1  0.58724171  0.58807913  0.56814383  1
  Se  Se143  1  0.57676384  0.91522451  0.04963325  1
  Se  Se144  1  0.58495593  0.90903844  0.56044225  1
  Se  Se145  1  0.93005163  0.25715301  0.05787685  1
  Se  Se146  1  0.91621024  0.25299748  0.55627562  1
  Se  Se147  1  0.92486648  0.59049080  0.05266134  1
  Se  Se148  1  0.91277117  0.58919540  0.55425390  1
  Se  Se149  1  0.90999858  0.91528975  0.05059800  1
  Se  Se150  1  0.92829995  0.92238417  0.56190751  1
  Se  Se151  1  0.08608075  0.25833947  0.45254919  1
  Se  Se152  1  0.08419685  0.23936477  0.94274826  1
  Se  Se153  1  0.07863115  0.59662174  0.43737618  1
  Se  Se154  1  0.09190825  0.57699858  0.94634424  1
  Se  Se155  1  0.07192416  0.92962726  0.44360969  1
  Se  Se156  1  0.08551732  0.91019463  0.95134585  1
  Se  Se157  1  0.42178078  0.24338096  0.45063723  1
  Se  Se158  1  0.41093226  0.25451113  0.93566990  1
  Se  Se159  1  0.40860829  0.58432676  0.44736537  1
  Se  Se160  1  0.41689500  0.58669407  0.94694399  1
  Se  Se161  1  0.41365686  0.91177994  0.44254089  1
  Se  Se162  1  0.42165009  0.91576503  0.94538816  1
  Se  Se163  1  0.75383134  0.24548544  0.45043248  1
  Se  Se164  1  0.74584912  0.25161702  0.94081955  1
  Se  Se165  1  0.74951279  0.58643412  0.45254919  1
  Se  Se166  1  0.74510073  0.59535859  0.93047339  1
  Se  Se167  1  0.74146891  0.91904628  0.44072357  1
  Se  Se168  1  0.74935035  0.91321976  0.94459589  1
  Se  Se169  1  0.24933916  0.08037372  0.44896373  1
  Se  Se170  1  0.24964133  0.07860565  0.94613973  1
  Se  Se171  1  0.26122185  0.40719658  0.44206240  1
  Se  Se172  1  0.25603194  0.40606983  0.95088561  1
  Se  Se173  1  0.25293749  0.75354336  0.43727660  1
  Se  Se174  1  0.25036826  0.75446553  0.94426359  1
  Se  Se175  1  0.58235496  0.07608435  0.44669919  1
  Se  Se176  1  0.58791054  0.08380340  0.93697213  1
  Se  Se177  1  0.58863655  0.40834846  0.44146167  1
  Se  Se178  1  0.58087045  0.42118052  0.94702068  1
  Se  Se179  1  0.57757829  0.74837234  0.45384376  1
  Se  Se180  1  0.57856726  0.75385270  0.94430964  1
  Se  Se181  1  0.91035578  0.08718983  0.45984581  1
  Se  Se182  1  0.92035914  0.07208892  0.93522344  1
  Se  Se183  1  0.91546632  0.42211611  0.44748925  1
  Se  Se184  1  0.92237535  0.40884679  0.93557004  1
  Se  Se185  1  0.92133290  0.75080152  0.44072831  1
  Se  Se186  1  0.90537974  0.74484888  0.94753433  1
  Se  Se187  1  0.24918434  0.24704687  0.31438954  1
  Se  Se188  1  0.24213987  0.24422897  0.81136342  1
  Se  Se189  1  0.25757888  0.59296129  0.29702003  1
  Se  Se190  1  0.25097127  0.58265481  0.80546188  1
  Se  Se191  1  0.24123895  0.91856104  0.29680882  1
  Se  Se192  1  0.25418804  0.92005144  0.80450436  1
  Se  Se193  1  0.59102005  0.24426215  0.30158257  1
  Se  Se194  1  0.57974405  0.25378551  0.79858594  1
  Se  Se195  1  0.58089764  0.57744716  0.31402548  1
  Se  Se196  1  0.58178117  0.58882497  0.80395051  1
  Se  Se197  1  0.57182037  0.90261628  0.30772473  1
  Se  Se198  1  0.58635365  0.92168211  0.80576515  1
  Se  Se199  1  0.92346429  0.24674791  0.31675707  1
  Se  Se200  1  0.91452299  0.25117368  0.79715015  1
  Se  Se201  1  0.91860803  0.58919505  0.30320420  1
  Se  Se202  1  0.91492197  0.57765966  0.80253281  1
  Se  Se203  1  0.90548981  0.91053661  0.30586086  1
  Se  Se204  1  0.92373423  0.90694790  0.81642087  1
  Se  Se205  1  0.08813599  0.09644443  0.31229997  1
  Se  Se206  1  0.08748848  0.08204206  0.80877847  1
  Se  Se207  1  0.09543836  0.43415033  0.30350881  1
  Se  Se208  1  0.08057283  0.40950472  0.80476437  1
  Se  Se209  1  0.07977950  0.75280143  0.29686131  1
  Se  Se210  1  0.08516596  0.74731085  0.80767993  1
  Se  Se211  1  0.41519206  0.07850448  0.30176874  1
  Se  Se212  1  0.41466318  0.08380900  0.79747460  1
  Se  Se213  1  0.42770318  0.42189647  0.31365360  1
  Se  Se214  1  0.41777506  0.43090660  0.81341425  1
  Se  Se215  1  0.40604014  0.73648218  0.30407908  1
  Se  Se216  1  0.41520270  0.75198841  0.80444412  1
  Se  Se217  1  0.75741275  0.08781741  0.31554842  1
  Se  Se218  1  0.75176061  0.08467141  0.79711332  1
  Se  Se219  1  0.75477703  0.41598079  0.30591059  1
  Se  Se220  1  0.73946864  0.41240935  0.80188658  1
  Se  Se221  1  0.75174387  0.75140688  0.30695063  1
  Se  Se222  1  0.73724474  0.74514123  0.79993324  1
  Se  Se223  1  0.24574272  0.08415724  0.19721284  1
  Se  Se224  1  0.25042213  0.07895246  0.69987022  1
  Se  Se225  1  0.25087300  0.42535142  0.18672673  1
  Se  Se226  1  0.24092037  0.42405800  0.69056784  1
  Se  Se227  1  0.25311165  0.74897358  0.18997442  1
  Se  Se228  1  0.25239565  0.74675480  0.70157095  1
  Se  Se229  1  0.57817965  0.08874120  0.18981389  1
  Se  Se230  1  0.58580956  0.08100619  0.69441917  1
  Se  Se231  1  0.58863305  0.41675583  0.19795825  1
  Se  Se232  1  0.57665916  0.42013197  0.69896456  1
  Se  Se233  1  0.56811379  0.76139716  0.19220282  1
  Se  Se234  1  0.58410123  0.75218105  0.70172886  1
  Se  Se235  1  0.90992546  0.09529096  0.19761521  1
  Se  Se236  1  0.91370575  0.08964888  0.68499504  1
  Se  Se237  1  0.91456706  0.42789409  0.18678412  1
  Se  Se238  1  0.91341550  0.41579221  0.69733305  1
  Se  Se239  1  0.91710262  0.75127254  0.19185528  1
  Se  Se240  1  0.91530894  0.74567200  0.70621698  1
  Se  Se241  1  0.09750373  0.25662741  0.18572304  1
  Se  Se242  1  0.07910513  0.25016263  0.69899884  1
  Se  Se243  1  0.08194610  0.59263272  0.19105083  1
  Se  Se244  1  0.08140285  0.58197984  0.69973224  1
  Se  Se245  1  0.08449700  0.91290186  0.18141123  1
  Se  Se246  1  0.09351870  0.90320952  0.68909817  1
  Se  Se247  1  0.42634797  0.24108720  0.19258656  1
  Se  Se248  1  0.41521140  0.24578604  0.68883496  1
  Se  Se249  1  0.42112209  0.58165092  0.19304140  1
  Se  Se250  1  0.41151239  0.59342126  0.69971094  1
  Se  Se251  1  0.40511993  0.92444536  0.19821016  1
  Se  Se252  1  0.41759117  0.91828413  0.69815419  1
  Se  Se253  1  0.75064059  0.25818427  0.20465680  1
  Se  Se254  1  0.74384814  0.25367977  0.69170927  1
  Se  Se255  1  0.75796147  0.57609172  0.18758174  1
  Se  Se256  1  0.74532635  0.58220655  0.70040337  1
  Se  Se257  1  0.74760770  0.91358830  0.18865054  1
  Se  Se258  1  0.76519982  0.91123897  0.70670849  1
