# generated using pymatgen
data_In86Cu29Se144
_symmetry_space_group_name_H-M   'P 1'
_cell_length_a   17.59437398
_cell_length_b   17.59198832
_cell_length_c   23.46087319
_cell_angle_alpha   90.00658088
_cell_angle_beta   90.02342722
_cell_angle_gamma   90.00574848
_symmetry_Int_Tables_number   1
_chemical_formula_structural   In86Cu29Se144
_chemical_formula_sum   'In86 Cu29 Se144'
_cell_volume   7261.60928219
_cell_formula_units_Z   1
loop_
 _symmetry_equiv_pos_site_id
 _symmetry_equiv_pos_as_xyz
  1  'x, y, z'
loop_
 _atom_site_type_symbol
 _atom_site_label
 _atom_site_symmetry_multiplicity
 _atom_site_fract_x
 _atom_site_fract_y
 _atom_site_fract_z
 _atom_site_occupancy
  In  In0  1  0.00747234  0.17765023  0.11258959  1
  In  In1  1  -0.00016369  0.17038514  0.64110893  1
  In  In2  1  0.00015804  0.48652006  0.12710062  1
  In  In3  1  -0.00116109  0.49957700  0.62282058  1
  In  In4  1  0.00202430  0.83786511  0.11591413  1
  In  In5  1  0.01587770  0.81047920  0.65111838  1
  In  In6  1  0.33917087  0.17276864  0.11705599  1
  In  In7  1  0.32448086  0.16300122  0.62826154  1
  In  In8  1  0.32443918  0.51032734  0.13438742  1
  In  In9  1  0.32720447  0.49593828  0.60194854  1
  In  In10  1  0.32247292  0.82899765  0.12612813  1
  In  In11  1  0.33261417  0.83550901  0.62997083  1
  In  In12  1  0.66607651  0.16965777  0.12259751  1
  In  In13  1  0.67939973  0.16984813  0.62581436  1
  In  In14  1  0.66305249  0.50296781  0.13432425  1
  In  In15  1  0.67368055  0.49605516  0.61961338  1
  In  In16  1  0.67882391  0.82526851  0.12733772  1
  In  In17  1  0.66260895  0.81180058  0.63160904  1
  In  In18  1  0.16420710  -0.00441464  0.37536702  1
  In  In19  1  0.16400273  -0.00005788  0.87535466  1
  In  In20  1  0.18043675  0.35238116  0.35904619  1
  In  In21  1  0.15691062  0.34286110  0.88075566  1
  In  In22  1  0.20046914  0.62407621  0.42242057  1
  In  In23  1  0.16180418  0.67402569  0.88141937  1
  In  In24  1  0.50316341  -0.01480115  0.37188059  1
  In  In25  1  0.50645907  0.01249923  0.87447645  1
  In  In26  1  0.50239055  0.33951745  0.37217841  1
  In  In27  1  0.50091664  0.32372042  0.87593008  1
  In  In28  1  0.49537759  0.65450459  0.36814631  1
  In  In29  1  0.50455361  0.65829576  0.86840888  1
  In  In30  1  0.83305591  0.00743680  0.37031033  1
  In  In31  1  0.84384152  -0.00786258  0.88069225  1
  In  In32  1  0.83554578  0.33858400  0.36962295  1
  In  In33  1  0.83071847  0.33115089  0.87219902  1
  In  In34  1  0.81829414  0.66409094  0.37537466  1
  In  In35  1  0.85328256  0.68631742  0.85464365  1
  In  In36  1  -0.00947387  0.17189783  0.37371560  1
  In  In37  1  0.00142260  0.17010331  0.87627657  1
  In  In38  1  0.01299229  0.49506802  0.38897565  1
  In  In39  1  0.01614358  0.50727678  0.86115231  1
  In  In40  1  0.01746740  0.82374623  0.38591837  1
  In  In41  1  -0.00133985  0.83903684  0.87185619  1
  In  In42  1  0.32222760  0.17480033  0.36923589  1
  In  In43  1  0.33940983  0.16120655  0.88113472  1
  In  In44  1  0.34072221  0.49439469  0.38159630  1
  In  In45  1  0.32690008  0.48962573  0.87366514  1
  In  In46  1  0.33798589  0.80554230  0.38106461  1
  In  In47  1  0.31565227  0.82587147  0.87554494  1
  In  In48  1  0.67284453  0.17230595  0.36374429  1
  In  In49  1  0.66042273  0.17628372  0.88166595  1
  In  In50  1  0.65880789  0.49103848  0.37792068  1
  In  In51  1  0.67319965  0.51000367  0.86269048  1
  In  In52  1  0.66567245  0.83000287  0.36491596  1
  In  In53  1  0.68271644  0.83831002  0.86896201  1
  In  In54  1  0.15825219  -0.00416552  0.11684285  1
  In  In55  1  0.17224767  -0.00930710  0.63886908  1
  In  In56  1  0.16651281  0.33836805  0.12517015  1
  In  In57  1  0.16022218  0.33857863  0.62575183  1
  In  In58  1  0.16986447  0.67383025  0.12205903  1
  In  In59  1  0.13818893  0.65089236  0.60377044  1
  In  In60  1  0.50203010  0.01574757  0.11964639  1
  In  In61  1  0.49548276  -0.02364003  0.63425541  1
  In  In62  1  0.50534734  0.32796088  0.13094908  1
  In  In63  1  0.50486420  0.35041182  0.61492016  1
  In  In64  1  0.50408488  0.65911281  0.13221591  1
  In  In65  1  0.50073360  0.66487701  0.62103336  1
  In  In66  1  0.82718338  -0.00244221  0.11632628  1
  In  In67  1  0.83683308  0.00686599  0.63429416  1
  In  In68  1  0.83844896  0.32689965  0.12868332  1
  In  In69  1  0.82498104  0.34539054  0.63198034  1
  In  In70  1  0.82571639  0.66910379  0.12439430  1
  In  In71  1  0.86523383  0.64502407  0.64239476  1
  In  In72  1  -0.00273597  0.00115113  0.24473351  1
  In  In73  1  0.33138112  0.33575721  0.74039330  1
  In  In74  1  0.49664983  0.82433147  0.50563845  1
  In  In75  1  0.16639150  0.17625292  0.50378407  1
  In  In76  1  0.49781830  0.49651673  0.00725957  1
  In  In77  1  0.83581822  0.17593490  0.49501141  1
  In  In78  1  0.33011153  0.66748420  0.74601843  1
  In  In79  1  0.83860519  0.82842574  0.51334515  1
  In  In80  1  0.49797459  0.83879374  -0.00110862  1
  In  In81  1  0.00200323  0.66361975  0.26017133  1
  In  In82  1  0.33756739  0.00125836  0.24087513  1
  In  In83  1  0.49964673  0.16931745  0.49705229  1
  In  In84  1  0.83597064  0.50073650  -0.00036443  1
  In  In85  1  0.66554121  0.00118714  0.75471299  1
  Cu  Cu86  1  0.00072439  0.66835793  -0.00848020  1
  Cu  Cu87  1  0.50426218  0.17042797  0.75245844  1
  Cu  Cu88  1  0.83510861  0.49164297  0.74642824  1
  Cu  Cu89  1  0.00169894  0.33638642  0.50078274  1
  Cu  Cu90  1  0.49786691  0.49782251  0.25444773  1
  Cu  Cu91  1  0.82412242  0.49776910  0.25207338  1
  Cu  Cu92  1  0.66375093  0.65489639  0.49874625  1
  Cu  Cu93  1  0.16070053  0.17714817  0.24145587  1
  Cu  Cu94  1  0.66884799  -0.00661767  0.49412630  1
  Cu  Cu95  1  0.83787570  0.17055853  0.75599201  1
  Cu  Cu96  1  0.16988385  0.16702615  0.75714365  1
  Cu  Cu97  1  0.67913427  0.67489769  -0.00519037  1
  Cu  Cu98  1  0.66987694  0.00802884  -0.00351013  1
  Cu  Cu99  1  -0.00176119  0.00216028  -0.00644053  1
  Cu  Cu100  1  0.32677734  0.32993156  0.00048942  1
  Cu  Cu101  1  0.51139150  0.83169526  0.24763325  1
  Cu  Cu102  1  0.16789874  0.50510912  0.26067635  1
  Cu  Cu103  1  0.66232656  0.33404042  0.00053238  1
  Cu  Cu104  1  0.49859046  0.16967010  0.24451074  1
  Cu  Cu105  1  0.16403993  0.83109087  0.75399122  1
  Cu  Cu106  1  0.32921131  -0.00156839  0.50924049  1
  Cu  Cu107  1  0.00186047  0.33507567  -0.00108356  1
  Cu  Cu108  1  0.82862835  0.16949988  0.24644562  1
  Cu  Cu109  1  0.32757212  0.66132610  0.00275514  1
  Cu  Cu110  1  0.17934368  0.82413164  0.25397699  1
  Cu  Cu111  1  0.32354581  -0.00020018  -0.00082942  1
  Cu  Cu112  1  0.01052793  -0.00319265  0.50940381  1
  Cu  Cu113  1  0.83734943  0.83690590  0.24938683  1
  Cu  Cu114  1  0.50680433  0.49924387  0.74095225  1
  Se  Se115  1  0.08283874  0.08330989  0.04882457  1
  Se  Se116  1  0.08265860  0.08498597  0.56754803  1
  Se  Se117  1  0.08430317  0.41935490  0.05247650  1
  Se  Se118  1  0.08670744  0.41959016  0.55211301  1
  Se  Se119  1  0.08257514  0.74886053  0.05183607  1
  Se  Se120  1  0.06745262  0.76320505  0.55603108  1
  Se  Se121  1  0.41256264  0.08212261  0.04815254  1
  Se  Se122  1  0.41792257  0.07429078  0.56329471  1
  Se  Se123  1  0.40482186  0.40953915  0.06489549  1
  Se  Se124  1  0.42194112  0.41861475  0.54129510  1
  Se  Se125  1  0.41510828  0.73979751  0.05916903  1
  Se  Se126  1  0.39719847  0.73803577  0.55693660  1
  Se  Se127  1  0.75157967  0.09130125  0.05183662  1
  Se  Se128  1  0.74945646  0.07419034  0.55268560  1
  Se  Se129  1  0.74156174  0.41575603  0.06043336  1
  Se  Se130  1  0.75569497  0.41245873  0.55117753  1
  Se  Se131  1  0.76057242  0.75686918  0.04969461  1
  Se  Se132  1  0.74427193  0.73190088  0.56078399  1
  Se  Se133  1  0.24269464  0.24883763  0.05542153  1
  Se  Se134  1  0.26285564  0.26389203  0.55934352  1
  Se  Se135  1  0.24472723  0.57891038  0.05629651  1
  Se  Se136  1  0.24617786  0.59169818  0.54260319  1
  Se  Se137  1  0.24811002  0.91232488  0.05436391  1
  Se  Se138  1  0.24641265  0.91609998  0.56120097  1
  Se  Se139  1  0.57858576  0.25125215  0.05384819  1
  Se  Se140  1  0.59507801  0.25302724  0.55613926  1
  Se  Se141  1  0.59726051  0.59362212  0.05411095  1
  Se  Se142  1  0.58020497  0.57769741  0.55547750  1
  Se  Se143  1  0.59371317  0.92315514  0.05861387  1
  Se  Se144  1  0.59397165  0.91738958  0.55899468  1
  Se  Se145  1  0.91198841  0.25499258  0.04927050  1
  Se  Se146  1  0.92596452  0.25418940  0.56246587  1
  Se  Se147  1  0.92698920  0.59164248  0.06027124  1
  Se  Se148  1  0.90944132  0.57490798  0.55362372  1
  Se  Se149  1  0.91660911  0.91878412  0.05015634  1
  Se  Se150  1  0.92611857  0.92338392  0.56913525  1
  Se  Se151  1  0.07988299  0.25875369  0.43649106  1
  Se  Se152  1  0.08568887  0.24927596  0.94779757  1
  Se  Se153  1  0.06206396  0.59909895  0.45563726  1
  Se  Se154  1  0.08294622  0.57908940  0.94447696  1
  Se  Se155  1  0.09083256  0.91856796  0.45127363  1
  Se  Se156  1  0.08264161  0.91518328  0.94442676  1
  Se  Se157  1  0.40525951  0.25510038  0.43981477  1
  Se  Se158  1  0.41701635  0.25238882  0.94863769  1
  Se  Se159  1  0.41099533  0.59556213  0.44472539  1
  Se  Se160  1  0.41056962  0.58649501  0.94199406  1
  Se  Se161  1  0.40786597  0.92033171  0.44449689  1
  Se  Se162  1  0.40651146  0.92362067  0.93681724  1
  Se  Se163  1  0.73844948  0.26059466  0.44028685  1
  Se  Se164  1  0.75051220  0.25591613  0.94731563  1
  Se  Se165  1  0.74742258  0.57440729  0.44446227  1
  Se  Se166  1  0.75560188  0.59256275  0.93473838  1
  Se  Se167  1  0.75276246  0.91364137  0.43867509  1
  Se  Se168  1  0.74945579  0.91757395  0.94728413  1
  Se  Se169  1  0.25587504  0.07918482  0.44474386  1
  Se  Se170  1  0.24485373  0.08597501  0.94496920  1
  Se  Se171  1  0.24310723  0.41568453  0.44387146  1
  Se  Se172  1  0.24807964  0.41886553  0.94935653  1
  Se  Se173  1  0.22898639  0.76718925  0.44488078  1
  Se  Se174  1  0.24618018  0.75053878  0.95394623  1
  Se  Se175  1  0.59090713  0.07599559  0.43655137  1
  Se  Se176  1  0.57981166  0.09014802  0.95026918  1
  Se  Se177  1  0.56621730  0.42349381  0.44872691  1
  Se  Se178  1  0.59000643  0.41996965  0.93889754  1
  Se  Se179  1  0.59028496  0.74435399  0.44024146  1
  Se  Se180  1  0.58645146  0.74660325  0.93928990  1
  Se  Se181  1  0.92891492  0.07152239  0.44642496  1
  Se  Se182  1  0.91457302  0.08938562  0.94505856  1
  Se  Se183  1  0.91445515  0.41264078  0.44517118  1
  Se  Se184  1  0.92611946  0.41727580  0.93639128  1
  Se  Se185  1  0.91529188  0.74282668  0.44172430  1
  Se  Se186  1  0.91588542  0.75183796  0.94139550  1
  Se  Se187  1  0.25029725  0.25408686  0.29408141  1
  Se  Se188  1  0.25316205  0.25096287  0.81212033  1
  Se  Se189  1  0.24780813  0.58332365  0.32103579  1
  Se  Se190  1  0.24332380  0.58061678  0.81061116  1
  Se  Se191  1  0.25650524  0.91323258  0.30956339  1
  Se  Se192  1  0.24745361  0.91630662  0.80538419  1
  Se  Se193  1  0.57875298  0.25106293  0.30289380  1
  Se  Se194  1  0.58786337  0.25412382  0.80322803  1
  Se  Se195  1  0.58800831  0.57976578  0.30348495  1
  Se  Se196  1  0.58551897  0.58690854  0.79360186  1
  Se  Se197  1  0.59030685  0.92172817  0.29745124  1
  Se  Se198  1  0.57283248  0.90859733  0.80992420  1
  Se  Se199  1  0.91446103  0.24966115  0.30077282  1
  Se  Se200  1  0.92282336  0.25604235  0.80557805  1
  Se  Se201  1  0.90831055  0.57193416  0.31367159  1
  Se  Se202  1  0.91856333  0.57846890  0.79730585  1
  Se  Se203  1  0.92067084  0.90717813  0.31354148  1
  Se  Se204  1  0.90207969  0.90615846  0.80398236  1
  Se  Se205  1  0.09014393  0.09251905  0.30556795  1
  Se  Se206  1  0.08225995  0.08472913  0.80700552  1
  Se  Se207  1  0.07345767  0.42219181  0.30305467  1
  Se  Se208  1  0.09173695  0.41226718  0.79850677  1
  Se  Se209  1  0.10068226  0.74599613  0.31489539  1
  Se  Se210  1  0.08086402  0.74717419  0.80684060  1
  Se  Se211  1  0.42280020  0.08858903  0.30936890  1
  Se  Se212  1  0.41981021  0.08844848  0.80455131  1
  Se  Se213  1  0.41138888  0.41381898  0.30362218  1
  Se  Se214  1  0.42689377  0.42172594  0.80426583  1
  Se  Se215  1  0.42485557  0.75278656  0.30181161  1
  Se  Se216  1  0.41784782  0.75410114  0.81078199  1
  Se  Se217  1  0.74976914  0.08020211  0.29820556  1
  Se  Se218  1  0.75401975  0.09099923  0.81542966  1
  Se  Se219  1  0.74180980  0.41257910  0.30430818  1
  Se  Se220  1  0.74907497  0.41365317  0.80203626  1
  Se  Se221  1  0.75340070  0.74962827  0.29899886  1
  Se  Se222  1  0.73040546  0.73086053  0.80474169  1
  Se  Se223  1  0.23892873  0.08807274  0.18621939  1
  Se  Se224  1  0.25262017  0.08344671  0.70258069  1
  Se  Se225  1  0.24336168  0.42155861  0.19913368  1
  Se  Se226  1  0.24571884  0.43545827  0.68780682  1
  Se  Se227  1  0.25710970  0.73891011  0.19870807  1
  Se  Se228  1  0.23319510  0.74896628  0.68707182  1
  Se  Se229  1  0.58381217  0.08595848  0.19412540  1
  Se  Se230  1  0.57785216  0.08799679  0.68713372  1
  Se  Se231  1  0.58178500  0.41611815  0.19904048  1
  Se  Se232  1  0.59003148  0.41304436  0.69140488  1
  Se  Se233  1  0.59131728  0.74555142  0.19404484  1
  Se  Se234  1  0.54962081  0.76713876  0.69100161  1
  Se  Se235  1  0.91195230  0.09275830  0.18448977  1
  Se  Se236  1  0.91895894  0.08216639  0.70638387  1
  Se  Se237  1  0.91058678  0.41843267  0.19785666  1
  Se  Se238  1  0.92530713  0.41117053  0.69588786  1
  Se  Se239  1  0.91954465  0.75549250  0.19167231  1
  Se  Se240  1  0.89586555  0.76395242  0.70204049  1
  Se  Se241  1  0.07386884  0.25811737  0.19118566  1
  Se  Se242  1  0.09296400  0.25289670  0.70054423  1
  Se  Se243  1  0.08827469  0.57835507  0.19252596  1
  Se  Se244  1  0.07691062  0.58923756  0.69084985  1
  Se  Se245  1  0.09429663  0.90344932  0.19611889  1
  Se  Se246  1  0.07857447  0.92150781  0.70702134  1
  Se  Se247  1  0.41016283  0.25045418  0.19470112  1
  Se  Se248  1  0.42843381  0.24622793  0.68501735  1
  Se  Se249  1  0.41667893  0.58456225  0.20099362  1
  Se  Se250  1  0.41384070  0.56998693  0.68541049  1
  Se  Se251  1  0.43011097  0.90756531  0.18413873  1
  Se  Se252  1  0.40114499  0.91982659  0.70462258  1
  Se  Se253  1  0.74417848  0.25390337  0.19449481  1
  Se  Se254  1  0.75329587  0.24915221  0.69941844  1
  Se  Se255  1  0.75086986  0.58772435  0.19724914  1
  Se  Se256  1  0.75205302  0.57742632  0.69327661  1
  Se  Se257  1  0.75530288  0.91827670  0.19364242  1
  Se  Se258  1  0.74852862  0.91006387  0.69101973  1
