# generated using pymatgen
data_In86Cu29Se144
_symmetry_space_group_name_H-M   'P 1'
_cell_length_a   17.57843156
_cell_length_b   17.57732055
_cell_length_c   23.44231433
_cell_angle_alpha   89.96675319
_cell_angle_beta   89.98400346
_cell_angle_gamma   90.00328212
_symmetry_Int_Tables_number   1
_chemical_formula_structural   In86Cu29Se144
_chemical_formula_sum   'In86 Cu29 Se144'
_cell_volume   7243.24523286
_cell_formula_units_Z   1
loop_
 _symmetry_equiv_pos_site_id
 _symmetry_equiv_pos_as_xyz
  1  'x, y, z'
loop_
 _atom_site_type_symbol
 _atom_site_label
 _atom_site_symmetry_multiplicity
 _atom_site_fract_x
 _atom_site_fract_y
 _atom_site_fract_z
 _atom_site_occupancy
  In  In0  1  0.01344648  0.16887929  0.12491930  1
  In  In1  1  0.00044321  0.16391540  0.62038709  1
  In  In2  1  -0.01630480  0.49807154  0.12708763  1
  In  In3  1  0.00239458  0.46936416  0.62038552  1
  In  In4  1  0.01157818  0.82970601  0.12478706  1
  In  In5  1  0.00897259  0.84926980  0.61694588  1
  In  In6  1  0.32539089  0.15822615  0.11941230  1
  In  In7  1  0.32561987  0.17200596  0.63060013  1
  In  In8  1  0.34007269  0.49952407  0.13274368  1
  In  In9  1  0.31683802  0.48637168  0.60930543  1
  In  In10  1  0.33330577  0.83427388  0.12567639  1
  In  In11  1  0.33063240  0.84725011  0.62724277  1
  In  In12  1  0.64593836  0.18300181  0.14159000  1
  In  In13  1  0.65998240  0.15338727  0.62240010  1
  In  In14  1  0.67694828  0.48748696  0.13655986  1
  In  In15  1  0.66434387  0.50557833  0.61708555  1
  In  In16  1  0.65072412  0.85097079  0.13811930  1
  In  In17  1  0.67591967  0.83973825  0.62003971  1
  In  In18  1  0.17037434  -0.00041566  0.38125566  1
  In  In19  1  0.16919271  0.00234039  0.87428343  1
  In  In20  1  0.15302807  0.34399131  0.38575351  1
  In  In21  1  0.15798789  0.31730003  0.86689960  1
  In  In22  1  0.17721906  0.66949114  0.37372797  1
  In  In23  1  0.17944329  0.66825653  0.87788132  1
  In  In24  1  0.49306422  0.01008843  0.36039279  1
  In  In25  1  0.50047546  0.00371920  0.87824447  1
  In  In26  1  0.52787191  0.33371086  0.37382768  1
  In  In27  1  0.48377226  0.33744215  0.87448956  1
  In  In28  1  0.48687846  0.66077908  0.36491201  1
  In  In29  1  0.51545038  0.67175848  0.88322758  1
  In  In30  1  0.83071575  0.00869456  0.38265039  1
  In  In31  1  0.84281626  0.01967309  0.85510467  1
  In  In32  1  0.82481404  0.32639193  0.37781264  1
  In  In33  1  0.84547442  0.32269631  0.87685972  1
  In  In34  1  0.83794095  0.68010470  0.37549776  1
  In  In35  1  0.82062591  0.66640774  0.88055804  1
  In  In36  1  -0.00831250  0.18058647  0.39228116  1
  In  In37  1  0.00623750  0.17719524  0.86624668  1
  In  In38  1  0.01976813  0.49227095  0.37941841  1
  In  In39  1  0.00401692  0.47845357  0.87222861  1
  In  In40  1  0.00319720  0.82888009  0.38514829  1
  In  In41  1  -0.00219725  0.85098028  0.87298315  1
  In  In42  1  0.33620693  0.15238812  0.37181707  1
  In  In43  1  0.33275891  0.16254961  0.87520238  1
  In  In44  1  0.32273885  0.51235458  0.37634521  1
  In  In45  1  0.33997122  0.49253798  0.87167677  1
  In  In46  1  0.32179076  0.83741190  0.36294683  1
  In  In47  1  0.32370727  0.84778514  0.88574677  1
  In  In48  1  0.67640867  0.17932263  0.35799563  1
  In  In49  1  0.67375457  0.15544911  0.87693048  1
  In  In50  1  0.65536136  0.49060071  0.37072478  1
  In  In51  1  0.66479638  0.51026819  0.88162402  1
  In  In52  1  0.67263772  0.84370973  0.36534262  1
  In  In53  1  0.65938086  0.84146751  0.88346904  1
  In  In54  1  0.17621129  0.00347518  0.12264407  1
  In  In55  1  0.16651755  0.00128433  0.62476928  1
  In  In56  1  0.17204780  0.31797841  0.13078141  1
  In  In57  1  0.16306657  0.32651368  0.61462319  1
  In  In58  1  0.16979834  0.68034755  0.13092566  1
  In  In59  1  0.16409128  0.66556270  0.61583149  1
  In  In60  1  0.50076473  0.00310208  0.12030615  1
  In  In61  1  0.49268478  0.00111288  0.63648249  1
  In  In62  1  0.51330007  0.33146294  0.12423907  1
  In  In63  1  0.48645582  0.32331306  0.62081895  1
  In  In64  1  0.48764916  0.67837604  0.13686375  1
  In  In65  1  0.51068450  0.66204333  0.62244685  1
  In  In66  1  0.82757656  -0.00748743  0.12585036  1
  In  In67  1  0.83492466  0.00737632  0.62184495  1
  In  In68  1  0.81807908  0.34179823  0.13189176  1
  In  In69  1  0.85079695  0.32324173  0.62426696  1
  In  In70  1  0.83533267  0.64970361  0.12926971  1
  In  In71  1  0.82103437  0.67041579  0.61869720  1
  In  In72  1  0.67148834  0.32587931  0.74787341  1
  In  In73  1  0.49323306  0.83122965  0.49397795  1
  In  In74  1  0.16272783  0.49950527  0.00203879  1
  In  In75  1  0.50253822  0.50207119  0.00747237  1
  In  In76  1  0.00246140  0.00207924  0.24849186  1
  In  In77  1  -0.00150807  0.66632881  0.74245852  1
  In  In78  1  0.50355325  0.16783460  0.49499011  1
  In  In79  1  0.33330386  0.33381051  0.25334842  1
  In  In80  1  0.33773608  0.66561257  0.75401689  1
  In  In81  1  0.83552807  0.49991006  0.50130085  1
  In  In82  1  0.83054747  0.16796142  -0.00331073  1
  In  In83  1  0.66670201  0.67186713  0.75258660  1
  In  In84  1  0.00671765  0.66063987  0.25808463  1
  In  In85  1  0.82889212  0.83199509  0.00106783  1
  Cu  Cu86  1  0.33625449  0.67541327  0.00487220  1
  Cu  Cu87  1  0.50213136  0.50045067  0.25162311  1
  Cu  Cu88  1  0.01313104  0.00125892  -0.00239260  1
  Cu  Cu89  1  0.49705414  0.16325905  0.75256362  1
  Cu  Cu90  1  0.16027937  0.16991160  0.25351785  1
  Cu  Cu91  1  0.17049847  0.16172978  0.74599152  1
  Cu  Cu92  1  -0.00231813  0.33025811  -0.00283811  1
  Cu  Cu93  1  0.33343169  0.67048859  0.49150404  1
  Cu  Cu94  1  0.16755638  0.48098142  0.74196511  1
  Cu  Cu95  1  0.49013160  0.49124332  0.74329629  1
  Cu  Cu96  1  0.49990357  0.84146704  0.75903956  1
  Cu  Cu97  1  0.00092386  0.66875214  0.49966787  1
  Cu  Cu98  1  0.83330439  0.16593432  0.25737030  1
  Cu  Cu99  1  0.16559702  0.83669208  0.75120410  1
  Cu  Cu100  1  0.33735869  -0.00226513  -0.00042722  1
  Cu  Cu101  1  0.66064919  0.66635320  0.49412347  1
  Cu  Cu102  1  0.83843708  0.49391456  0.75372835  1
  Cu  Cu103  1  0.32662088  0.00161581  0.50024448  1
  Cu  Cu104  1  0.66842474  -0.00349702  0.49656640  1
  Cu  Cu105  1  0.00138491  0.66483752  0.00693416  1
  Cu  Cu106  1  0.49687867  0.83694628  0.24781452  1
  Cu  Cu107  1  -0.00082451  -0.00015293  0.50338191  1
  Cu  Cu108  1  0.33712851  0.33468006  0.49663830  1
  Cu  Cu109  1  0.66962712  0.66621043  0.01200307  1
  Cu  Cu110  1  0.83084293  0.49271931  0.25467492  1
  Cu  Cu111  1  0.83534189  0.83097800  0.25302991  1
  Cu  Cu112  1  0.66588816  0.00177664  0.00064907  1
  Cu  Cu113  1  0.32682343  0.32304014  -0.00231886  1
  Cu  Cu114  1  0.83389367  0.84730419  0.74345413  1
  Se  Se115  1  0.08950541  0.08531514  0.05461955  1
  Se  Se116  1  0.08806312  0.08199917  0.55237136  1
  Se  Se117  1  0.07658777  0.40701447  0.06222217  1
  Se  Se118  1  0.09974860  0.42717218  0.54707520  1
  Se  Se119  1  0.08886368  0.74869133  0.05269632  1
  Se  Se120  1  0.08396551  0.75487195  0.55184507  1
  Se  Se121  1  0.41748618  0.08573712  0.05136111  1
  Se  Se122  1  0.41316760  0.07877222  0.55885225  1
  Se  Se123  1  0.40485665  0.40613890  0.05773781  1
  Se  Se124  1  0.42179270  0.41689797  0.55014002  1
  Se  Se125  1  0.42308091  0.75529752  0.05594611  1
  Se  Se126  1  0.40831764  0.74356558  0.56178757  1
  Se  Se127  1  0.74400862  0.08176824  0.06172755  1
  Se  Se128  1  0.74739480  0.08365716  0.55009984  1
  Se  Se129  1  0.74768173  0.41957434  0.05527845  1
  Se  Se130  1  0.74994867  0.40757743  0.56246545  1
  Se  Se131  1  0.74692073  0.75027452  0.07196062  1
  Se  Se132  1  0.74306397  0.75087899  0.54705774  1
  Se  Se133  1  0.24126431  0.24378770  0.05146023  1
  Se  Se134  1  0.25814388  0.24708476  0.55032453  1
  Se  Se135  1  0.25879522  0.58620885  0.05964183  1
  Se  Se136  1  0.24942849  0.58789090  0.54701197  1
  Se  Se137  1  0.25183624  0.91568842  0.05332694  1
  Se  Se138  1  0.24669462  0.91464646  0.55316823  1
  Se  Se139  1  0.58562388  0.24650340  0.05388034  1
  Se  Se140  1  0.59190036  0.25751522  0.55701633  1
  Se  Se141  1  0.58650769  0.58926670  0.07256166  1
  Se  Se142  1  0.57928254  0.58114661  0.54596832  1
  Se  Se143  1  0.58471869  0.91464781  0.05214922  1
  Se  Se144  1  0.57893615  0.92452717  0.55669394  1
  Se  Se145  1  0.91813893  0.25470832  0.06216938  1
  Se  Se146  1  0.93101976  0.25570563  0.54887862  1
  Se  Se147  1  0.91341670  0.57975340  0.05089365  1
  Se  Se148  1  0.92662098  0.58820038  0.56459612  1
  Se  Se149  1  0.92855307  0.92302868  0.05658549  1
  Se  Se150  1  0.90977596  0.91599811  0.55199743  1
  Se  Se151  1  0.09159908  0.24732532  0.45515290  1
  Se  Se152  1  0.08264401  0.24651959  0.94619423  1
  Se  Se153  1  0.08584881  0.59332746  0.44228563  1
  Se  Se154  1  0.07442259  0.58799981  0.93698521  1
  Se  Se155  1  0.08416086  0.91851391  0.44875076  1
  Se  Se156  1  0.09001268  0.91278169  0.94447431  1
  Se  Se157  1  0.41463551  0.25743219  0.43316794  1
  Se  Se158  1  0.41611306  0.24692844  0.94507600  1
  Se  Se159  1  0.41826772  0.58398049  0.44430978  1
  Se  Se160  1  0.41020318  0.59068187  0.94242044  1
  Se  Se161  1  0.40966249  0.92836197  0.43708893  1
  Se  Se162  1  0.42475376  0.91439806  0.94857108  1
  Se  Se163  1  0.73954673  0.24352971  0.44338805  1
  Se  Se164  1  0.73838590  0.26190720  0.94226794  1
  Se  Se165  1  0.74732148  0.58754038  0.43744932  1
  Se  Se166  1  0.74875327  0.58392366  0.95465692  1
  Se  Se167  1  0.75135745  0.91178536  0.44428840  1
  Se  Se168  1  0.75683355  0.93371229  0.93837634  1
  Se  Se169  1  0.24872850  0.09050776  0.44833616  1
  Se  Se170  1  0.25159615  0.08095701  0.94633871  1
  Se  Se171  1  0.25271760  0.42009083  0.44573903  1
  Se  Se172  1  0.25037167  0.41013462  0.93865855  1
  Se  Se173  1  0.25246051  0.75991691  0.44258709  1
  Se  Se174  1  0.24830777  0.75265924  0.95078939  1
  Se  Se175  1  0.58769806  0.07391616  0.43531829  1
  Se  Se176  1  0.58356128  0.08705416  0.94786265  1
  Se  Se177  1  0.58830639  0.41711063  0.45166940  1
  Se  Se178  1  0.58372210  0.41220143  0.94162646  1
  Se  Se179  1  0.58494976  0.74763407  0.43194918  1
  Se  Se180  1  0.59127269  0.75166071  0.95598697  1
  Se  Se181  1  0.91321411  0.08493442  0.45360214  1
  Se  Se182  1  0.92637143  0.07845219  0.93973006  1
  Se  Se183  1  0.92271152  0.40996742  0.44177838  1
  Se  Se184  1  0.91483361  0.41628810  0.94663455  1
  Se  Se185  1  0.91285729  0.75315066  0.45315582  1
  Se  Se186  1  0.92484947  0.74506433  0.94082106  1
  Se  Se187  1  0.24155451  0.24789333  0.31531340  1
  Se  Se188  1  0.25274493  0.24502954  0.80230846  1
  Se  Se189  1  0.24628329  0.58472366  0.30004003  1
  Se  Se190  1  0.23905070  0.56785150  0.80388461  1
  Se  Se191  1  0.25715176  0.94239366  0.30306109  1
  Se  Se192  1  0.25180030  0.91665652  0.80468780  1
  Se  Se193  1  0.56322063  0.23150337  0.30043436  1
  Se  Se194  1  0.57576794  0.24656560  0.81195590  1
  Se  Se195  1  0.58579013  0.58574903  0.30317204  1
  Se  Se196  1  0.56941035  0.57388718  0.80389150  1
  Se  Se197  1  0.58037454  0.92002196  0.30080947  1
  Se  Se198  1  0.58855789  0.92200688  0.80866155  1
  Se  Se199  1  0.91626823  0.24826381  0.31096190  1
  Se  Se200  1  0.90832773  0.24305117  0.80002414  1
  Se  Se201  1  0.91154849  0.57200446  0.31592319  1
  Se  Se202  1  0.91201915  0.58180419  0.81245369  1
  Se  Se203  1  0.91592729  0.91163690  0.31226379  1
  Se  Se204  1  0.92386662  0.92389439  0.79560810  1
  Se  Se205  1  0.07942972  0.09280109  0.31619022  1
  Se  Se206  1  0.08633618  0.08362538  0.80441892  1
  Se  Se207  1  0.08425364  0.41171203  0.30253727  1
  Se  Se208  1  0.07995232  0.40408218  0.79689013  1
  Se  Se209  1  0.09131222  0.76397775  0.30741565  1
  Se  Se210  1  0.08816374  0.75119465  0.80929192  1
  Se  Se211  1  0.41077221  0.08878283  0.29082943  1
  Se  Se212  1  0.41472968  0.07837376  0.80614028  1
  Se  Se213  1  0.42385752  0.42130080  0.31532617  1
  Se  Se214  1  0.40694888  0.40934925  0.79608971  1
  Se  Se215  1  0.41193695  0.75427832  0.30032817  1
  Se  Se216  1  0.42412292  0.75518562  0.81759190  1
  Se  Se217  1  0.75166050  0.07425792  0.30297455  1
  Se  Se218  1  0.74361405  0.08947786  0.79525850  1
  Se  Se219  1  0.74539414  0.40940662  0.30650330  1
  Se  Se220  1  0.75039090  0.42291270  0.81341579  1
  Se  Se221  1  0.74961862  0.74648012  0.30232667  1
  Se  Se222  1  0.75901075  0.76651188  0.80812992  1
  Se  Se223  1  0.24355762  0.09016930  0.19751132  1
  Se  Se224  1  0.25498546  0.07571308  0.69588811  1
  Se  Se225  1  0.23951243  0.42325064  0.19427362  1
  Se  Se226  1  0.25269219  0.40391786  0.68681757  1
  Se  Se227  1  0.26129069  0.74690152  0.19840938  1
  Se  Se228  1  0.24314942  0.75107734  0.69301923  1
  Se  Se229  1  0.60210562  0.06020271  0.18960492  1
  Se  Se230  1  0.58234814  0.08199660  0.69997394  1
  Se  Se231  1  0.58249443  0.41181383  0.20123004  1
  Se  Se232  1  0.58053680  0.41858016  0.68741754  1
  Se  Se233  1  0.58534855  0.74905540  0.20197349  1
  Se  Se234  1  0.57517314  0.76312563  0.69300211  1
  Se  Se235  1  0.90905637  0.09206554  0.18900575  1
  Se  Se236  1  0.92839369  0.07436130  0.69055026  1
  Se  Se237  1  0.91443558  0.41160730  0.19982249  1
  Se  Se238  1  0.91815179  0.41063096  0.69957620  1
  Se  Se239  1  0.91603122  0.75242577  0.19256059  1
  Se  Se240  1  0.90764335  0.75884056  0.68510892  1
  Se  Se241  1  0.07700919  0.25416640  0.20199970  1
  Se  Se242  1  0.08903945  0.24466507  0.68955248  1
  Se  Se243  1  0.08656594  0.57641820  0.18713188  1
  Se  Se244  1  0.08915552  0.57107120  0.68755182  1
  Se  Se245  1  0.09592241  0.91040563  0.19437066  1
  Se  Se246  1  0.08358607  0.91884897  0.69635986  1
  Se  Se247  1  0.41473538  0.24853640  0.18485669  1
  Se  Se248  1  0.41590693  0.24839890  0.69889543  1
  Se  Se249  1  0.41436629  0.58363564  0.20322737  1
  Se  Se250  1  0.41562442  0.57728802  0.68407728  1
  Se  Se251  1  0.41749949  0.92080988  0.19084723  1
  Se  Se252  1  0.41105601  0.91598877  0.70390746  1
  Se  Se253  1  0.74978579  0.24983136  0.20266402  1
  Se  Se254  1  0.75703977  0.23683430  0.68672397  1
  Se  Se255  1  0.75050400  0.58162117  0.20382269  1
  Se  Se256  1  0.75691325  0.57456514  0.69500328  1
  Se  Se257  1  0.75316542  0.91748546  0.20206954  1
  Se  Se258  1  0.74564416  0.92553987  0.69139638  1
