# generated using pymatgen
data_In86Cu29Se144
_symmetry_space_group_name_H-M   'P 1'
_cell_length_a   17.57811037
_cell_length_b   17.57928867
_cell_length_c   23.44291052
_cell_angle_alpha   89.99841502
_cell_angle_beta   90.00328919
_cell_angle_gamma   90.03924722
_symmetry_Int_Tables_number   1
_chemical_formula_structural   In86Cu29Se144
_chemical_formula_sum   'In86 Cu29 Se144'
_cell_volume   7244.10792285
_cell_formula_units_Z   1
loop_
 _symmetry_equiv_pos_site_id
 _symmetry_equiv_pos_as_xyz
  1  'x, y, z'
loop_
 _atom_site_type_symbol
 _atom_site_label
 _atom_site_symmetry_multiplicity
 _atom_site_fract_x
 _atom_site_fract_y
 _atom_site_fract_z
 _atom_site_occupancy
  In  In0  1  0.00332368  0.16964546  0.11619166  1
  In  In1  1  0.00625445  0.16467188  0.63261690  1
  In  In2  1  0.00871634  0.46976737  0.13085904  1
  In  In3  1  0.00624047  0.48621753  0.62418922  1
  In  In4  1  -0.00187784  0.84774800  0.13490881  1
  In  In5  1  0.00222790  0.83962453  0.61721405  1
  In  In6  1  0.33110408  0.18424029  0.12269746  1
  In  In7  1  0.34572574  0.16556241  0.63917455  1
  In  In8  1  0.33235347  0.49802602  0.11866419  1
  In  In9  1  0.33348364  0.50084358  0.62526073  1
  In  In10  1  0.33398432  0.82015644  0.12699543  1
  In  In11  1  0.32655677  0.84215695  0.63513628  1
  In  In12  1  0.66818687  0.14617224  0.12044946  1
  In  In13  1  0.64499703  0.16410463  0.62803508  1
  In  In14  1  0.66340078  0.51156734  0.12785276  1
  In  In15  1  0.65395592  0.51464897  0.62044058  1
  In  In16  1  0.65421157  0.85023046  0.13598761  1
  In  In17  1  0.67395773  0.83354617  0.62031625  1
  In  In18  1  0.15055042  0.00185769  0.37507386  1
  In  In19  1  0.17828561  0.01377756  0.86898142  1
  In  In20  1  0.18272590  0.33562921  0.36274287  1
  In  In21  1  0.17019780  0.33420790  0.87401977  1
  In  In22  1  0.17850830  0.65446187  0.38435834  1
  In  In23  1  0.18338473  0.65085739  0.88139258  1
  In  In24  1  0.51168384  -0.00839724  0.37759050  1
  In  In25  1  0.49739342  0.00105140  0.86520726  1
  In  In26  1  0.48649656  0.34333228  0.38162012  1
  In  In27  1  0.49947961  0.34376321  0.87953928  1
  In  In28  1  0.48830091  0.66036003  0.36779706  1
  In  In29  1  0.48227066  0.67727211  0.87879978  1
  In  In30  1  0.82726799  -0.01456776  0.36057749  1
  In  In31  1  0.84265466  0.00619501  0.86610099  1
  In  In32  1  0.83912031  0.31990257  0.37140663  1
  In  In33  1  0.82861129  0.31612993  0.87624081  1
  In  In34  1  0.82771216  0.68377203  0.37489923  1
  In  In35  1  0.83495041  0.67199498  0.87803356  1
  In  In36  1  0.00749466  0.15997415  0.36100040  1
  In  In37  1  0.00211178  0.16912407  0.87210319  1
  In  In38  1  0.01924276  0.49885459  0.37567807  1
  In  In39  1  0.02778332  0.49375979  0.88233516  1
  In  In40  1  -0.00775981  0.83985594  0.38287184  1
  In  In41  1  -0.00889486  0.83781190  0.87508897  1
  In  In42  1  0.33049811  0.17902599  0.37486301  1
  In  In43  1  0.33124303  0.16321809  0.87243419  1
  In  In44  1  0.33148258  0.49827491  0.37425714  1
  In  In45  1  0.33357313  0.49837795  0.87153881  1
  In  In46  1  0.34248268  0.81837210  0.37847375  1
  In  In47  1  0.35603294  0.85219633  0.85230928  1
  In  In48  1  0.66693693  0.15186451  0.37459673  1
  In  In49  1  0.67556116  0.16165832  0.87822845  1
  In  In50  1  0.64522354  0.50325652  0.37771717  1
  In  In51  1  0.65781130  0.48655893  0.87885116  1
  In  In52  1  0.67377807  0.83726317  0.36610473  1
  In  In53  1  0.64660755  0.84042604  0.87576918  1
  In  In54  1  0.15496558  0.00239249  0.12364255  1
  In  In55  1  0.16935360  -0.00436946  0.63054197  1
  In  In56  1  0.16856137  0.33280267  0.11409407  1
  In  In57  1  0.16753044  0.33688128  0.63003092  1
  In  In58  1  0.18522499  0.66488824  0.12925384  1
  In  In59  1  0.17452288  0.67390098  0.61621120  1
  In  In60  1  0.51867145  -0.00206158  0.12010436  1
  In  In61  1  0.48472906  0.01210920  0.64679779  1
  In  In62  1  0.47738717  0.33559667  0.12506449  1
  In  In63  1  0.48587449  0.32704778  0.62251131  1
  In  In64  1  0.49774387  0.66638903  0.12327602  1
  In  In65  1  0.50700874  0.65561932  0.62198167  1
  In  In66  1  0.81881238  0.01385746  0.13116897  1
  In  In67  1  0.84006204  -0.00387432  0.62832813  1
  In  In68  1  0.85415044  0.32713208  0.12634020  1
  In  In69  1  0.84605928  0.33700759  0.62801928  1
  In  In70  1  0.82444611  0.66698949  0.13471067  1
  In  In71  1  0.81719287  0.68120769  0.61740023  1
  In  In72  1  0.17065861  0.16492873  0.49911121  1
  In  In73  1  0.66652038  0.32947078  0.25309416  1
  In  In74  1  0.17330628  0.82977827  0.00037002  1
  In  In75  1  0.00049626  0.66848722  0.25655189  1
  In  In76  1  0.00472496  0.66622897  0.75198522  1
  In  In77  1  0.50530569  0.82976088  0.50400690  1
  In  In78  1  0.66126401  0.67117317  0.74605683  1
  In  In79  1  0.32952926  0.00292648  0.24823900  1
  In  In80  1  0.83254449  0.50456602  0.50347470  1
  In  In81  1  0.66251705  0.32611598  0.75445945  1
  In  In82  1  0.83230626  0.16190829  0.49418993  1
  In  In83  1  0.82629816  0.83830245  0.00690118  1
  In  In84  1  0.49431243  0.16712975  -0.00425586  1
  In  In85  1  0.83444737  0.49773172  0.00949248  1
  Cu  Cu86  1  0.00969986  0.33367761  0.49769743  1
  Cu  Cu87  1  0.83220926  0.84030311  0.74771743  1
  Cu  Cu88  1  0.00485845  0.66361897  0.01355039  1
  Cu  Cu89  1  0.33336496  0.33781581  0.49988592  1
  Cu  Cu90  1  0.16817943  0.83173003  0.25374419  1
  Cu  Cu91  1  0.66299876  0.32920270  0.00277694  1
  Cu  Cu92  1  0.84153126  0.16314256  0.24615124  1
  Cu  Cu93  1  0.65628476  0.33657107  0.50424665  1
  Cu  Cu94  1  0.17185000  0.49783003  0.24812389  1
  Cu  Cu95  1  0.16480245  0.17136965  0.75290277  1
  Cu  Cu96  1  0.15885067  0.83100344  0.74713711  1
  Cu  Cu97  1  0.33283349  0.00096152  0.51380777  1
  Cu  Cu98  1  0.82965565  0.50294597  0.25224740  1
  Cu  Cu99  1  0.33962579  0.66576806  -0.00157739  1
  Cu  Cu100  1  0.83498873  0.16537367  0.75057566  1
  Cu  Cu101  1  0.48919869  0.50025784  0.24893500  1
  Cu  Cu102  1  0.50337498  0.82959750  0.25061378  1
  Cu  Cu103  1  0.49578164  0.50145528  0.74996104  1
  Cu  Cu104  1  -0.00718433  -0.00972030  0.49765426  1
  Cu  Cu105  1  0.33845764  -0.00238412  -0.00785852  1
  Cu  Cu106  1  0.00283124  0.01000130  -0.00608244  1
  Cu  Cu107  1  0.33432115  0.66149693  0.50025147  1
  Cu  Cu108  1  0.17449665  0.49659076  0.75227076  1
  Cu  Cu109  1  0.00339899  0.33061969  -0.00322849  1
  Cu  Cu110  1  0.65553289  0.66226420  -0.00009462  1
  Cu  Cu111  1  0.00125734  0.66818731  0.49714391  1
  Cu  Cu112  1  0.66282271  0.00054500  0.49774710  1
  Cu  Cu113  1  0.49947532  0.16508702  0.24537414  1
  Cu  Cu114  1  0.84362998  0.50131643  0.74920838  1
  Se  Se115  1  0.08998939  0.08750239  0.04779683  1
  Se  Se116  1  0.07388673  0.07505105  0.55557994  1
  Se  Se117  1  0.08465916  0.42077886  0.04487346  1
  Se  Se118  1  0.09213855  0.41476639  0.55215535  1
  Se  Se119  1  0.08096580  0.75093356  0.06981398  1
  Se  Se120  1  0.08341437  0.75273641  0.55177259  1
  Se  Se121  1  0.41071504  0.07561636  0.06230768  1
  Se  Se122  1  0.41818439  0.08414625  0.56334332  1
  Se  Se123  1  0.41368007  0.41613951  0.04855930  1
  Se  Se124  1  0.41754572  0.42071497  0.55391703  1
  Se  Se125  1  0.41885260  0.75299703  0.05234756  1
  Se  Se126  1  0.40774391  0.74583534  0.56289747  1
  Se  Se127  1  0.75157135  0.07782937  0.04685063  1
  Se  Se128  1  0.74228154  0.08130595  0.56010484  1
  Se  Se129  1  0.74346007  0.40561661  0.06779811  1
  Se  Se130  1  0.74273435  0.40951252  0.56389254  1
  Se  Se131  1  0.73939248  0.73866773  0.05927403  1
  Se  Se132  1  0.73656708  0.74953821  0.54314954  1
  Se  Se133  1  0.25373248  0.25217290  0.04596122  1
  Se  Se134  1  0.25890932  0.25206455  0.56186337  1
  Se  Se135  1  0.25014245  0.58707995  0.05035430  1
  Se  Se136  1  0.24876104  0.57810041  0.55289550  1
  Se  Se137  1  0.26001757  0.92375901  0.06062837  1
  Se  Se138  1  0.24656783  0.91387233  0.55790150  1
  Se  Se139  1  0.58269343  0.25125769  0.06543865  1
  Se  Se140  1  0.57535764  0.24883227  0.55474212  1
  Se  Se141  1  0.57658005  0.57699145  0.05388974  1
  Se  Se142  1  0.58858116  0.59355044  0.54345560  1
  Se  Se143  1  0.58878085  0.91115750  0.04967789  1
  Se  Se144  1  0.58146447  0.93027065  0.56409628  1
  Se  Se145  1  0.91469304  0.24800708  0.04551142  1
  Se  Se146  1  0.92701507  0.25150361  0.55441338  1
  Se  Se147  1  0.92461495  0.58443841  0.07294292  1
  Se  Se148  1  0.92473068  0.59278208  0.56539991  1
  Se  Se149  1  0.92725558  0.92726902  0.05593179  1
  Se  Se150  1  0.90567338  0.91182990  0.55129071  1
  Se  Se151  1  0.08240781  0.25124572  0.43536787  1
  Se  Se152  1  0.08628802  0.24872626  0.94181112  1
  Se  Se153  1  0.08624334  0.57956873  0.45247416  1
  Se  Se154  1  0.08708535  0.59009287  0.95308179  1
  Se  Se155  1  0.08743670  0.91322558  0.44974937  1
  Se  Se156  1  0.08296344  0.92139750  0.93966363  1
  Se  Se157  1  0.41456406  0.24877103  0.44932478  1
  Se  Se158  1  0.40380005  0.26143720  0.94266611  1
  Se  Se159  1  0.41606155  0.58025134  0.44393233  1
  Se  Se160  1  0.41830136  0.57719116  0.94428318  1
  Se  Se161  1  0.40998879  0.92277253  0.44698898  1
  Se  Se162  1  0.42108733  0.91593536  0.93927660  1
  Se  Se163  1  0.73694140  0.25931604  0.44266265  1
  Se  Se164  1  0.74771776  0.24663757  0.95207108  1
  Se  Se165  1  0.74452217  0.58674131  0.43862427  1
  Se  Se166  1  0.74429646  0.58568792  0.94274343  1
  Se  Se167  1  0.74637373  0.92169760  0.44101412  1
  Se  Se168  1  0.75059825  0.92035718  0.93354463  1
  Se  Se169  1  0.25978388  0.07205545  0.44081760  1
  Se  Se170  1  0.25221927  0.08519264  0.94806510  1
  Se  Se171  1  0.24731410  0.41411214  0.44300392  1
  Se  Se172  1  0.22775835  0.44189076  0.93623926  1
  Se  Se173  1  0.25270762  0.75004220  0.44983960  1
  Se  Se174  1  0.26745360  0.75298549  0.93607090  1
  Se  Se175  1  0.57792825  0.08566363  0.44818030  1
  Se  Se176  1  0.58627503  0.07420408  0.94256837  1
  Se  Se177  1  0.57422183  0.41995336  0.45119670  1
  Se  Se178  1  0.57990504  0.41699485  0.95592686  1
  Se  Se179  1  0.58218025  0.74880774  0.43067351  1
  Se  Se180  1  0.57886136  0.74807978  0.94466202  1
  Se  Se181  1  0.92306831  0.07551183  0.43408592  1
  Se  Se182  1  0.91490065  0.08791339  0.94093025  1
  Se  Se183  1  0.92034788  0.41016546  0.44172269  1
  Se  Se184  1  0.91773434  0.41385439  0.93947639  1
  Se  Se185  1  0.91327000  0.75081565  0.44953771  1
  Se  Se186  1  0.92623871  0.74282539  0.95197903  1
  Se  Se187  1  0.24725100  0.23752633  0.29742254  1
  Se  Se188  1  0.25179099  0.25166442  0.80451402  1
  Se  Se189  1  0.25046665  0.58303100  0.30389114  1
  Se  Se190  1  0.25691561  0.58641155  0.79922669  1
  Se  Se191  1  0.25034827  0.91030931  0.31531587  1
  Se  Se192  1  0.24166717  0.91528926  0.80089940  1
  Se  Se193  1  0.57404420  0.24386463  0.31343806  1
  Se  Se194  1  0.57364974  0.23987632  0.81631493  1
  Se  Se195  1  0.57754094  0.58164871  0.29939784  1
  Se  Se196  1  0.57950806  0.57813822  0.81094160  1
  Se  Se197  1  0.58488628  0.91906963  0.29961330  1
  Se  Se198  1  0.58396976  0.91958529  0.79801043  1
  Se  Se199  1  0.92219530  0.24943374  0.29861914  1
  Se  Se200  1  0.91638533  0.25206296  0.80233465  1
  Se  Se201  1  0.91177313  0.57600971  0.31709836  1
  Se  Se202  1  0.91774172  0.57603821  0.81666377  1
  Se  Se203  1  0.93675550  0.92486504  0.30398925  1
  Se  Se204  1  0.92277092  0.91797531  0.79857384  1
  Se  Se205  1  0.09977198  0.08765564  0.29585313  1
  Se  Se206  1  0.08166078  0.08317250  0.80253566  1
  Se  Se207  1  0.08658404  0.41542539  0.30106666  1
  Se  Se208  1  0.08510899  0.41482706  0.80081653  1
  Se  Se209  1  0.09283036  0.75181200  0.31856757  1
  Se  Se210  1  0.09174947  0.75205001  0.81785460  1
  Se  Se211  1  0.42412213  0.08511549  0.31134510  1
  Se  Se212  1  0.40305619  0.07604675  0.80215631  1
  Se  Se213  1  0.41049754  0.41301106  0.30272776  1
  Se  Se214  1  0.41811842  0.41404704  0.80354267  1
  Se  Se215  1  0.41296301  0.74815930  0.29742119  1
  Se  Se216  1  0.41400376  0.74080286  0.79508912  1
  Se  Se217  1  0.75246827  0.08557822  0.30004358  1
  Se  Se218  1  0.74858080  0.08354041  0.80151648  1
  Se  Se219  1  0.75216006  0.42217862  0.31601003  1
  Se  Se220  1  0.75848131  0.42287008  0.80825775  1
  Se  Se221  1  0.74882003  0.74859822  0.29765744  1
  Se  Se222  1  0.75497678  0.75806053  0.80897831  1
  Se  Se223  1  0.24354341  0.09219084  0.18685261  1
  Se  Se224  1  0.24479854  0.08736120  0.69595797  1
  Se  Se225  1  0.24789132  0.41596348  0.18766754  1
  Se  Se226  1  0.25738653  0.41413247  0.69671023  1
  Se  Se227  1  0.25412655  0.74894942  0.20381734  1
  Se  Se228  1  0.24392445  0.74759547  0.69626624  1
  Se  Se229  1  0.58560365  0.08020782  0.19820960  1
  Se  Se230  1  0.58841393  0.08115273  0.70643245  1
  Se  Se231  1  0.57546984  0.41841129  0.19250912  1
  Se  Se232  1  0.58193319  0.42311200  0.69192131  1
  Se  Se233  1  0.58351621  0.74568106  0.19406984  1
  Se  Se234  1  0.57300885  0.76143296  0.68758275  1
  Se  Se235  1  0.92411271  0.08447530  0.18824501  1
  Se  Se236  1  0.91874402  0.08233851  0.69663025  1
  Se  Se237  1  0.91249239  0.41568367  0.20406896  1
  Se  Se238  1  0.92592089  0.41418983  0.70048249  1
  Se  Se239  1  0.90989948  0.75904174  0.19834330  1
  Se  Se240  1  0.90937397  0.75207657  0.69112251  1
  Se  Se241  1  0.06295086  0.27548519  0.17934770  1
  Se  Se242  1  0.08236759  0.25488737  0.69777474  1
  Se  Se243  1  0.08586966  0.57929940  0.19074060  1
  Se  Se244  1  0.09258669  0.57677791  0.69064801  1
  Se  Se245  1  0.08982115  0.91964995  0.20230486  1
  Se  Se246  1  0.07653532  0.91521998  0.69435659  1
  Se  Se247  1  0.41221994  0.25108793  0.20140502  1
  Se  Se248  1  0.42136885  0.25688972  0.70478402  1
  Se  Se249  1  0.41133074  0.58318324  0.19025065  1
  Se  Se250  1  0.41840677  0.58562183  0.69319281  1
  Se  Se251  1  0.42393182  0.91326254  0.18966666  1
  Se  Se252  1  0.41272882  0.91274333  0.70610348  1
  Se  Se253  1  0.75434266  0.24274824  0.18825326  1
  Se  Se254  1  0.75594738  0.24457396  0.68752868  1
  Se  Se255  1  0.74328792  0.58424503  0.20359958  1
  Se  Se256  1  0.75923611  0.57769854  0.69113461  1
  Se  Se257  1  0.76230173  0.90925418  0.19464269  1
  Se  Se258  1  0.74686260  0.91848417  0.69295600  1
