# generated using pymatgen
data_In86Cu29Se144
_symmetry_space_group_name_H-M   'P 1'
_cell_length_a   17.58762161
_cell_length_b   17.58465971
_cell_length_c   23.44427360
_cell_angle_alpha   90.02834356
_cell_angle_beta   89.98108110
_cell_angle_gamma   89.99121714
_symmetry_Int_Tables_number   1
_chemical_formula_structural   In86Cu29Se144
_chemical_formula_sum   'In86 Cu29 Se144'
_cell_volume   7250.66401629
_cell_formula_units_Z   1
loop_
 _symmetry_equiv_pos_site_id
 _symmetry_equiv_pos_as_xyz
  1  'x, y, z'
loop_
 _atom_site_type_symbol
 _atom_site_label
 _atom_site_symmetry_multiplicity
 _atom_site_fract_x
 _atom_site_fract_y
 _atom_site_fract_z
 _atom_site_occupancy
  In  In0  1  0.00147913  0.16374300  0.12049187  1
  In  In1  1  -0.01152533  0.18187376  0.63343059  1
  In  In2  1  -0.01552367  0.49569157  0.12850849  1
  In  In3  1  -0.00357960  0.50627103  0.62580246  1
  In  In4  1  -0.00359577  0.86730779  0.13497324  1
  In  In5  1  -0.00073379  0.81799374  0.62348391  1
  In  In6  1  0.33398291  0.16948699  0.11963133  1
  In  In7  1  0.34190171  0.16942287  0.64191067  1
  In  In8  1  0.34065503  0.48958481  0.12994963  1
  In  In9  1  0.34783716  0.49559091  0.63510621  1
  In  In10  1  0.31468499  0.84168596  0.14718212  1
  In  In11  1  0.33117027  0.83078010  0.62245064  1
  In  In12  1  0.67736884  0.17863685  0.11947110  1
  In  In13  1  0.67594802  0.17504294  0.63145224  1
  In  In14  1  0.65056466  0.50309296  0.12211974  1
  In  In15  1  0.65504663  0.48829940  0.62084301  1
  In  In16  1  0.67546096  0.82342830  0.12146344  1
  In  In17  1  0.66215816  0.84767072  0.62244903  1
  In  In18  1  0.16228523  -0.01206267  0.36514380  1
  In  In19  1  0.17769284  -0.00116956  0.87721296  1
  In  In20  1  0.16451978  0.32853219  0.36750599  1
  In  In21  1  0.15778775  0.32745711  0.87064060  1
  In  In22  1  0.18354894  0.66789149  0.37298371  1
  In  In23  1  0.16848157  0.66716852  0.86690536  1
  In  In24  1  0.48279755  -0.00504874  0.37037521  1
  In  In25  1  0.50125753  0.02153497  0.87225927  1
  In  In26  1  0.50667658  0.33861398  0.37105879  1
  In  In27  1  0.50196713  0.32854241  0.87132894  1
  In  In28  1  0.49567716  0.66729767  0.38704389  1
  In  In29  1  0.48377682  0.66401380  0.86973749  1
  In  In30  1  0.85445567  -0.00053458  0.37050727  1
  In  In31  1  0.83934400  0.00024750  0.88918505  1
  In  In32  1  0.83111108  0.32841787  0.37852929  1
  In  In33  1  0.81928695  0.30860240  0.85608028  1
  In  In34  1  0.82008438  0.66653086  0.37664047  1
  In  In35  1  0.84294774  0.66865574  0.86747210  1
  In  In36  1  -0.00360901  0.15568355  0.36865395  1
  In  In37  1  -0.01034748  0.17621962  0.89190356  1
  In  In38  1  -0.00150315  0.48339085  0.37495483  1
  In  In39  1  -0.00299188  0.49679899  0.86420921  1
  In  In40  1  0.00083884  0.85199172  0.37057855  1
  In  In41  1  0.00482980  0.83133517  0.87383737  1
  In  In42  1  0.32859086  0.16406879  0.36639253  1
  In  In43  1  0.33397891  0.16687970  0.87412742  1
  In  In44  1  0.34362344  0.50318939  0.37319040  1
  In  In45  1  0.34676778  0.50172277  0.86669831  1
  In  In46  1  0.33356339  0.83192760  0.37873369  1
  In  In47  1  0.32707810  0.83570104  0.86659109  1
  In  In48  1  0.66509109  0.18251250  0.37322791  1
  In  In49  1  0.66047865  0.17423235  0.88575419  1
  In  In50  1  0.67128963  0.49258176  0.38659853  1
  In  In51  1  0.65888220  0.48145649  0.86716930  1
  In  In52  1  0.66868049  0.82033506  0.37590498  1
  In  In53  1  0.66914801  0.84543199  0.87502035  1
  In  In54  1  0.15451658  0.01459121  0.13691730  1
  In  In55  1  0.17917252  0.00288888  0.62246617  1
  In  In56  1  0.17462281  0.32089174  0.12720669  1
  In  In57  1  0.16910260  0.33403307  0.63210067  1
  In  In58  1  0.17243794  0.68423226  0.13015878  1
  In  In59  1  0.15978465  0.67310609  0.62570050  1
  In  In60  1  0.48374891  0.00114545  0.12611572  1
  In  In61  1  0.50223660  -0.00741374  0.62319192  1
  In  In62  1  0.50130141  0.33590816  0.12137619  1
  In  In63  1  0.48946026  0.34953950  0.64816490  1
  In  In64  1  0.49491309  0.65388289  0.12154892  1
  In  In65  1  0.48811428  0.65543693  0.62077945  1
  In  In66  1  0.84376600  0.00588111  0.11484527  1
  In  In67  1  0.82330187  0.00902537  0.62394030  1
  In  In68  1  0.84013205  0.32406862  0.13390313  1
  In  In69  1  0.82554854  0.33397404  0.62748089  1
  In  In70  1  0.83036233  0.66747533  0.11888640  1
  In  In71  1  0.85415894  0.66742572  0.62716878  1
  In  In72  1  0.83244852  0.83548850  0.49947606  1
  In  In73  1  0.66713771  0.00753180  0.74971458  1
  In  In74  1  0.66563568  0.66385349  0.25274550  1
  In  In75  1  0.16962470  0.50152279  0.49890579  1
  In  In76  1  0.00471078  0.66434174  0.24916044  1
  In  In77  1  0.16030850  0.84063240  0.00731786  1
  In  In78  1  0.66434779  0.66340717  0.74979871  1
  In  In79  1  0.49868307  0.83274222  0.00316190  1
  In  In80  1  0.66815870  0.00345984  0.24053594  1
  In  In81  1  0.16454230  0.16597054  0.49929971  1
  In  In82  1  -0.00048061  0.00434988  0.75447318  1
  In  In83  1  0.17221444  0.49470820  0.00078583  1
  In  In84  1  0.82515117  0.49040185  -0.01373256  1
  In  In85  1  0.50522770  0.16872854  0.50273571  1
  Cu  Cu86  1  0.33611207  0.00569983  -0.00159222  1
  Cu  Cu87  1  0.66905422  0.00435340  0.00009012  1
  Cu  Cu88  1  0.16774911  0.16820771  0.24615383  1
  Cu  Cu89  1  0.17328621  0.50278841  0.74774160  1
  Cu  Cu90  1  0.16737513  0.49310856  0.25153083  1
  Cu  Cu91  1  0.34150536  0.33115295  -0.00185107  1
  Cu  Cu92  1  0.16341587  0.83214484  0.74742207  1
  Cu  Cu93  1  0.00324026  0.66764948  0.50046812  1
  Cu  Cu94  1  0.49804425  0.49502850  0.24976946  1
  Cu  Cu95  1  0.66447371  0.00539703  0.49946676  1
  Cu  Cu96  1  0.33679125  0.66742608  0.50103399  1
  Cu  Cu97  1  -0.01427133  0.33248415  0.50245907  1
  Cu  Cu98  1  0.33410286  -0.00990254  0.49960436  1
  Cu  Cu99  1  0.66561448  0.33392292  -0.00249596  1
  Cu  Cu100  1  0.33968280  0.33353270  0.50561706  1
  Cu  Cu101  1  -0.00001358  0.66965076  -0.00690693  1
  Cu  Cu102  1  0.49360602  0.17677747  0.24638150  1
  Cu  Cu103  1  0.66713202  0.33519523  0.50227476  1
  Cu  Cu104  1  0.84016437  0.50242361  0.74498343  1
  Cu  Cu105  1  0.83517161  0.16832147  0.24730317  1
  Cu  Cu106  1  0.00040900  0.32875179  0.00031161  1
  Cu  Cu107  1  0.49000014  0.83363782  0.74464607  1
  Cu  Cu108  1  0.16799811  0.16746335  0.75231443  1
  Cu  Cu109  1  0.49550470  0.82899379  0.25506603  1
  Cu  Cu110  1  0.33511076  0.66803282  -0.00027538  1
  Cu  Cu111  1  0.82778076  0.48892969  0.25553613  1
  Cu  Cu112  1  0.66542085  0.66411655  0.50368832  1
  Cu  Cu113  1  0.66431907  0.66378174  -0.00249682  1
  Cu  Cu114  1  0.00288890  0.00470275  0.49645567  1
  Se  Se115  1  0.08140970  0.07412530  0.05517490  1
  Se  Se116  1  0.07301472  0.08378978  0.56466288  1
  Se  Se117  1  0.07498686  0.41233640  0.06122723  1
  Se  Se118  1  0.07912560  0.40781941  0.55641150  1
  Se  Se119  1  0.06952030  0.74526224  0.06211671  1
  Se  Se120  1  0.08706547  0.75319625  0.54880732  1
  Se  Se121  1  0.42101811  0.08765968  0.05064666  1
  Se  Se122  1  0.40637442  0.08098012  0.55844739  1
  Se  Se123  1  0.41863182  0.42060908  0.05143973  1
  Se  Se124  1  0.42231852  0.41327802  0.56109279  1
  Se  Se125  1  0.40388332  0.75221117  0.06535989  1
  Se  Se126  1  0.41987723  0.75218312  0.55396899  1
  Se  Se127  1  0.75284687  0.08831760  0.05258027  1
  Se  Se128  1  0.74326809  0.08933116  0.55394452  1
  Se  Se129  1  0.74565083  0.41246243  0.06164147  1
  Se  Se130  1  0.75198622  0.41971188  0.55411508  1
  Se  Se131  1  0.75128212  0.74619630  0.04609397  1
  Se  Se132  1  0.74629079  0.74523730  0.56337154  1
  Se  Se133  1  0.25140328  0.25130431  0.04865387  1
  Se  Se134  1  0.25909415  0.25061099  0.56178389  1
  Se  Se135  1  0.25406171  0.59093470  0.06201507  1
  Se  Se136  1  0.25828947  0.58546300  0.56306453  1
  Se  Se137  1  0.26073494  0.92394001  0.06155579  1
  Se  Se138  1  0.24566174  0.91179531  0.55179487  1
  Se  Se139  1  0.58349520  0.25098750  0.05282401  1
  Se  Se140  1  0.58487806  0.26100532  0.56592209  1
  Se  Se141  1  0.57736822  0.58205839  0.04661824  1
  Se  Se142  1  0.58006479  0.58039460  0.55438901  1
  Se  Se143  1  0.59029053  0.92430479  0.06291897  1
  Se  Se144  1  0.58093698  0.91829061  0.54707245  1
  Se  Se145  1  0.91392878  0.25118818  0.05587562  1
  Se  Se146  1  0.90673937  0.24726323  0.55623707  1
  Se  Se147  1  0.91824330  0.58248612  0.04829919  1
  Se  Se148  1  0.91883254  0.58341227  0.54986230  1
  Se  Se149  1  0.90880338  0.90143209  0.05302773  1
  Se  Se150  1  0.92271756  0.92577065  0.56065770  1
  Se  Se151  1  0.07222186  0.25716053  0.44227921  1
  Se  Se152  1  0.09224135  0.24995777  0.95131649  1
  Se  Se153  1  0.07844923  0.58777342  0.43593757  1
  Se  Se154  1  0.08037287  0.58453405  0.93927986  1
  Se  Se155  1  0.08552899  0.91949946  0.44594367  1
  Se  Se156  1  0.07476822  0.92839723  0.94317970  1
  Se  Se157  1  0.41041941  0.25100421  0.44009224  1
  Se  Se158  1  0.42121303  0.24582448  0.94344146  1
  Se  Se159  1  0.41712041  0.57558558  0.45246063  1
  Se  Se160  1  0.41478544  0.58313166  0.94649143  1
  Se  Se161  1  0.42265617  0.91085116  0.44860759  1
  Se  Se162  1  0.41192270  0.92029433  0.93857423  1
  Se  Se163  1  0.74749196  0.24779559  0.45018758  1
  Se  Se164  1  0.75696402  0.25427157  0.94750073  1
  Se  Se165  1  0.75188594  0.58356216  0.45125211  1
  Se  Se166  1  0.73937637  0.58857125  0.92988449  1
  Se  Se167  1  0.74591995  0.92694233  0.43622752  1
  Se  Se168  1  0.74873730  0.91426198  0.95101072  1
  Se  Se169  1  0.25516703  0.07539788  0.44131322  1
  Se  Se170  1  0.25007447  0.08711599  0.94696529  1
  Se  Se171  1  0.25599434  0.40497107  0.44141867  1
  Se  Se172  1  0.25974400  0.41035852  0.93671109  1
  Se  Se173  1  0.25106899  0.74907248  0.44962764  1
  Se  Se174  1  0.25085790  0.74858106  0.94374322  1
  Se  Se175  1  0.58460447  0.07800178  0.43363437  1
  Se  Se176  1  0.57986111  0.08560550  0.95216477  1
  Se  Se177  1  0.57732172  0.41442720  0.45016586  1
  Se  Se178  1  0.58007390  0.41499062  0.94528323  1
  Se  Se179  1  0.58621451  0.75069454  0.45007692  1
  Se  Se180  1  0.58437398  0.74511140  0.93621652  1
  Se  Se181  1  0.91590650  0.08680559  0.44702753  1
  Se  Se182  1  0.91659643  0.08461753  0.95695832  1
  Se  Se183  1  0.90879343  0.41930781  0.44759463  1
  Se  Se184  1  0.92368614  0.40379938  0.93458821  1
  Se  Se185  1  0.92354064  0.74734039  0.43694879  1
  Se  Se186  1  0.91590480  0.75180182  0.94111045  1
  Se  Se187  1  0.25135669  0.25216844  0.29906289  1
  Se  Se188  1  0.25065607  0.25182581  0.80532903  1
  Se  Se189  1  0.25122580  0.57511221  0.30454248  1
  Se  Se190  1  0.25513495  0.58445520  0.80344153  1
  Se  Se191  1  0.27069913  0.92695566  0.30841817  1
  Se  Se192  1  0.24498412  0.91898564  0.79881768  1
  Se  Se193  1  0.58252300  0.25348233  0.29932379  1
  Se  Se194  1  0.59933051  0.25485341  0.80756204  1
  Se  Se195  1  0.57766261  0.57466793  0.31318149  1
  Se  Se196  1  0.57109782  0.57397625  0.80489358  1
  Se  Se197  1  0.58408167  0.91016780  0.30771077  1
  Se  Se198  1  0.57096635  0.91258020  0.80547532  1
  Se  Se199  1  0.91540342  0.24890079  0.30729752  1
  Se  Se200  1  0.93720533  0.25306031  0.80680492  1
  Se  Se201  1  0.90776674  0.57741846  0.30999816  1
  Se  Se202  1  0.92229158  0.58788458  0.79683096  1
  Se  Se203  1  0.92139232  0.91971540  0.29440765  1
  Se  Se204  1  0.90747883  0.91325547  0.81047912  1
  Se  Se205  1  0.08619498  0.08174283  0.30051559  1
  Se  Se206  1  0.08820853  0.09157504  0.81558404  1
  Se  Se207  1  0.07949733  0.41125042  0.30061787  1
  Se  Se208  1  0.08822227  0.41901231  0.80006813  1
  Se  Se209  1  0.08981183  0.75443117  0.31126725  1
  Se  Se210  1  0.08131612  0.74921769  0.80169518  1
  Se  Se211  1  0.41777548  0.08665093  0.29933816  1
  Se  Se212  1  0.40398077  0.07511338  0.80310427  1
  Se  Se213  1  0.41383347  0.41154953  0.30335972  1
  Se  Se214  1  0.41433491  0.40547881  0.80193559  1
  Se  Se215  1  0.41918427  0.74440016  0.31230090  1
  Se  Se216  1  0.40966397  0.75048554  0.80007375  1
  Se  Se217  1  0.75394449  0.08836841  0.30905201  1
  Se  Se218  1  0.75336632  0.08525948  0.81931665  1
  Se  Se219  1  0.74314726  0.41136410  0.31111929  1
  Se  Se220  1  0.75888649  0.42094924  0.80058712  1
  Se  Se221  1  0.76359476  0.76145654  0.29963352  1
  Se  Se222  1  0.75224891  0.75981695  0.80536389  1
  Se  Se223  1  0.25663043  0.08757728  0.19428656  1
  Se  Se224  1  0.24877178  0.08251884  0.69868933  1
  Se  Se225  1  0.24973107  0.41196769  0.19459197  1
  Se  Se226  1  0.25494405  0.41516200  0.69763396  1
  Se  Se227  1  0.26063809  0.73303232  0.20854154  1
  Se  Se228  1  0.24848210  0.74997831  0.69368564  1
  Se  Se229  1  0.57490645  0.09559064  0.18618548  1
  Se  Se230  1  0.57305548  0.09235423  0.69017158  1
  Se  Se231  1  0.58380782  0.41622806  0.19509220  1
  Se  Se232  1  0.59735863  0.41436113  0.70435985  1
  Se  Se233  1  0.57431864  0.75346355  0.19037246  1
  Se  Se234  1  0.57803299  0.75756875  0.68782602  1
  Se  Se235  1  0.91562604  0.08435878  0.19215315  1
  Se  Se236  1  0.90185173  0.09167542  0.69843778  1
  Se  Se237  1  0.91769166  0.41171575  0.20335005  1
  Se  Se238  1  0.91991487  0.41533172  0.69128129  1
  Se  Se239  1  0.91594402  0.75112558  0.18665230  1
  Se  Se240  1  0.91766051  0.75508631  0.70022816  1
  Se  Se241  1  0.08018834  0.24816093  0.19280856  1
  Se  Se242  1  0.08507933  0.25063541  0.69852525  1
  Se  Se243  1  0.09220030  0.57243109  0.18626472  1
  Se  Se244  1  0.08568433  0.58253882  0.69360778  1
  Se  Se245  1  0.11982923  0.88935018  0.18960706  1
  Se  Se246  1  0.08544863  0.91609045  0.68776816  1
  Se  Se247  1  0.41254148  0.25699606  0.18899068  1
  Se  Se248  1  0.41735807  0.25315720  0.71044114  1
  Se  Se249  1  0.41660953  0.58163448  0.19771758  1
  Se  Se250  1  0.41700185  0.59005319  0.70219674  1
  Se  Se251  1  0.41780706  0.91803257  0.20246761  1
  Se  Se252  1  0.41117519  0.92006976  0.69072854  1
  Se  Se253  1  0.74563450  0.25225528  0.20101198  1
  Se  Se254  1  0.75537567  0.25048345  0.70317723  1
  Se  Se255  1  0.75672461  0.57275212  0.19107692  1
  Se  Se256  1  0.75565843  0.58009758  0.68518396  1
  Se  Se257  1  0.75905992  0.91090597  0.18683519  1
  Se  Se258  1  0.75871732  0.91014368  0.69474338  1
