# generated using pymatgen
data_In86Cu29Se144
_symmetry_space_group_name_H-M   'P 1'
_cell_length_a   17.68873668
_cell_length_b   17.67825576
_cell_length_c   23.53177332
_cell_angle_alpha   90.03538715
_cell_angle_beta   89.98157453
_cell_angle_gamma   90.04484151
_symmetry_Int_Tables_number   1
_chemical_formula_structural   In86Cu29Se144
_chemical_formula_sum   'In86 Cu29 Se144'
_cell_volume   7358.52293574
_cell_formula_units_Z   1
loop_
 _symmetry_equiv_pos_site_id
 _symmetry_equiv_pos_as_xyz
  1  'x, y, z'
loop_
 _atom_site_type_symbol
 _atom_site_label
 _atom_site_symmetry_multiplicity
 _atom_site_fract_x
 _atom_site_fract_y
 _atom_site_fract_z
 _atom_site_occupancy
  In  In0  1  0.00536715  0.15390255  0.13210121  1
  In  In1  1  0.01353902  0.17004353  0.61383745  1
  In  In2  1  0.03326660  0.48308094  0.14293419  1
  In  In3  1  -0.01009727  0.48887907  0.62224308  1
  In  In4  1  0.00495320  0.83067894  0.13028393  1
  In  In5  1  -0.00846175  0.83863051  0.62192022  1
  In  In6  1  0.33279905  0.18159001  0.13172584  1
  In  In7  1  0.34340994  0.17786977  0.61928327  1
  In  In8  1  0.32138363  0.49029836  0.12482261  1
  In  In9  1  0.34291294  0.49168164  0.63057231  1
  In  In10  1  0.33914262  0.85069804  0.12465142  1
  In  In11  1  0.33294410  0.81774773  0.62821952  1
  In  In12  1  0.63525703  0.22497061  0.18740190  1
  In  In13  1  0.66198440  0.16249661  0.61457947  1
  In  In14  1  0.65787749  0.50366387  0.13313015  1
  In  In15  1  0.66339142  0.49902216  0.61598010  1
  In  In16  1  0.64874268  0.84003417  0.13073367  1
  In  In17  1  0.66827966  0.84377252  0.61827462  1
  In  In18  1  0.17146428  0.00605925  0.36760368  1
  In  In19  1  0.16891106  0.00434961  0.89155925  1
  In  In20  1  0.15300434  0.32338401  0.36169714  1
  In  In21  1  0.17036773  0.33260646  0.87459641  1
  In  In22  1  0.15786696  0.66936695  0.37020722  1
  In  In23  1  0.17913459  0.65671955  0.88703282  1
  In  In24  1  0.49785007  0.00025710  0.37502547  1
  In  In25  1  0.51225440  0.00528179  0.87375756  1
  In  In26  1  0.49524801  0.32950193  0.37066976  1
  In  In27  1  0.49023073  0.33862569  0.88357220  1
  In  In28  1  0.51387080  0.65186385  0.39228198  1
  In  In29  1  0.48630150  0.66623603  0.87182739  1
  In  In30  1  0.83874445  0.02995616  0.34477577  1
  In  In31  1  0.81506423  0.01413790  0.87627233  1
  In  In32  1  0.81294663  0.29194373  0.33236716  1
  In  In33  1  0.84370134  0.31844618  0.87483177  1
  In  In34  1  0.82837363  0.65525932  0.36482585  1
  In  In35  1  0.82504952  0.66872904  0.87730776  1
  In  In36  1  0.00482504  0.17407652  0.37574589  1
  In  In37  1  0.00117337  0.17749635  0.87663368  1
  In  In38  1  -0.00929883  0.47058659  0.34748677  1
  In  In39  1  0.01793961  0.49482293  0.87938532  1
  In  In40  1  -0.00336038  0.84268136  0.36701491  1
  In  In41  1  -0.00224506  0.84492512  0.88090340  1
  In  In42  1  0.33338288  0.16743041  0.37182630  1
  In  In43  1  0.32630628  0.17939190  0.88235473  1
  In  In44  1  0.34976255  0.49262535  0.36593415  1
  In  In45  1  0.33378605  0.49721439  0.87536209  1
  In  In46  1  0.33345460  0.84366480  0.37197884  1
  In  In47  1  0.33697656  0.82645117  0.87859609  1
  In  In48  1  0.66108247  0.15745159  0.37267051  1
  In  In49  1  0.67003679  0.15687576  0.87605357  1
  In  In50  1  0.65731982  0.49175442  0.36732108  1
  In  In51  1  0.65687730  0.48368389  0.88295740  1
  In  In52  1  0.66035140  0.82630751  0.37534064  1
  In  In53  1  0.65648363  0.84504016  0.87411527  1
  In  In54  1  0.17043136  0.00320675  0.12265802  1
  In  In55  1  0.15875570  0.00727325  0.62345248  1
  In  In56  1  0.17076368  0.32971066  0.12267610  1
  In  In57  1  0.17449918  0.32829894  0.62999438  1
  In  In58  1  0.16110959  0.66120911  0.11630567  1
  In  In59  1  0.17141542  0.67596880  0.62590158  1
  In  In60  1  0.46792484  0.05118608  0.18725857  1
  In  In61  1  0.51077061  0.01073343  0.61400191  1
  In  In62  1  0.49281764  0.33930153  0.12874546  1
  In  In63  1  0.49612179  0.32779167  0.61589449  1
  In  In64  1  0.50495783  0.65772645  0.12791922  1
  In  In65  1  0.49125368  0.65170573  0.61406203  1
  In  In66  1  0.81954022  0.01935191  0.14023304  1
  In  In67  1  0.82507633  0.00095658  0.61840561  1
  In  In68  1  0.83189323  0.32270333  0.13854612  1
  In  In69  1  0.84855223  0.32930341  0.62332896  1
  In  In70  1  0.83246453  0.67178715  0.13120034  1
  In  In71  1  0.83252962  0.67479857  0.62108628  1
  In  In72  1  0.01394892  0.65466914  0.75794409  1
  In  In73  1  0.82849939  0.48997105  0.48309228  1
  In  In74  1  0.16628101  0.84036684  0.49695589  1
  In  In75  1  0.83912225  0.83183378  0.00948419  1
  In  In76  1  0.17113252  0.49751731  0.48637364  1
  In  In77  1  0.83915013  0.49503468  0.01800159  1
  In  In78  1  0.33732436  0.00210589  0.75091601  1
  In  In79  1  0.66405985  0.66466265  0.73761169  1
  In  In80  1  0.49945895  0.83661009  -0.00313650  1
  In  In81  1  -0.00356160  0.00297880  0.74920278  1
  In  In82  1  0.82590454  0.83885490  0.49534378  1
  In  In83  1  0.33589766  0.67054066  0.24234400  1
  In  In84  1  0.66863556  0.32901828  0.74708572  1
  In  In85  1  0.83353827  0.16707487  0.00285299  1
  Cu  Cu86  1  0.33623293  0.32742370  0.49715040  1
  Cu  Cu87  1  0.84018426  0.49123227  0.74991369  1
  Cu  Cu88  1  0.33456324  0.00188801  0.49611521  1
  Cu  Cu89  1  0.83521197  0.51200058  0.24530880  1
  Cu  Cu90  1  0.00951009  0.33103555  0.00207433  1
  Cu  Cu91  1  0.65832759  0.00688654  0.00520587  1
  Cu  Cu92  1  0.16992332  0.49368743  0.75436543  1
  Cu  Cu93  1  0.16745137  0.84082662  0.24888438  1
  Cu  Cu94  1  0.16604965  0.17243714  0.75030042  1
  Cu  Cu95  1  0.33494173  0.66180120  0.49948053  1
  Cu  Cu96  1  0.50426110  0.83978713  0.74907814  1
  Cu  Cu97  1  0.66728653  0.00024374  0.49161344  1
  Cu  Cu98  1  -0.00469275  0.66277303  0.49190955  1
  Cu  Cu99  1  0.01066930  0.66255509  0.00666834  1
  Cu  Cu100  1  0.34230729  0.01371828  0.01492278  1
  Cu  Cu101  1  0.17142746  0.82858339  0.75504932  1
  Cu  Cu102  1  0.65208140  0.31955028  0.01427044  1
  Cu  Cu103  1  0.16281857  0.16052271  0.24679283  1
  Cu  Cu104  1  0.49634558  0.50244331  0.75060007  1
  Cu  Cu105  1  0.50222378  0.82227754  0.25464576  1
  Cu  Cu106  1  0.00656655  0.32697239  0.49589969  1
  Cu  Cu107  1  0.33462189  0.33270188  0.00172265  1
  Cu  Cu108  1  0.66305731  0.65710495  0.00356549  1
  Cu  Cu109  1  0.82984190  0.83219179  0.25299448  1
  Cu  Cu110  1  0.50011556  0.17413374  0.74350612  1
  Cu  Cu111  1  0.83123218  0.83420352  0.74327058  1
  Cu  Cu112  1  0.00143236  -0.00131380  0.00769607  1
  Cu  Cu113  1  0.33562934  0.66484901  -0.00088023  1
  Cu  Cu114  1  0.66748083  0.32615028  0.48620232  1
  Se  Se115  1  0.08501273  0.08667459  0.05436759  1
  Se  Se116  1  0.08484411  0.07674591  0.54764672  1
  Se  Se117  1  0.08922740  0.41772682  0.05385526  1
  Se  Se118  1  0.08233636  0.41303002  0.55448965  1
  Se  Se119  1  0.08505874  0.75865858  0.05378672  1
  Se  Se120  1  0.07196026  0.74247199  0.55460493  1
  Se  Se121  1  0.42206647  0.08131991  0.08137707  1
  Se  Se122  1  0.41513617  0.08581611  0.55224221  1
  Se  Se123  1  0.41325202  0.41860282  0.05579868  1
  Se  Se124  1  0.41330417  0.41597901  0.55190033  1
  Se  Se125  1  0.41437666  0.74475401  0.06057250  1
  Se  Se126  1  0.41355584  0.74866532  0.55289183  1
  Se  Se127  1  0.73909081  0.08788850  0.06249131  1
  Se  Se128  1  0.74940937  0.08324578  0.54701487  1
  Se  Se129  1  0.74325038  0.40045284  0.06581798  1
  Se  Se130  1  0.74646016  0.40170014  0.55362253  1
  Se  Se131  1  0.73719403  0.74516266  0.05931506  1
  Se  Se132  1  0.73848453  0.74070366  0.55200605  1
  Se  Se133  1  0.25134200  0.24787919  0.05259622  1
  Se  Se134  1  0.24956539  0.25172173  0.55400414  1
  Se  Se135  1  0.25318080  0.58324118  0.05374854  1
  Se  Se136  1  0.25103796  0.58448025  0.55879174  1
  Se  Se137  1  0.25456653  0.92144185  0.05220171  1
  Se  Se138  1  0.25931056  0.92228712  0.56222739  1
  Se  Se139  1  0.58610693  0.24068399  0.08104076  1
  Se  Se140  1  0.58479439  0.25197075  0.54865152  1
  Se  Se141  1  0.57957009  0.57506985  0.05481124  1
  Se  Se142  1  0.58233309  0.57748344  0.54964193  1
  Se  Se143  1  0.57439044  0.92860337  0.06185261  1
  Se  Se144  1  0.58482753  0.91856259  0.54737766  1
  Se  Se145  1  0.92486633  0.25623248  0.06199633  1
  Se  Se146  1  0.91966189  0.24816317  0.54933522  1
  Se  Se147  1  0.92899450  0.58971469  0.06907064  1
  Se  Se148  1  0.91611745  0.58513328  0.55364977  1
  Se  Se149  1  0.91513260  0.93057826  0.06888910  1
  Se  Se150  1  0.92431207  0.92768467  0.55001466  1
  Se  Se151  1  0.09610971  0.24787655  0.44616085  1
  Se  Se152  1  0.08882796  0.24886496  0.94559213  1
  Se  Se153  1  0.06944955  0.58001049  0.43257385  1
  Se  Se154  1  0.08922475  0.57754653  0.95203862  1
  Se  Se155  1  0.07634322  0.92726936  0.43875565  1
  Se  Se156  1  0.08205176  0.91625233  0.95218314  1
  Se  Se157  1  0.41840298  0.24533866  0.44279782  1
  Se  Se158  1  0.42005111  0.24624515  0.95195314  1
  Se  Se159  1  0.41136946  0.57350170  0.44632058  1
  Se  Se160  1  0.41746479  0.58230231  0.94440915  1
  Se  Se161  1  0.41572667  0.91624995  0.44534966  1
  Se  Se162  1  0.40925887  0.93356825  0.94096835  1
  Se  Se163  1  0.75152602  0.24962112  0.42853660  1
  Se  Se164  1  0.73923979  0.25970897  0.94533502  1
  Se  Se165  1  0.73750169  0.58895285  0.43887252  1
  Se  Se166  1  0.74771499  0.57809595  0.94656758  1
  Se  Se167  1  0.74985832  0.92805349  0.42868440  1
  Se  Se168  1  0.74174018  0.92224766  0.94992351  1
  Se  Se169  1  0.25228904  0.08156081  0.44112369  1
  Se  Se170  1  0.25845574  0.08670895  0.95238768  1
  Se  Se171  1  0.25933954  0.40324130  0.43218793  1
  Se  Se172  1  0.25262995  0.41380512  0.94390757  1
  Se  Se173  1  0.25350686  0.74258138  0.44107614  1
  Se  Se174  1  0.25319112  0.75340662  0.95008702  1
  Se  Se175  1  0.57710167  0.08398576  0.44638201  1
  Se  Se176  1  0.58030386  0.09012905  0.94835512  1
  Se  Se177  1  0.58111526  0.41079540  0.43986223  1
  Se  Se178  1  0.58004317  0.40815634  0.95643112  1
  Se  Se179  1  0.57593997  0.75866153  0.44979379  1
  Se  Se180  1  0.59120606  0.74002600  0.93914065  1
  Se  Se181  1  0.90235468  0.09478003  0.42923582  1
  Se  Se182  1  0.92254770  0.07352434  0.94215916  1
  Se  Se183  1  0.92747238  0.40370492  0.43437664  1
  Se  Se184  1  0.92192111  0.40982680  0.94559643  1
  Se  Se185  1  0.91670442  0.74615938  0.43552800  1
  Se  Se186  1  0.92541926  0.73720878  0.94530172  1
  Se  Se187  1  0.24583281  0.24189703  0.30133332  1
  Se  Se188  1  0.25289505  0.25125526  0.80363284  1
  Se  Se189  1  0.25328705  0.58543942  0.31109749  1
  Se  Se190  1  0.24799619  0.58124067  0.80774194  1
  Se  Se191  1  0.25405499  0.92121132  0.30029457  1
  Se  Se192  1  0.24415742  0.91623091  0.81344273  1
  Se  Se193  1  0.58538900  0.24898045  0.30470114  1
  Se  Se194  1  0.57726027  0.24768835  0.81155461  1
  Se  Se195  1  0.57110435  0.58019063  0.30734747  1
  Se  Se196  1  0.58385079  0.57691559  0.80892029  1
  Se  Se197  1  0.57764926  0.91076746  0.30823620  1
  Se  Se198  1  0.58675488  0.92490852  0.79896806  1
  Se  Se199  1  0.95649192  0.28556025  0.31038086  1
  Se  Se200  1  0.91073495  0.23393074  0.80309352  1
  Se  Se201  1  0.92567055  0.58687691  0.29934650  1
  Se  Se202  1  0.90989104  0.57465651  0.81484368  1
  Se  Se203  1  0.91516609  0.92101828  0.29649678  1
  Se  Se204  1  0.90227415  0.91302344  0.81018898  1
  Se  Se205  1  0.07923093  0.08423426  0.30478908  1
  Se  Se206  1  0.09405188  0.08467854  0.81060866  1
  Se  Se207  1  0.11574960  0.43638270  0.29595085  1
  Se  Se208  1  0.08307191  0.41175306  0.80414139  1
  Se  Se209  1  0.08463381  0.75943237  0.30336008  1
  Se  Se210  1  0.08919469  0.75583690  0.81825240  1
  Se  Se211  1  0.42676372  0.09109042  0.30304274  1
  Se  Se212  1  0.42332567  0.09560062  0.80954682  1
  Se  Se213  1  0.40517794  0.39402050  0.29517339  1
  Se  Se214  1  0.41994291  0.41674132  0.80649330  1
  Se  Se215  1  0.41927908  0.74706333  0.31484301  1
  Se  Se216  1  0.42010564  0.75881338  0.80256760  1
  Se  Se217  1  0.70823145  0.05482582  0.29806778  1
  Se  Se218  1  0.74632580  0.08765575  0.79927348  1
  Se  Se219  1  0.76476797  0.42930002  0.30789793  1
  Se  Se220  1  0.75744963  0.41914171  0.81247221  1
  Se  Se221  1  0.74740861  0.74889935  0.30535498  1
  Se  Se222  1  0.74952046  0.75659322  0.80432105  1
  Se  Se223  1  0.25117172  0.08503968  0.19292561  1
  Se  Se224  1  0.24656806  0.09087618  0.69107317  1
  Se  Se225  1  0.22163012  0.43304799  0.19449539  1
  Se  Se226  1  0.25322470  0.41529316  0.69682415  1
  Se  Se227  1  0.24492882  0.76184552  0.18535139  1
  Se  Se228  1  0.25169736  0.74382338  0.70265083  1
  Se  Se229  1  0.61210961  0.07597502  0.19775219  1
  Se  Se230  1  0.58116417  0.08958871  0.69100289  1
  Se  Se231  1  0.60022997  0.39692985  0.19443840  1
  Se  Se232  1  0.57853862  0.42320697  0.69102780  1
  Se  Se233  1  0.58228383  0.74231772  0.19685110  1
  Se  Se234  1  0.57423116  0.75731253  0.68326091  1
  Se  Se235  1  0.91648112  0.08738317  0.20361623  1
  Se  Se236  1  0.91691394  0.08724600  0.68164541  1
  Se  Se237  1  0.91193405  0.42647830  0.18953017  1
  Se  Se238  1  0.92345816  0.40840699  0.69896569  1
  Se  Se239  1  0.91622787  0.75385027  0.19753196  1
  Se  Se240  1  0.91939040  0.74858576  0.69777365  1
  Se  Se241  1  0.08562234  0.24832848  0.19170517  1
  Se  Se242  1  0.08185790  0.24855954  0.69289967  1
  Se  Se243  1  0.07889594  0.60292220  0.19514870  1
  Se  Se244  1  0.09290584  0.56921127  0.68645633  1
  Se  Se245  1  0.08593048  0.92239706  0.19247692  1
  Se  Se246  1  0.09012565  0.90531738  0.69431112  1
  Se  Se247  1  0.38937647  0.28622594  0.19960518  1
  Se  Se248  1  0.41667468  0.25855219  0.69418359  1
  Se  Se249  1  0.42015838  0.56744686  0.19187708  1
  Se  Se250  1  0.41623703  0.58697245  0.69623504  1
  Se  Se251  1  0.42295253  0.91039036  0.20248142  1
  Se  Se252  1  0.42257757  0.91517111  0.68606699  1
  Se  Se253  1  0.77856155  0.23689940  0.21901547  1
  Se  Se254  1  0.75486779  0.24326271  0.68457104  1
  Se  Se255  1  0.74471529  0.58971666  0.19550704  1
  Se  Se256  1  0.76383803  0.57053976  0.68800119  1
  Se  Se257  1  0.75092798  0.90793752  0.19156149  1
  Se  Se258  1  0.75006220  0.91806888  0.69108776  1
