# generated using pymatgen
data_In86Cu29Se144
_symmetry_space_group_name_H-M   'P 1'
_cell_length_a   17.54907277
_cell_length_b   17.55111246
_cell_length_c   23.40304101
_cell_angle_alpha   89.99041565
_cell_angle_beta   90.00996282
_cell_angle_gamma   89.98862344
_symmetry_Int_Tables_number   1
_chemical_formula_structural   In86Cu29Se144
_chemical_formula_sum   'In86 Cu29 Se144'
_cell_volume   7208.27084097
_cell_formula_units_Z   1
loop_
 _symmetry_equiv_pos_site_id
 _symmetry_equiv_pos_as_xyz
  1  'x, y, z'
loop_
 _atom_site_type_symbol
 _atom_site_label
 _atom_site_symmetry_multiplicity
 _atom_site_fract_x
 _atom_site_fract_y
 _atom_site_fract_z
 _atom_site_occupancy
  In  In0  1  0.01273387  0.14971090  0.14064829  1
  In  In1  1  -0.00645210  0.17787477  0.61887837  1
  In  In2  1  0.02322761  0.49700906  0.15356520  1
  In  In3  1  0.03829553  0.52909774  0.56853207  1
  In  In4  1  0.00317305  0.82519996  0.13488576  1
  In  In5  1  0.00218464  0.83105666  0.61751411  1
  In  In6  1  0.33215072  0.16883125  0.12808535  1
  In  In7  1  0.34520954  0.17213896  0.62817891  1
  In  In8  1  0.33189915  0.48655255  0.12996314  1
  In  In9  1  0.33539412  0.49732495  0.62524560  1
  In  In10  1  0.34034699  0.83998782  0.11577477  1
  In  In11  1  0.31225817  0.82529002  0.61944782  1
  In  In12  1  0.65690543  0.16690534  0.12691731  1
  In  In13  1  0.68379007  0.16421566  0.62457485  1
  In  In14  1  0.66296732  0.50772079  0.12702769  1
  In  In15  1  0.68229689  0.50788843  0.60464800  1
  In  In16  1  0.66373776  0.84235445  0.12918093  1
  In  In17  1  0.66814150  0.81914107  0.62656263  1
  In  In18  1  0.15282917  -0.00627250  0.36077766  1
  In  In19  1  0.16235089  0.00038450  0.88050242  1
  In  In20  1  0.17246777  0.34651576  0.37142356  1
  In  In21  1  0.16974251  0.31885266  0.87531182  1
  In  In22  1  0.15064864  0.67203624  0.39375559  1
  In  In23  1  0.17042519  0.67261719  0.86765129  1
  In  In24  1  0.50654781  0.00651015  0.36053916  1
  In  In25  1  0.49510345  0.00600985  0.88934389  1
  In  In26  1  0.49799937  0.33986612  0.37660242  1
  In  In27  1  0.48911627  0.34591919  0.88205538  1
  In  In28  1  0.49330574  0.65386443  0.37694658  1
  In  In29  1  0.49647698  0.66489101  0.87439725  1
  In  In30  1  0.83813976  -0.00328250  0.36898396  1
  In  In31  1  0.83618661  -0.01535164  0.87089403  1
  In  In32  1  0.84969101  0.31624895  0.41060818  1
  In  In33  1  0.83737114  0.34267077  0.86973678  1
  In  In34  1  0.85630037  0.66044568  0.39296105  1
  In  In35  1  0.83524931  0.67521500  0.85806734  1
  In  In36  1  -0.01508608  0.15989084  0.36049257  1
  In  In37  1  0.01908702  0.16442801  0.87847359  1
  In  In38  1  0.00617563  0.49299275  0.38135981  1
  In  In39  1  -0.01005436  0.50349630  0.86970631  1
  In  In40  1  -0.00222768  0.83417888  0.38021698  1
  In  In41  1  0.00348899  0.83697145  0.86780116  1
  In  In42  1  0.33574495  0.17356153  0.36384225  1
  In  In43  1  0.32659454  0.17131951  0.87947379  1
  In  In44  1  0.33127789  0.48425801  0.38883049  1
  In  In45  1  0.33603575  0.51114292  0.86580557  1
  In  In46  1  0.31956422  0.83169421  0.37522450  1
  In  In47  1  0.33546612  0.82913159  0.88412183  1
  In  In48  1  0.70439172  0.16734409  0.36945325  1
  In  In49  1  0.66578787  0.15254886  0.87812544  1
  In  In50  1  0.66649500  0.48069090  0.39490277  1
  In  In51  1  0.65196262  0.49536696  0.86986119  1
  In  In52  1  0.67905636  0.85141975  0.36382869  1
  In  In53  1  0.66820558  0.82195271  0.87302766  1
  In  In54  1  0.16833667  0.00151926  0.12550042  1
  In  In55  1  0.16444058  -0.02274506  0.61714469  1
  In  In56  1  0.18226574  0.32769986  0.14400100  1
  In  In57  1  0.17375407  0.35696427  0.60756488  1
  In  In58  1  0.15050342  0.67262199  0.12868961  1
  In  In59  1  0.16140915  0.67029502  0.62474388  1
  In  In60  1  0.49380896  0.00230833  0.12610298  1
  In  In61  1  0.50619966  0.00944994  0.62648078  1
  In  In62  1  0.48843781  0.32311152  0.11882407  1
  In  In63  1  0.48629453  0.34366381  0.62928567  1
  In  In64  1  0.49329654  0.66060412  0.11320888  1
  In  In65  1  0.51025675  0.65602217  0.63414268  1
  In  In66  1  0.84729279  -0.01603304  0.16138334  1
  In  In67  1  0.85477688  0.01717042  0.61315257  1
  In  In68  1  0.84216975  0.33759247  0.13696886  1
  In  In69  1  0.86652640  0.36522631  0.58641892  1
  In  In70  1  0.85001936  0.67785904  0.13203657  1
  In  In71  1  0.83997222  0.66569131  0.61050927  1
  In  In72  1  0.16303032  0.17038796  0.49204619  1
  In  In73  1  0.31951501  0.66156843  0.25960450  1
  In  In74  1  0.17121136  0.50375673  0.00363028  1
  In  In75  1  0.50432945  0.83006827  0.50262681  1
  In  In76  1  0.82866220  0.83385110  0.00830767  1
  In  In77  1  0.32977703  -0.00645499  0.74796784  1
  In  In78  1  0.50786255  0.17432528  0.49243538  1
  In  In79  1  0.82989316  0.50421272  0.00315492  1
  In  In80  1  0.82504068  0.16180292  0.01090783  1
  In  In81  1  0.00665400  0.34144215  0.73398767  1
  In  In82  1  0.67426241  0.66304477  0.25850683  1
  In  In83  1  0.67095082  -0.00973770  0.75253804  1
  In  In84  1  0.66968030  0.33252958  0.73780321  1
  In  In85  1  0.66805129  0.33004176  0.25733952  1
  Cu  Cu86  1  0.65879925  0.32883625  0.00014875  1
  Cu  Cu87  1  0.84105486  0.50107717  0.26568411  1
  Cu  Cu88  1  0.15614400  0.82558963  0.74599012  1
  Cu  Cu89  1  0.15969767  0.50136540  0.73714310  1
  Cu  Cu90  1  0.49463342  0.49240526  0.25258549  1
  Cu  Cu91  1  0.84007845  0.83134752  0.73842957  1
  Cu  Cu92  1  0.83487087  0.51428417  0.73465029  1
  Cu  Cu93  1  0.49744497  0.16707737  0.24710169  1
  Cu  Cu94  1  -0.00197624  0.66864557  0.00384225  1
  Cu  Cu95  1  0.49814383  0.83167899  0.24208410  1
  Cu  Cu96  1  0.16490013  0.17431742  0.25120773  1
  Cu  Cu97  1  0.32729957  0.00567333  0.00493101  1
  Cu  Cu98  1  0.33288833  0.00003526  0.48967682  1
  Cu  Cu99  1  0.33109936  0.65702056  0.50099005  1
  Cu  Cu100  1  0.48913064  0.82666772  0.75327912  1
  Cu  Cu101  1  0.00250075  -0.00309462  0.48942094  1
  Cu  Cu102  1  0.84685998  0.17159535  0.74147107  1
  Cu  Cu103  1  0.00057676  0.00331485  0.00434864  1
  Cu  Cu104  1  0.16610431  0.83581018  0.25381493  1
  Cu  Cu105  1  0.66375403  0.67698457  0.49894818  1
  Cu  Cu106  1  0.49913196  0.50719628  0.75113348  1
  Cu  Cu107  1  0.49856861  0.17973197  0.75688468  1
  Cu  Cu108  1  0.65609072  0.00421783  0.01010593  1
  Cu  Cu109  1  0.68236513  0.00038645  0.49471032  1
  Cu  Cu110  1  0.33500315  0.33344083  0.00331302  1
  Cu  Cu111  1  0.33118514  0.66691505  -0.00562016  1
  Cu  Cu112  1  0.16759763  0.16038873  0.75073742  1
  Cu  Cu113  1  0.65807311  0.66189069  -0.00525365  1
  Cu  Cu114  1  0.01057533  0.32793678  0.00927299  1
  Se  Se115  1  0.08439557  0.08726849  0.05628589  1
  Se  Se116  1  0.08029362  0.07594290  0.55584746  1
  Se  Se117  1  0.08369065  0.41623996  0.06811028  1
  Se  Se118  1  0.04421772  0.37990806  0.55897589  1
  Se  Se119  1  0.07988432  0.75701843  0.05398940  1
  Se  Se120  1  0.08876362  0.75231488  0.55028643  1
  Se  Se121  1  0.41388567  0.08802336  0.05679382  1
  Se  Se122  1  0.41248330  0.07753182  0.55225259  1
  Se  Se123  1  0.41690027  0.42156311  0.05382759  1
  Se  Se124  1  0.41663501  0.41909333  0.55190236  1
  Se  Se125  1  0.41685023  0.75090030  0.04730759  1
  Se  Se126  1  0.41289938  0.74000302  0.56104176  1
  Se  Se127  1  0.74846132  0.06458458  0.07374084  1
  Se  Se128  1  0.75928111  0.09058126  0.54749519  1
  Se  Se129  1  0.74309194  0.40519264  0.06251860  1
  Se  Se130  1  0.72909154  0.39010663  0.54957317  1
  Se  Se131  1  0.74062430  0.73329910  0.06228495  1
  Se  Se132  1  0.75172777  0.75700080  0.54927131  1
  Se  Se133  1  0.24951439  0.25749284  0.06075052  1
  Se  Se134  1  0.25941078  0.25065020  0.55597400  1
  Se  Se135  1  0.25727333  0.59564560  0.06646554  1
  Se  Se136  1  0.24716674  0.58097317  0.55966510  1
  Se  Se137  1  0.24447988  0.91678457  0.05321194  1
  Se  Se138  1  0.25238800  0.91323445  0.54204934  1
  Se  Se139  1  0.57798907  0.24361345  0.05282778  1
  Se  Se140  1  0.58188477  0.24989210  0.57117965  1
  Se  Se141  1  0.58075514  0.57442656  0.05008887  1
  Se  Se142  1  0.58084447  0.59056336  0.55070319  1
  Se  Se143  1  0.57600222  0.91266900  0.05825621  1
  Se  Se144  1  0.59587650  0.92870510  0.55744292  1
  Se  Se145  1  0.92295875  0.25103310  0.06569883  1
  Se  Se146  1  0.91221399  0.23862049  0.53995654  1
  Se  Se147  1  0.92771979  0.58144364  0.06567035  1
  Se  Se148  1  0.89293342  0.55481404  0.54692987  1
  Se  Se149  1  0.91836376  0.92596657  0.06672347  1
  Se  Se150  1  0.91981557  0.91732029  0.54871876  1
  Se  Se151  1  0.07515787  0.24976586  0.42628054  1
  Se  Se152  1  0.09119422  0.24650753  0.95271737  1
  Se  Se153  1  0.08079159  0.57219099  0.45936028  1
  Se  Se154  1  0.07491567  0.58675116  0.94150949  1
  Se  Se155  1  0.09430277  0.91652049  0.44362427  1
  Se  Se156  1  0.07437114  0.91588204  0.94523168  1
  Se  Se157  1  0.40211402  0.25641803  0.44374298  1
  Se  Se158  1  0.41617093  0.24957891  0.94614756  1
  Se  Se159  1  0.41740518  0.57538900  0.45003568  1
  Se  Se160  1  0.41446193  0.58051100  0.94435578  1
  Se  Se161  1  0.42161628  0.92104869  0.43536367  1
  Se  Se162  1  0.41077964  0.91950565  0.95191957  1
  Se  Se163  1  0.71798428  0.26872865  0.44733095  1
  Se  Se164  1  0.74874354  0.25750502  0.93905040  1
  Se  Se165  1  0.74058728  0.59169092  0.44226842  1
  Se  Se166  1  0.74699535  0.59143106  0.93330962  1
  Se  Se167  1  0.76065814  0.91157290  0.44381182  1
  Se  Se168  1  0.73667211  0.92531030  0.94543970  1
  Se  Se169  1  0.25188584  0.07902865  0.43087542  1
  Se  Se170  1  0.24500911  0.08617160  0.94640706  1
  Se  Se171  1  0.23518338  0.41680915  0.45627971  1
  Se  Se172  1  0.25609310  0.41270579  0.93967880  1
  Se  Se173  1  0.25372893  0.74778858  0.45056163  1
  Se  Se174  1  0.24087295  0.74857028  0.94653119  1
  Se  Se175  1  0.59543874  0.07762700  0.43643838  1
  Se  Se176  1  0.57933245  0.09182674  0.95489347  1
  Se  Se177  1  0.55985158  0.42095089  0.45601330  1
  Se  Se178  1  0.58201396  0.42046944  0.94919593  1
  Se  Se179  1  0.58833245  0.75064920  0.43012715  1
  Se  Se180  1  0.57972399  0.75161888  0.94316945  1
  Se  Se181  1  0.91685676  0.08193445  0.44085366  1
  Se  Se182  1  0.91545802  0.07719780  0.94133680  1
  Se  Se183  1  0.89532234  0.44477399  0.45034483  1
  Se  Se184  1  0.92866168  0.40795047  0.94827942  1
  Se  Se185  1  0.93248492  0.75055685  0.45850938  1
  Se  Se186  1  0.91502659  0.74540230  0.94147016  1
  Se  Se187  1  0.25017071  0.25929401  0.30059196  1
  Se  Se188  1  0.25173104  0.24595308  0.80094763  1
  Se  Se189  1  0.23984395  0.57956908  0.32868549  1
  Se  Se190  1  0.24043045  0.58009951  0.79862888  1
  Se  Se191  1  0.25575266  0.91973291  0.30086566  1
  Se  Se192  1  0.23927672  0.90483072  0.80832481  1
  Se  Se193  1  0.57784677  0.23656078  0.31570417  1
  Se  Se194  1  0.58753614  0.25259153  0.81451071  1
  Se  Se195  1  0.58217609  0.56598072  0.31156148  1
  Se  Se196  1  0.58537312  0.59010852  0.80248062  1
  Se  Se197  1  0.58325688  0.91507639  0.29399164  1
  Se  Se198  1  0.56779976  0.91239991  0.81258990  1
  Se  Se199  1  0.88850656  0.25486800  0.31571754  1
  Se  Se200  1  0.92428343  0.25104137  0.80699115  1
  Se  Se201  1  0.92714814  0.58551003  0.31367359  1
  Se  Se202  1  0.92077987  0.58752952  0.79539249  1
  Se  Se203  1  0.93296275  0.92201942  0.30519044  1
  Se  Se204  1  0.91883614  0.91632100  0.79660133  1
  Se  Se205  1  0.07799887  0.08526807  0.29477939  1
  Se  Se206  1  0.08474684  0.07836965  0.80388693  1
  Se  Se207  1  0.07484479  0.41210496  0.30432898  1
  Se  Se208  1  0.09147726  0.42160202  0.80938392  1
  Se  Se209  1  0.09035763  0.75374121  0.31327595  1
  Se  Se210  1  0.07339919  0.74130511  0.80063007  1
  Se  Se211  1  0.41079451  0.08161562  0.29714971  1
  Se  Se212  1  0.42138571  0.08513618  0.80811298  1
  Se  Se213  1  0.40875160  0.41495936  0.30730628  1
  Se  Se214  1  0.41719254  0.41864164  0.80229966  1
  Se  Se215  1  0.42299475  0.75448133  0.30879169  1
  Se  Se216  1  0.40591410  0.74640212  0.80841361  1
  Se  Se217  1  0.73467887  0.05838758  0.30214372  1
  Se  Se218  1  0.76524568  0.09203976  0.80380672  1
  Se  Se219  1  0.75647858  0.41819993  0.31818261  1
  Se  Se220  1  0.75892342  0.43095957  0.79870826  1
  Se  Se221  1  0.76686291  0.74561471  0.31847397  1
  Se  Se222  1  0.74765729  0.75755832  0.79283455  1
  Se  Se223  1  0.24643792  0.08799933  0.19611439  1
  Se  Se224  1  0.24424183  0.08272250  0.68338426  1
  Se  Se225  1  0.23386933  0.44140047  0.20251659  1
  Se  Se226  1  0.24775417  0.41318702  0.69347491  1
  Se  Se227  1  0.24924231  0.75897542  0.19105765  1
  Se  Se228  1  0.24772311  0.74535252  0.69829774  1
  Se  Se229  1  0.58057573  0.08075075  0.19651416  1
  Se  Se230  1  0.58328234  0.09688481  0.70015688  1
  Se  Se231  1  0.57773487  0.41683573  0.19125092  1
  Se  Se232  1  0.58269292  0.43349830  0.68736870  1
  Se  Se233  1  0.57674172  0.74022367  0.19041655  1
  Se  Se234  1  0.58186886  0.75192288  0.70082827  1
  Se  Se235  1  0.90701261  0.10018591  0.20808379  1
  Se  Se236  1  0.93172495  0.08503278  0.69340102  1
  Se  Se237  1  0.92135500  0.41736237  0.20780722  1
  Se  Se238  1  0.91673059  0.43238577  0.67913020  1
  Se  Se239  1  0.91878616  0.75381512  0.20845976  1
  Se  Se240  1  0.91957113  0.74439547  0.68515906  1
  Se  Se241  1  0.07587429  0.25831691  0.20080267  1
  Se  Se242  1  0.10024657  0.24486610  0.68386228  1
  Se  Se243  1  0.08619051  0.60311758  0.21149658  1
  Se  Se244  1  0.07362384  0.56815493  0.67455036  1
  Se  Se245  1  0.08597595  0.91855961  0.19563205  1
  Se  Se246  1  0.07918918  0.91453738  0.69317591  1
  Se  Se247  1  0.41362529  0.25504059  0.19846287  1
  Se  Se248  1  0.41286723  0.25765469  0.70250407  1
  Se  Se249  1  0.42029455  0.58224331  0.19596829  1
  Se  Se250  1  0.41072603  0.58592338  0.69696108  1
  Se  Se251  1  0.41119179  0.91635324  0.19433051  1
  Se  Se252  1  0.42164093  0.90738073  0.68419500  1
  Se  Se253  1  0.75554443  0.24019156  0.19454891  1
  Se  Se254  1  0.77428106  0.25616059  0.68252980  1
  Se  Se255  1  0.76545615  0.57278841  0.19500910  1
  Se  Se256  1  0.74660746  0.59235817  0.68235594  1
  Se  Se257  1  0.75951748  0.88272722  0.20513861  1
  Se  Se258  1  0.76129671  0.91896524  0.68102714  1
