# generated using pymatgen
data_In86Cu29Se144
_symmetry_space_group_name_H-M   'P 1'
_cell_length_a   17.57705764
_cell_length_b   17.58114332
_cell_length_c   23.43842622
_cell_angle_alpha   90.03482223
_cell_angle_beta   90.00313460
_cell_angle_gamma   89.96719684
_symmetry_Int_Tables_number   1
_chemical_formula_structural   In86Cu29Se144
_chemical_formula_sum   'In86 Cu29 Se144'
_cell_volume   7243.05172615
_cell_formula_units_Z   1
loop_
 _symmetry_equiv_pos_site_id
 _symmetry_equiv_pos_as_xyz
  1  'x, y, z'
loop_
 _atom_site_type_symbol
 _atom_site_label
 _atom_site_symmetry_multiplicity
 _atom_site_fract_x
 _atom_site_fract_y
 _atom_site_fract_z
 _atom_site_occupancy
  In  In0  1  0.00661140  0.16987325  0.12468727  1
  In  In1  1  -0.00520102  0.17006431  0.62882548  1
  In  In2  1  -0.01008251  0.49670705  0.12747163  1
  In  In3  1  0.00799796  0.48504376  0.63398647  1
  In  In4  1  0.00761960  0.82645629  0.11906424  1
  In  In5  1  -0.00471745  0.83696000  0.62187796  1
  In  In6  1  0.34316531  0.17301614  0.11847954  1
  In  In7  1  0.34188714  0.16906913  0.64158369  1
  In  In8  1  0.34780143  0.48721733  0.13326245  1
  In  In9  1  0.33786392  0.49969250  0.62430108  1
  In  In10  1  0.32252755  0.83512683  0.12425298  1
  In  In11  1  0.33559588  0.82641517  0.62582488  1
  In  In12  1  0.66995076  0.18189516  0.12467346  1
  In  In13  1  0.65961109  0.15134214  0.62763019  1
  In  In14  1  0.65666927  0.50554149  0.13281075  1
  In  In15  1  0.67497190  0.51344244  0.62334562  1
  In  In16  1  0.65280791  0.82638359  0.12594082  1
  In  In17  1  0.66635313  0.83334840  0.62493251  1
  In  In18  1  0.15554726  -0.00549155  0.38337623  1
  In  In19  1  0.16068290  -0.00892908  0.86762991  1
  In  In20  1  0.17914376  0.34577296  0.36810915  1
  In  In21  1  0.17154662  0.33542307  0.86840724  1
  In  In22  1  0.16797417  0.66203107  0.38616086  1
  In  In23  1  0.17444247  0.67595442  0.86482575  1
  In  In24  1  0.48690674  -0.00640199  0.37921546  1
  In  In25  1  0.51382444  0.01950588  0.85506510  1
  In  In26  1  0.50822242  0.34849685  0.36996487  1
  In  In27  1  0.49046821  0.34151946  0.88483135  1
  In  In28  1  0.49769712  0.66529060  0.37796141  1
  In  In29  1  0.49142460  0.65933779  0.86715368  1
  In  In30  1  0.83480305  0.00451716  0.39301105  1
  In  In31  1  0.83235418  -0.00102197  0.86639788  1
  In  In32  1  0.82278584  0.32907038  0.37545069  1
  In  In33  1  0.83495070  0.32583645  0.86964050  1
  In  In34  1  0.83016210  0.67729551  0.37924744  1
  In  In35  1  0.83265707  0.66188058  0.85434028  1
  In  In36  1  -0.01898703  0.17253216  0.38397544  1
  In  In37  1  -0.00255653  0.16075530  0.86466203  1
  In  In38  1  0.01536663  0.50314846  0.37972147  1
  In  In39  1  -0.00267752  0.50007628  0.85423486  1
  In  In40  1  -0.00164246  0.83897562  0.39708981  1
  In  In41  1  0.01473773  0.84403459  0.86177996  1
  In  In42  1  0.32285907  0.17198361  0.37310556  1
  In  In43  1  0.35479640  0.18071767  0.85496482  1
  In  In44  1  0.33312727  0.50548315  0.37801923  1
  In  In45  1  0.33798934  0.50355079  0.87336226  1
  In  In46  1  0.34084250  0.82557041  0.38717699  1
  In  In47  1  0.32773121  0.82865271  0.86597141  1
  In  In48  1  0.66656789  0.18482491  0.38253868  1
  In  In49  1  0.65626268  0.15662811  0.87102158  1
  In  In50  1  0.64887957  0.48980746  0.37483815  1
  In  In51  1  0.65149714  0.49554493  0.87357539  1
  In  In52  1  0.67471980  0.82548558  0.38222111  1
  In  In53  1  0.67085956  0.83813178  0.86636328  1
  In  In54  1  0.17449464  -0.00631770  0.11612962  1
  In  In55  1  0.17373377  -0.00907360  0.63044397  1
  In  In56  1  0.16572662  0.33222444  0.13133313  1
  In  In57  1  0.16854544  0.33524009  0.62858899  1
  In  In58  1  0.17156931  0.68292992  0.12047092  1
  In  In59  1  0.16955767  0.66319480  0.62416085  1
  In  In60  1  0.48639858  -0.00097394  0.11627180  1
  In  In61  1  0.51206943  -0.00545592  0.64096142  1
  In  In62  1  0.49676848  0.33981977  0.12406783  1
  In  In63  1  0.48798932  0.32609231  0.62509104  1
  In  In64  1  0.50464495  0.65584223  0.13183419  1
  In  In65  1  0.50077566  0.66540066  0.62481292  1
  In  In66  1  0.83216493  0.00299674  0.12079973  1
  In  In67  1  0.83477044  -0.00392780  0.62358972  1
  In  In68  1  0.82995404  0.33085880  0.13656382  1
  In  In69  1  0.84801488  0.34038468  0.62211513  1
  In  In70  1  0.83103621  0.65774765  0.12781518  1
  In  In71  1  0.81922291  0.67247176  0.63346633  1
  In  In72  1  0.00046033  0.00339674  0.26006894  1
  In  In73  1  0.67338931  0.34055881  0.74702406  1
  In  In74  1  0.66482473  0.00275671  0.24798703  1
  In  In75  1  0.49603196  0.83715433  -0.00461064  1
  In  In76  1  0.17017963  0.15988293  -0.00171249  1
  In  In77  1  0.00478804  0.66270808  0.25642256  1
  In  In78  1  0.32939956  0.00391915  0.24466515  1
  In  In79  1  0.83745144  0.83650517  -0.01443707  1
  In  In80  1  0.83488788  0.50197564  0.50483808  1
  In  In81  1  0.17448009  0.50452468  -0.00708148  1
  In  In82  1  0.82983709  0.50106096  -0.00239234  1
  In  In83  1  0.82752481  0.16374791  -0.01030863  1
  In  In84  1  0.50177829  0.16379028  0.50351316  1
  In  In85  1  0.16538510  0.16504753  0.50852314  1
  Cu  Cu86  1  0.83652126  0.16581237  0.74767196  1
  Cu  Cu87  1  0.00110501  0.33150399  -0.00040254  1
  Cu  Cu88  1  0.66022003  0.66848082  0.50245930  1
  Cu  Cu89  1  0.32921735  -0.00086832  -0.01109783  1
  Cu  Cu90  1  0.82788853  0.49524664  0.25270902  1
  Cu  Cu91  1  0.82961431  0.17204502  0.25669294  1
  Cu  Cu92  1  0.33537540  -0.00783201  0.50913583  1
  Cu  Cu93  1  0.65399956  0.33764798  0.00352339  1
  Cu  Cu94  1  0.49413424  0.50247450  0.25252159  1
  Cu  Cu95  1  0.16326626  0.16430127  0.74843807  1
  Cu  Cu96  1  0.83074236  0.83694078  0.74333287  1
  Cu  Cu97  1  0.16345245  0.82550220  0.74184395  1
  Cu  Cu98  1  0.00748037  0.33271600  0.50450951  1
  Cu  Cu99  1  0.66567246  -0.00508688  0.50774701  1
  Cu  Cu100  1  0.17570105  0.49752826  0.74728738  1
  Cu  Cu101  1  0.33593213  0.66697072  -0.00615549  1
  Cu  Cu102  1  0.83039806  0.82982177  0.25678833  1
  Cu  Cu103  1  0.50147392  0.82082541  0.25594770  1
  Cu  Cu104  1  0.66508930  0.67051642  0.00066358  1
  Cu  Cu105  1  0.50101854  0.17793331  0.24607824  1
  Cu  Cu106  1  0.33506885  0.66348757  0.50367343  1
  Cu  Cu107  1  0.33592845  0.34059342  0.49809559  1
  Cu  Cu108  1  0.16921015  0.83181117  0.25326530  1
  Cu  Cu109  1  0.49930088  0.82831709  0.74757316  1
  Cu  Cu110  1  0.17079366  0.50489788  0.25383070  1
  Cu  Cu111  1  0.00881215  0.67378107  -0.00924017  1
  Cu  Cu112  1  0.50012206  0.50398289  0.74922969  1
  Cu  Cu113  1  0.16267927  0.18017870  0.24967054  1
  Cu  Cu114  1  0.00051739  0.66609306  0.50836690  1
  Se  Se115  1  0.07186799  0.07185720  0.05565894  1
  Se  Se116  1  0.07778163  0.07364604  0.56474904  1
  Se  Se117  1  0.07909993  0.41606557  0.05623971  1
  Se  Se118  1  0.08995343  0.41691169  0.55592730  1
  Se  Se119  1  0.09064796  0.75563637  0.04488939  1
  Se  Se120  1  0.08525344  0.75030523  0.55881478  1
  Se  Se121  1  0.40904435  0.08148699  0.04636550  1
  Se  Se122  1  0.41306688  0.07698302  0.56645279  1
  Se  Se123  1  0.41827799  0.42165992  0.05242228  1
  Se  Se124  1  0.42206955  0.41752810  0.55339779  1
  Se  Se125  1  0.41392073  0.74499601  0.06018540  1
  Se  Se126  1  0.41982949  0.74854069  0.55422068  1
  Se  Se127  1  0.73769513  0.07932388  0.05608666  1
  Se  Se128  1  0.74862719  0.08217104  0.55626456  1
  Se  Se129  1  0.74494187  0.41082992  0.06174772  1
  Se  Se130  1  0.74270599  0.40792169  0.55798822  1
  Se  Se131  1  0.75084121  0.74828632  0.05692492  1
  Se  Se132  1  0.74804307  0.74865861  0.55465361  1
  Se  Se133  1  0.25197923  0.26054658  0.05472476  1
  Se  Se134  1  0.26587568  0.25238071  0.56034468  1
  Se  Se135  1  0.25910853  0.58956425  0.06001944  1
  Se  Se136  1  0.25141999  0.57859699  0.55495983  1
  Se  Se137  1  0.25244562  0.91237411  0.04518244  1
  Se  Se138  1  0.24888529  0.90854859  0.55710139  1
  Se  Se139  1  0.57700853  0.24895216  0.05632844  1
  Se  Se140  1  0.59195937  0.25482651  0.56044539  1
  Se  Se141  1  0.58634052  0.58568714  0.05545914  1
  Se  Se142  1  0.58163660  0.58048382  0.55391322  1
  Se  Se143  1  0.59132470  0.92475067  0.05561019  1
  Se  Se144  1  0.57705982  0.91747048  0.55953898  1
  Se  Se145  1  0.91493085  0.25500406  0.05683095  1
  Se  Se146  1  0.92017684  0.24965517  0.55237578  1
  Se  Se147  1  0.92847352  0.59530377  0.05226468  1
  Se  Se148  1  0.92221363  0.58632672  0.56962682  1
  Se  Se149  1  0.92308002  0.92075473  0.05616536  1
  Se  Se150  1  0.90334558  0.90607848  0.55217272  1
  Se  Se151  1  0.08754693  0.25663016  0.43934584  1
  Se  Se152  1  0.07764563  0.25203003  0.93808785  1
  Se  Se153  1  0.08467895  0.58177264  0.45639138  1
  Se  Se154  1  0.07766284  0.58438008  0.93114166  1
  Se  Se155  1  0.09328252  0.91190389  0.45930355  1
  Se  Se156  1  0.08469881  0.91283132  0.94286984  1
  Se  Se157  1  0.41270852  0.25302595  0.43977594  1
  Se  Se158  1  0.42060655  0.23704609  0.94301767  1
  Se  Se159  1  0.41930109  0.58125987  0.44895093  1
  Se  Se160  1  0.42095850  0.58222273  0.94581595  1
  Se  Se161  1  0.42144521  0.91169465  0.45552035  1
  Se  Se162  1  0.41403139  0.92307918  0.92900890  1
  Se  Se163  1  0.76794312  0.23645193  0.45053699  1
  Se  Se164  1  0.73465672  0.26220928  0.93994645  1
  Se  Se165  1  0.74163905  0.58623260  0.44174330  1
  Se  Se166  1  0.74494079  0.59366398  0.93688690  1
  Se  Se167  1  0.74932253  0.91346877  0.45159564  1
  Se  Se168  1  0.73814789  0.93100146  0.94145223  1
  Se  Se169  1  0.25992343  0.07489185  0.44654852  1
  Se  Se170  1  0.25458084  0.08232920  0.92771837  1
  Se  Se171  1  0.24819677  0.42131593  0.44718391  1
  Se  Se172  1  0.26168932  0.40483392  0.94242798  1
  Se  Se173  1  0.24945947  0.74893472  0.45235417  1
  Se  Se174  1  0.25138885  0.74923807  0.94242233  1
  Se  Se175  1  0.59063263  0.07261055  0.43935357  1
  Se  Se176  1  0.57203448  0.08579752  0.94281375  1
  Se  Se177  1  0.58591716  0.40640836  0.45189980  1
  Se  Se178  1  0.57609965  0.42627399  0.95191914  1
  Se  Se179  1  0.57937470  0.75216088  0.44642566  1
  Se  Se180  1  0.58827042  0.74733679  0.93655129  1
  Se  Se181  1  0.93962824  0.06777823  0.45254599  1
  Se  Se182  1  0.92488798  0.07254571  0.94027348  1
  Se  Se183  1  0.92537299  0.41248034  0.44261157  1
  Se  Se184  1  0.92429736  0.41337691  0.93803854  1
  Se  Se185  1  0.91375998  0.74500517  0.45430742  1
  Se  Se186  1  0.92201091  0.74127482  0.92788478  1
  Se  Se187  1  0.25534256  0.25654210  0.29882723  1
  Se  Se188  1  0.24833813  0.25044235  0.79855707  1
  Se  Se189  1  0.24754935  0.58997849  0.30974478  1
  Se  Se190  1  0.25485595  0.58275121  0.80314246  1
  Se  Se191  1  0.24765583  0.91599839  0.31254763  1
  Se  Se192  1  0.24386299  0.91029872  0.79765247  1
  Se  Se193  1  0.58434245  0.25212743  0.30586764  1
  Se  Se194  1  0.58189970  0.26058654  0.81189581  1
  Se  Se195  1  0.58003639  0.58363023  0.30645216  1
  Se  Se196  1  0.58678996  0.58602990  0.80096477  1
  Se  Se197  1  0.57706815  0.91219272  0.31019398  1
  Se  Se198  1  0.58462439  0.91493243  0.79724655  1
  Se  Se199  1  0.91653413  0.25515800  0.30651116  1
  Se  Se200  1  0.91979457  0.25165261  0.79892082  1
  Se  Se201  1  0.90850475  0.57507397  0.31410107  1
  Se  Se202  1  0.91955334  0.58513520  0.78796279  1
  Se  Se203  1  0.91017616  0.90900631  0.31597767  1
  Se  Se204  1  0.91565487  0.91685849  0.79922587  1
  Se  Se205  1  0.09165844  0.09820613  0.31481607  1
  Se  Se206  1  0.08016797  0.07723294  0.79838663  1
  Se  Se207  1  0.08369521  0.42138781  0.30305156  1
  Se  Se208  1  0.08857229  0.41263510  0.79752557  1
  Se  Se209  1  0.08433432  0.76101650  0.31641381  1
  Se  Se210  1  0.07893297  0.74290926  0.79638790  1
  Se  Se211  1  0.42358395  0.09316302  0.30587986  1
  Se  Se212  1  0.39966350  0.06555374  0.79583950  1
  Se  Se213  1  0.41057076  0.41926988  0.30641550  1
  Se  Se214  1  0.42079735  0.41922048  0.80538586  1
  Se  Se215  1  0.41041432  0.74731244  0.30894161  1
  Se  Se216  1  0.41351705  0.74572691  0.79944897  1
  Se  Se217  1  0.75460568  0.08445000  0.31427212  1
  Se  Se218  1  0.75027194  0.08797676  0.80270162  1
  Se  Se219  1  0.74360758  0.41565344  0.30817951  1
  Se  Se220  1  0.76025538  0.42970068  0.81093979  1
  Se  Se221  1  0.74458562  0.74528692  0.30400497  1
  Se  Se222  1  0.74631422  0.75284007  0.79604389  1
  Se  Se223  1  0.23651854  0.09597835  0.18672081  1
  Se  Se224  1  0.24953113  0.08166616  0.69785670  1
  Se  Se225  1  0.24766986  0.41832086  0.19692753  1
  Se  Se226  1  0.25905527  0.41291232  0.69470486  1
  Se  Se227  1  0.25214333  0.75063985  0.19890240  1
  Se  Se228  1  0.25368053  0.74269189  0.69536877  1
  Se  Se229  1  0.57092538  0.08797164  0.18661918  1
  Se  Se230  1  0.57332697  0.09671467  0.70547237  1
  Se  Se231  1  0.57831596  0.41718262  0.19874930  1
  Se  Se232  1  0.57802617  0.42447328  0.68646155  1
  Se  Se233  1  0.58650524  0.74228710  0.20027214  1
  Se  Se234  1  0.58538863  0.74728080  0.69378866  1
  Se  Se235  1  0.90804084  0.09051916  0.19504982  1
  Se  Se236  1  0.91699926  0.07919146  0.69471818  1
  Se  Se237  1  0.91634616  0.41605642  0.20048072  1
  Se  Se238  1  0.91511242  0.41382946  0.70141688  1
  Se  Se239  1  0.91487869  0.75573823  0.19360295  1
  Se  Se240  1  0.91557460  0.75224997  0.69334370  1
  Se  Se241  1  0.07249407  0.25716741  0.19779062  1
  Se  Se242  1  0.08353366  0.25080392  0.69420914  1
  Se  Se243  1  0.09215780  0.58049291  0.18683964  1
  Se  Se244  1  0.08939472  0.57870383  0.69496665  1
  Se  Se245  1  0.08915908  0.91384715  0.19361890  1
  Se  Se246  1  0.07972791  0.91438561  0.69482303  1
  Se  Se247  1  0.41218672  0.25544890  0.19360006  1
  Se  Se248  1  0.42281462  0.25443644  0.70658909  1
  Se  Se249  1  0.41038162  0.58777981  0.20040490  1
  Se  Se250  1  0.41543628  0.58592122  0.69520799  1
  Se  Se251  1  0.42545187  0.90497618  0.19404541  1
  Se  Se252  1  0.41373349  0.91247020  0.69692405  1
  Se  Se253  1  0.74251394  0.25273535  0.20443083  1
  Se  Se254  1  0.75712473  0.24497823  0.68605957  1
  Se  Se255  1  0.74941943  0.58298053  0.19889430  1
  Se  Se256  1  0.75124861  0.57865323  0.70213060  1
  Se  Se257  1  0.75690692  0.90750642  0.19025743  1
  Se  Se258  1  0.74447787  0.92176741  0.69406153  1
