# generated using pymatgen
data_In86Cu29Se144
_symmetry_space_group_name_H-M   'P 1'
_cell_length_a   17.58720532
_cell_length_b   17.58787315
_cell_length_c   23.45348616
_cell_angle_alpha   90.00071160
_cell_angle_beta   90.00963754
_cell_angle_gamma   89.99020165
_symmetry_Int_Tables_number   1
_chemical_formula_structural   In86Cu29Se144
_chemical_formula_sum   'In86 Cu29 Se144'
_cell_volume   7254.66815485
_cell_formula_units_Z   1
loop_
 _symmetry_equiv_pos_site_id
 _symmetry_equiv_pos_as_xyz
  1  'x, y, z'
loop_
 _atom_site_type_symbol
 _atom_site_label
 _atom_site_symmetry_multiplicity
 _atom_site_fract_x
 _atom_site_fract_y
 _atom_site_fract_z
 _atom_site_occupancy
  In  In0  1  -0.00473669  0.16135933  0.12475483  1
  In  In1  1  -0.01487643  0.16172857  0.62735189  1
  In  In2  1  0.01073954  0.50432588  0.11882398  1
  In  In3  1  0.01746893  0.50732937  0.61395762  1
  In  In4  1  0.01726937  0.82073459  0.13801333  1
  In  In5  1  0.00515182  0.83512142  0.62341401  1
  In  In6  1  0.31297898  0.18572235  0.15595076  1
  In  In7  1  0.34234910  0.16726646  0.62296755  1
  In  In8  1  0.32712258  0.49986350  0.12554802  1
  In  In9  1  0.32659680  0.49301921  0.61912326  1
  In  In10  1  0.31621339  0.84298066  0.13507052  1
  In  In11  1  0.32799240  0.82733284  0.60625253  1
  In  In12  1  0.67038398  0.16589926  0.12232150  1
  In  In13  1  0.66994004  0.17270860  0.61715410  1
  In  In14  1  0.66241007  0.48911649  0.11212821  1
  In  In15  1  0.66570942  0.49897247  0.61979602  1
  In  In16  1  0.65922866  0.83461765  0.12936524  1
  In  In17  1  0.66816199  0.83348643  0.61185651  1
  In  In18  1  0.15667830  0.00354534  0.36207426  1
  In  In19  1  0.15072579  0.00648509  0.88442086  1
  In  In20  1  0.17955750  0.32859329  0.37079408  1
  In  In21  1  0.17572676  0.32796545  0.88554189  1
  In  In22  1  0.16608205  0.66898853  0.37293070  1
  In  In23  1  0.16791537  0.67148701  0.88509220  1
  In  In24  1  0.48534710  0.01200378  0.37792992  1
  In  In25  1  0.49841264  -0.00140445  0.87443722  1
  In  In26  1  0.49142033  0.33620275  0.37716497  1
  In  In27  1  0.49856337  0.35118707  0.87874910  1
  In  In28  1  0.48888380  0.67112626  0.37957403  1
  In  In29  1  0.48348121  0.64745052  0.87513339  1
  In  In30  1  0.84070891  -0.00761153  0.38269346  1
  In  In31  1  0.85306168  0.00246872  0.87037904  1
  In  In32  1  0.83689708  0.33532113  0.39234712  1
  In  In33  1  0.83636635  0.32595735  0.88621031  1
  In  In34  1  0.84288060  0.66286921  0.38101055  1
  In  In35  1  0.84089682  0.64949051  0.87136465  1
  In  In36  1  0.00294026  0.15605873  0.37359361  1
  In  In37  1  0.00286015  0.16421523  0.87894136  1
  In  In38  1  -0.01069227  0.50864239  0.38200706  1
  In  In39  1  -0.00289197  0.50194658  0.87586814  1
  In  In40  1  0.00530333  0.83503948  0.37699191  1
  In  In41  1  0.01294014  0.83465469  0.86904474  1
  In  In42  1  0.33804536  0.17767284  0.35536099  1
  In  In43  1  0.31602904  0.16796091  0.87834423  1
  In  In44  1  0.32818927  0.50108606  0.37286405  1
  In  In45  1  0.34536842  0.49203845  0.90066670  1
  In  In46  1  0.32778249  0.83252721  0.37348882  1
  In  In47  1  0.31831279  0.81611342  0.87900152  1
  In  In48  1  0.66761887  0.16768723  0.38241171  1
  In  In49  1  0.67361753  0.18709228  0.87764521  1
  In  In50  1  0.66767056  0.49612247  0.38032711  1
  In  In51  1  0.67523548  0.48192041  0.89152649  1
  In  In52  1  0.66583842  0.83479291  0.38354817  1
  In  In53  1  0.66307522  0.84206434  0.87029203  1
  In  In54  1  0.16975916  0.00362743  0.12848135  1
  In  In55  1  0.16918679  -0.01161501  0.62397167  1
  In  In56  1  0.18490768  0.34185578  0.11425316  1
  In  In57  1  0.16499532  0.35041681  0.62423352  1
  In  In58  1  0.16657393  0.66135187  0.12681904  1
  In  In59  1  0.16043706  0.66343438  0.61952137  1
  In  In60  1  0.49331180  -0.00050130  0.13364354  1
  In  In61  1  0.50363071  0.00437280  0.61019199  1
  In  In62  1  0.46426593  0.33038885  0.12227389  1
  In  In63  1  0.49289110  0.32788176  0.61785600  1
  In  In64  1  0.48984771  0.64850558  0.12311471  1
  In  In65  1  0.49906742  0.66440208  0.61068093  1
  In  In66  1  0.83874549  0.01627279  0.12475201  1
  In  In67  1  0.84987117  0.01060472  0.62021735  1
  In  In68  1  0.83359782  0.33297530  0.11401364  1
  In  In69  1  0.83583396  0.32456189  0.61588679  1
  In  In70  1  0.84559980  0.66224195  0.12914362  1
  In  In71  1  0.84510684  0.67501333  0.61897486  1
  In  In72  1  0.67907544  0.00907103  0.73544878  1
  In  In73  1  0.84073878  0.83247773  0.00434998  1
  In  In74  1  0.16723482  0.16692124  0.48938728  1
  In  In75  1  0.66971830  0.66503168  0.75422030  1
  In  In76  1  0.32330058  0.66199951  0.75237916  1
  In  In77  1  -0.00183264  0.33291985  0.74868374  1
  In  In78  1  0.66241688  0.33758455  0.25447486  1
  In  In79  1  0.00832913  0.33481847  0.24852030  1
  In  In80  1  0.66500241  0.00096983  0.24697846  1
  In  In81  1  0.66696487  0.66282019  0.25883855  1
  In  In82  1  0.67345863  0.33589658  0.74036797  1
  In  In83  1  0.33031453  0.00019718  0.74983750  1
  In  In84  1  0.49640552  0.83006447  0.00721624  1
  In  In85  1  0.49572399  0.17367826  0.01021505  1
  Cu  Cu86  1  0.16220000  0.83193441  0.25177393  1
  Cu  Cu87  1  0.16548726  0.50621726  0.24650540  1
  Cu  Cu88  1  0.00228048  0.32387698  0.00161427  1
  Cu  Cu89  1  0.33124346  0.66282717  0.49333408  1
  Cu  Cu90  1  0.16952280  0.50094108  0.74921738  1
  Cu  Cu91  1  0.32434312  -0.00508259  0.00624324  1
  Cu  Cu92  1  0.48944060  0.50044710  0.75555538  1
  Cu  Cu93  1  0.66930987  0.66046503  0.49697423  1
  Cu  Cu94  1  0.83717997  0.16725968  0.25220925  1
  Cu  Cu95  1  0.66586748  0.66926363  -0.00532565  1
  Cu  Cu96  1  0.85055101  0.83016659  0.74561149  1
  Cu  Cu97  1  0.84638525  0.83844245  0.25516179  1
  Cu  Cu98  1  0.84220470  0.49823906  0.74848364  1
  Cu  Cu99  1  0.49542559  0.83377377  0.73882125  1
  Cu  Cu100  1  0.66182640  0.32884830  0.49988353  1
  Cu  Cu101  1  0.00421441  0.67407429  0.49834593  1
  Cu  Cu102  1  0.67429131  0.01147170  -0.00250218  1
  Cu  Cu103  1  0.33451067  -0.00085252  0.49290931  1
  Cu  Cu104  1  0.66495744  -0.00420491  0.49764227  1
  Cu  Cu105  1  0.00489848  -0.00126069  0.00174493  1
  Cu  Cu106  1  0.16226533  0.17042665  0.75724447  1
  Cu  Cu107  1  0.49139366  0.18214974  0.74574548  1
  Cu  Cu108  1  0.49445750  0.82726111  0.25780315  1
  Cu  Cu109  1  0.48720056  0.49313565  0.24881627  1
  Cu  Cu110  1  0.83919787  0.50486431  0.24987493  1
  Cu  Cu111  1  0.33509027  0.33343508  0.49468445  1
  Cu  Cu112  1  0.15992361  0.83363087  0.75037377  1
  Cu  Cu113  1  0.00235181  -0.00093317  0.49796731  1
  Cu  Cu114  1  0.00037794  0.66428886  0.00547550  1
  Se  Se115  1  0.08502367  0.08314325  0.05784965  1
  Se  Se116  1  0.08267392  0.07998874  0.55879541  1
  Se  Se117  1  0.08226799  0.41048463  0.05312577  1
  Se  Se118  1  0.08697648  0.41432909  0.54644909  1
  Se  Se119  1  0.08398172  0.74812054  0.05668674  1
  Se  Se120  1  0.08923649  0.75656970  0.55191499  1
  Se  Se121  1  0.40877751  0.07500828  0.06193628  1
  Se  Se122  1  0.41302659  0.08637063  0.54747557  1
  Se  Se123  1  0.42470095  0.43601272  0.05484591  1
  Se  Se124  1  0.41620120  0.41712746  0.55064200  1
  Se  Se125  1  0.40516545  0.74952888  0.06867856  1
  Se  Se126  1  0.41866929  0.74869890  0.54306637  1
  Se  Se127  1  0.75726449  0.09257061  0.05152242  1
  Se  Se128  1  0.74605820  0.07541733  0.55708683  1
  Se  Se129  1  0.76330215  0.42686157  0.04948593  1
  Se  Se130  1  0.74577986  0.41026967  0.55521067  1
  Se  Se131  1  0.74208471  0.74518043  0.06160675  1
  Se  Se132  1  0.75231703  0.74527773  0.55007400  1
  Se  Se133  1  0.26660681  0.24092734  0.06161837  1
  Se  Se134  1  0.25275869  0.25499715  0.55721898  1
  Se  Se135  1  0.22723032  0.56262069  0.05792628  1
  Se  Se136  1  0.25069190  0.58492935  0.55418023  1
  Se  Se137  1  0.23906437  0.91098968  0.05558489  1
  Se  Se138  1  0.24693892  0.92003042  0.54535763  1
  Se  Se139  1  0.58528373  0.26596461  0.06760373  1
  Se  Se140  1  0.57656263  0.24474598  0.55103318  1
  Se  Se141  1  0.58550524  0.58833375  0.05245384  1
  Se  Se142  1  0.58371497  0.57681659  0.54876332  1
  Se  Se143  1  0.59211899  0.93152842  0.05735612  1
  Se  Se144  1  0.57723982  0.90991012  0.54612577  1
  Se  Se145  1  0.91545453  0.24211486  0.05254108  1
  Se  Se146  1  0.92242999  0.24434580  0.55116891  1
  Se  Se147  1  0.91382463  0.58013821  0.05363277  1
  Se  Se148  1  0.92278882  0.58688267  0.55176694  1
  Se  Se149  1  0.92751503  0.91960597  0.06703766  1
  Se  Se150  1  0.92031853  0.91579688  0.55356078  1
  Se  Se151  1  0.07494110  0.26014024  0.43646071  1
  Se  Se152  1  0.08741935  0.24254947  0.94785681  1
  Se  Se153  1  0.08362553  0.58809737  0.44402285  1
  Se  Se154  1  0.07925822  0.58347597  0.94566794  1
  Se  Se155  1  0.08898638  0.92459307  0.44164200  1
  Se  Se156  1  0.08236509  0.90829272  0.95002875  1
  Se  Se157  1  0.40952893  0.24358588  0.43994776  1
  Se  Se158  1  0.41135512  0.25380086  0.93942970  1
  Se  Se159  1  0.41585078  0.57622886  0.44473271  1
  Se  Se160  1  0.40851868  0.59961624  0.95975038  1
  Se  Se161  1  0.41701968  0.91211624  0.44176562  1
  Se  Se162  1  0.40715102  0.92034644  0.94198283  1
  Se  Se163  1  0.75150077  0.24520671  0.45208530  1
  Se  Se164  1  0.74235792  0.26086437  0.95521938  1
  Se  Se165  1  0.75429743  0.57894693  0.44454600  1
  Se  Se166  1  0.75268996  0.58586939  0.94512802  1
  Se  Se167  1  0.75391116  0.91284880  0.45000362  1
  Se  Se168  1  0.74899137  0.92239446  0.94086666  1
  Se  Se169  1  0.25874384  0.08044094  0.42981903  1
  Se  Se170  1  0.24625573  0.07962186  0.94896012  1
  Se  Se171  1  0.24873108  0.41539977  0.44406897  1
  Se  Se172  1  0.24066393  0.42116486  0.95506893  1
  Se  Se173  1  0.24738985  0.75023810  0.44503582  1
  Se  Se174  1  0.25479062  0.74204704  0.95793946  1
  Se  Se175  1  0.58233340  0.08033742  0.44494700  1
  Se  Se176  1  0.58612029  0.08574262  0.93941796  1
  Se  Se177  1  0.58155622  0.41271186  0.44462013  1
  Se  Se178  1  0.57713870  0.41755382  0.95577142  1
  Se  Se179  1  0.58440958  0.74347918  0.44477829  1
  Se  Se180  1  0.58305457  0.74728724  0.93461590  1
  Se  Se181  1  0.91795648  0.08544484  0.44782172  1
  Se  Se182  1  0.91878833  0.08091736  0.94909895  1
  Se  Se183  1  0.91350876  0.42677369  0.45391520  1
  Se  Se184  1  0.92488420  0.41188018  0.94576854  1
  Se  Se185  1  0.91802658  0.75646278  0.44623099  1
  Se  Se186  1  0.92319553  0.74308707  0.93921358  1
  Se  Se187  1  0.23684488  0.24459016  0.29263423  1
  Se  Se188  1  0.24847820  0.25472329  0.80455444  1
  Se  Se189  1  0.24917961  0.58661850  0.30309208  1
  Se  Se190  1  0.24656455  0.57106667  0.81820059  1
  Se  Se191  1  0.24702256  0.91516748  0.30333832  1
  Se  Se192  1  0.24126912  0.91197470  0.81209417  1
  Se  Se193  1  0.57787345  0.24197154  0.31113043  1
  Se  Se194  1  0.57682773  0.25491448  0.80541391  1
  Se  Se195  1  0.57124404  0.56968938  0.30992614  1
  Se  Se196  1  0.58378261  0.56822844  0.81361505  1
  Se  Se197  1  0.57851556  0.91156394  0.31035013  1
  Se  Se198  1  0.57642599  0.91854635  0.79554978  1
  Se  Se199  1  0.90941727  0.25434712  0.31139405  1
  Se  Se200  1  0.90931204  0.24339583  0.80897169  1
  Se  Se201  1  0.91956847  0.58860499  0.30364168  1
  Se  Se202  1  0.92712060  0.58290620  0.79714339  1
  Se  Se203  1  0.92511856  0.92426503  0.30777019  1
  Se  Se204  1  0.92758370  0.91625286  0.80117198  1
  Se  Se205  1  0.08945401  0.10139774  0.29615684  1
  Se  Se206  1  0.08065790  0.08261559  0.80534692  1
  Se  Se207  1  0.08783735  0.42825672  0.31246008  1
  Se  Se208  1  0.09122432  0.41714730  0.80984447  1
  Se  Se209  1  0.07871892  0.74894344  0.30463129  1
  Se  Se210  1  0.08926104  0.74055664  0.80481608  1
  Se  Se211  1  0.41403824  0.07700795  0.29684846  1
  Se  Se212  1  0.42150296  0.09505839  0.80779545  1
  Se  Se213  1  0.40753582  0.41106835  0.30473874  1
  Se  Se214  1  0.40556391  0.42311076  0.81199606  1
  Se  Se215  1  0.40778098  0.74286583  0.30472721  1
  Se  Se216  1  0.42269173  0.75605099  0.80636969  1
  Se  Se217  1  0.75575079  0.08610745  0.31083644  1
  Se  Se218  1  0.75291564  0.08963045  0.81191764  1
  Se  Se219  1  0.76396035  0.42166682  0.30996280  1
  Se  Se220  1  0.76156731  0.42005024  0.80821058  1
  Se  Se221  1  0.75815906  0.75994285  0.31075302  1
  Se  Se222  1  0.76445613  0.76015723  0.80980957  1
  Se  Se223  1  0.27181017  0.05852285  0.19828146  1
  Se  Se224  1  0.24065116  0.09346084  0.69074239  1
  Se  Se225  1  0.24751738  0.41661498  0.19795012  1
  Se  Se226  1  0.25365023  0.41733319  0.69776569  1
  Se  Se227  1  0.24400564  0.74586828  0.19895034  1
  Se  Se228  1  0.24663039  0.76050274  0.68933625  1
  Se  Se229  1  0.57603540  0.09823900  0.19423192  1
  Se  Se230  1  0.57065934  0.09626855  0.68805037  1
  Se  Se231  1  0.57521597  0.42108136  0.18893824  1
  Se  Se232  1  0.57122014  0.42547926  0.69153723  1
  Se  Se233  1  0.57320672  0.74850005  0.19478616  1
  Se  Se234  1  0.58033758  0.75051368  0.68665455  1
  Se  Se235  1  0.92028129  0.08188278  0.20227293  1
  Se  Se236  1  0.91665955  0.07983497  0.70256717  1
  Se  Se237  1  0.91261507  0.42052470  0.18814524  1
  Se  Se238  1  0.91579943  0.42187287  0.68223203  1
  Se  Se239  1  0.91822580  0.74758803  0.20039748  1
  Se  Se240  1  0.92979601  0.74368886  0.69350456  1
  Se  Se241  1  0.09040030  0.25245703  0.18037270  1
  Se  Se242  1  0.09033765  0.24512961  0.68755410  1
  Se  Se243  1  0.07558728  0.58569275  0.19724453  1
  Se  Se244  1  0.08703141  0.58236833  0.69456052  1
  Se  Se245  1  0.08350012  0.92306979  0.19930189  1
  Se  Se246  1  0.08218209  0.92047567  0.69686578  1
  Se  Se247  1  0.42646305  0.24876847  0.20719484  1
  Se  Se248  1  0.40607774  0.26198161  0.69407550  1
  Se  Se249  1  0.40770414  0.58277452  0.19932565  1
  Se  Se250  1  0.42102276  0.58313511  0.68964099  1
  Se  Se251  1  0.41720838  0.91054602  0.19983119  1
  Se  Se252  1  0.41527753  0.91407872  0.68135773  1
  Se  Se253  1  0.75783934  0.24864766  0.19410427  1
  Se  Se254  1  0.76358814  0.23583447  0.69277501  1
  Se  Se255  1  0.74805577  0.57472069  0.19040883  1
  Se  Se256  1  0.75718025  0.57815302  0.69034287  1
  Se  Se257  1  0.76217065  0.90956633  0.19117110  1
  Se  Se258  1  0.76145975  0.90312971  0.68594446  1
