# generated using pymatgen
data_In86Cu29Se144
_symmetry_space_group_name_H-M   'P 1'
_cell_length_a   17.57837180
_cell_length_b   17.58078025
_cell_length_c   23.44575720
_cell_angle_alpha   89.98511611
_cell_angle_beta   90.01699589
_cell_angle_gamma   90.00167038
_symmetry_Int_Tables_number   1
_chemical_formula_structural   In86Cu29Se144
_chemical_formula_sum   'In86 Cu29 Se144'
_cell_volume   7245.71121646
_cell_formula_units_Z   1
loop_
 _symmetry_equiv_pos_site_id
 _symmetry_equiv_pos_as_xyz
  1  'x, y, z'
loop_
 _atom_site_type_symbol
 _atom_site_label
 _atom_site_symmetry_multiplicity
 _atom_site_fract_x
 _atom_site_fract_y
 _atom_site_fract_z
 _atom_site_occupancy
  In  In0  1  -0.00278559  0.16185558  0.12222505  1
  In  In1  1  0.00402223  0.16715230  0.60712393  1
  In  In2  1  -0.00398864  0.50388945  0.13123983  1
  In  In3  1  -0.00496662  0.49515216  0.61275430  1
  In  In4  1  0.00687672  0.82404227  0.13931756  1
  In  In5  1  -0.00528919  0.84431636  0.62054190  1
  In  In6  1  0.32470943  0.17531873  0.13367259  1
  In  In7  1  0.33920633  0.17969909  0.62035311  1
  In  In8  1  0.34243013  0.49398316  0.13710454  1
  In  In9  1  0.32806845  0.49442044  0.60959824  1
  In  In10  1  0.34349040  0.82563036  0.13516043  1
  In  In11  1  0.34906781  0.82073930  0.61085000  1
  In  In12  1  0.67108598  0.15475881  0.12478639  1
  In  In13  1  0.67128504  0.16050955  0.62964297  1
  In  In14  1  0.66842111  0.50837854  0.11341373  1
  In  In15  1  0.66882713  0.50127625  0.63020563  1
  In  In16  1  0.66612667  0.83474416  0.12595543  1
  In  In17  1  0.65688518  0.83827180  0.62692056  1
  In  In18  1  0.17202937  0.00801471  0.37416704  1
  In  In19  1  0.18781545  0.00957857  0.87885437  1
  In  In20  1  0.17392408  0.33048077  0.37405222  1
  In  In21  1  0.16097825  0.32460503  0.87290579  1
  In  In22  1  0.16302813  0.65572058  0.36376710  1
  In  In23  1  0.17093311  0.65795805  0.88091637  1
  In  In24  1  0.48627522  -0.01266914  0.36957375  1
  In  In25  1  0.50702099  -0.01158835  0.88049895  1
  In  In26  1  0.49344868  0.35201180  0.37784384  1
  In  In27  1  0.50447011  0.33739646  0.86586949  1
  In  In28  1  0.49866622  0.66362930  0.37354455  1
  In  In29  1  0.54525503  0.63265065  0.91549180  1
  In  In30  1  0.83748576  0.00494950  0.36882439  1
  In  In31  1  0.83408320  0.01076650  0.87677438  1
  In  In32  1  0.83652565  0.33033654  0.38631369  1
  In  In33  1  0.81553947  0.34875419  0.89257603  1
  In  In34  1  0.82050759  0.66268782  0.36968643  1
  In  In35  1  0.81188228  0.66204179  0.87384166  1
  In  In36  1  0.00554730  0.15602269  0.38645563  1
  In  In37  1  -0.00035668  0.16901168  0.88454684  1
  In  In38  1  -0.00793495  0.50800602  0.37867444  1
  In  In39  1  -0.00378491  0.48435132  0.87617571  1
  In  In40  1  0.00549372  0.83831621  0.36519493  1
  In  In41  1  -0.00149830  0.82835133  0.87951739  1
  In  In42  1  0.31639808  0.15031107  0.36637431  1
  In  In43  1  0.32278271  0.17393887  0.88052244  1
  In  In44  1  0.33504629  0.50031112  0.36703659  1
  In  In45  1  0.34557488  0.50426322  0.87247681  1
  In  In46  1  0.34541552  0.83853893  0.37474849  1
  In  In47  1  0.35416226  0.84215422  0.87903365  1
  In  In48  1  0.68090359  0.16660662  0.37543005  1
  In  In49  1  0.67669602  0.17776243  0.86711402  1
  In  In50  1  0.65395280  0.51284868  0.38480030  1
  In  In51  1  0.66906532  0.49238665  0.86987252  1
  In  In52  1  0.65098242  0.82142571  0.36786386  1
  In  In53  1  0.65580229  0.82239412  0.86570089  1
  In  In54  1  0.15768693  0.00709002  0.13563004  1
  In  In55  1  0.16370274  0.01328074  0.61045345  1
  In  In56  1  0.19625027  0.33288366  0.12954117  1
  In  In57  1  0.17129601  0.33788220  0.61375844  1
  In  In58  1  0.17201804  0.64947447  0.15232116  1
  In  In59  1  0.17856806  0.65333196  0.61056775  1
  In  In60  1  0.51257966  -0.00874979  0.13664173  1
  In  In61  1  0.50853983  0.00094138  0.62019360  1
  In  In62  1  0.47932374  0.34283709  0.12307783  1
  In  In63  1  0.49080568  0.34022531  0.63445803  1
  In  In64  1  0.50328306  0.66606074  0.12389607  1
  In  In65  1  0.50345349  0.67134184  0.61158754  1
  In  In66  1  0.83526542  -0.00149624  0.12927285  1
  In  In67  1  0.82415161  -0.00242937  0.61883673  1
  In  In68  1  0.83063646  0.33128923  0.11575200  1
  In  In69  1  0.83165459  0.33262938  0.62553747  1
  In  In70  1  0.82875835  0.66224071  0.12918020  1
  In  In71  1  0.81854593  0.64702311  0.62067129  1
  In  In72  1  0.50147708  0.17046412  0.00221130  1
  In  In73  1  -0.00868559  0.00627140  0.74737125  1
  In  In74  1  0.16472794  0.83487739  0.01567590  1
  In  In75  1  0.00194185  0.33278185  0.25789258  1
  In  In76  1  0.17405618  0.83377585  0.48507591  1
  In  In77  1  0.34620174  0.66813453  0.74666535  1
  In  In78  1  -0.00893791  0.66757312  0.74912982  1
  In  In79  1  0.34341494  0.00487666  0.75027338  1
  In  In80  1  0.82570272  0.83355614  0.01035981  1
  In  In81  1  -0.00904926  0.32975109  0.74209632  1
  In  In82  1  0.66189597  0.33539679  0.25328835  1
  In  In83  1  0.49834459  0.16465327  0.49936812  1
  In  In84  1  0.16926878  0.49487501  0.01168375  1
  In  In85  1  0.83649550  0.84107177  0.49662880  1
  Cu  Cu86  1  0.66177855  0.33261269  -0.00365544  1
  Cu  Cu87  1  0.33731585  0.00855325  0.00723775  1
  Cu  Cu88  1  0.33797738  0.67855174  0.00604559  1
  Cu  Cu89  1  0.83529583  0.15860203  0.24868441  1
  Cu  Cu90  1  0.00486174  0.67332605  0.49585445  1
  Cu  Cu91  1  0.16287602  0.16730755  0.25196183  1
  Cu  Cu92  1  0.50189067  0.82980134  0.24946622  1
  Cu  Cu93  1  0.82910699  0.83504262  0.25058578  1
  Cu  Cu94  1  0.50175815  0.16460022  0.74689582  1
  Cu  Cu95  1  0.00095804  0.32726504  0.00233946  1
  Cu  Cu96  1  0.66626126  0.66339220  0.49699200  1
  Cu  Cu97  1  0.66237730  -0.00558811  0.49904201  1
  Cu  Cu98  1  0.17060383  0.17118207  0.75108990  1
  Cu  Cu99  1  0.00887906  0.00374484  0.00401121  1
  Cu  Cu100  1  0.17190326  0.49655461  0.73552214  1
  Cu  Cu101  1  -0.01001750  0.66036714  0.01043254  1
  Cu  Cu102  1  0.33150098  0.33069590  0.49522772  1
  Cu  Cu103  1  0.50245302  0.50670791  0.25089077  1
  Cu  Cu104  1  0.49870586  0.16804091  0.25112851  1
  Cu  Cu105  1  0.50351446  0.82595431  0.75223530  1
  Cu  Cu106  1  0.67394449  0.00045647  0.00376311  1
  Cu  Cu107  1  0.82222232  0.83343678  0.74407142  1
  Cu  Cu108  1  0.17106509  0.83503275  0.25781007  1
  Cu  Cu109  1  0.00378353  0.34289170  0.49692229  1
  Cu  Cu110  1  0.66817192  0.33402901  0.50479152  1
  Cu  Cu111  1  0.82322821  0.49887117  0.25358621  1
  Cu  Cu112  1  0.50464984  0.50347715  0.75220117  1
  Cu  Cu113  1  0.82798344  0.17229381  0.75162016  1
  Cu  Cu114  1  0.16908002  0.83000775  0.74341733  1
  Se  Se115  1  0.09256012  0.08725054  0.05589256  1
  Se  Se116  1  0.08716936  0.09004203  0.53826357  1
  Se  Se117  1  0.07639406  0.40307685  0.06892295  1
  Se  Se118  1  0.09137262  0.42546254  0.54745925  1
  Se  Se119  1  0.08094052  0.73127601  0.06808190  1
  Se  Se120  1  0.08201234  0.75221773  0.55773658  1
  Se  Se121  1  0.42120740  0.08209458  0.06975036  1
  Se  Se122  1  0.40642608  0.07362043  0.55754692  1
  Se  Se123  1  0.39928901  0.42045878  0.05265647  1
  Se  Se124  1  0.41921554  0.40595820  0.55116627  1
  Se  Se125  1  0.42353428  0.75922203  0.05728267  1
  Se  Se126  1  0.40701023  0.72881894  0.53950478  1
  Se  Se127  1  0.75980807  0.08184626  0.05513952  1
  Se  Se128  1  0.74216144  0.08142225  0.55124155  1
  Se  Se129  1  0.74759647  0.41526839  0.05019821  1
  Se  Se130  1  0.75062781  0.41880352  0.55834443  1
  Se  Se131  1  0.73388751  0.73463493  0.05619016  1
  Se  Se132  1  0.74459011  0.75051776  0.55568427  1
  Se  Se133  1  0.26085495  0.25241415  0.05267432  1
  Se  Se134  1  0.24920215  0.24622603  0.54830294  1
  Se  Se135  1  0.25134642  0.59942015  0.06291115  1
  Se  Se136  1  0.26421269  0.58750492  0.53866101  1
  Se  Se137  1  0.25881556  0.92615727  0.06870870  1
  Se  Se138  1  0.25595304  0.91801682  0.55728757  1
  Se  Se139  1  0.58975655  0.26015840  0.06706276  1
  Se  Se140  1  0.58437001  0.25328733  0.56382216  1
  Se  Se141  1  0.56513295  0.57278547  0.05060276  1
  Se  Se142  1  0.58895251  0.57805325  0.55421556  1
  Se  Se143  1  0.58726683  0.92104287  0.05607430  1
  Se  Se144  1  0.57769710  0.91041980  0.54931114  1
  Se  Se145  1  0.91464855  0.24361862  0.05301166  1
  Se  Se146  1  0.91940521  0.26209733  0.55229638  1
  Se  Se147  1  0.90708487  0.57397063  0.05978328  1
  Se  Se148  1  0.91948933  0.59257937  0.55129364  1
  Se  Se149  1  0.93328048  0.91519079  0.06225001  1
  Se  Se150  1  0.92924486  0.93919822  0.54936511  1
  Se  Se151  1  0.08260841  0.25728579  0.44259020  1
  Se  Se152  1  0.08888392  0.24791420  0.95049258  1
  Se  Se153  1  0.08507266  0.58688070  0.44361887  1
  Se  Se154  1  0.07358093  0.58428204  0.94682980  1
  Se  Se155  1  0.07350535  0.92600453  0.44046096  1
  Se  Se156  1  0.08591749  0.92330646  0.94086718  1
  Se  Se157  1  0.40970857  0.24855224  0.43387532  1
  Se  Se158  1  0.41520256  0.26063411  0.94114151  1
  Se  Se159  1  0.44332326  0.55133113  0.43275437  1
  Se  Se160  1  0.40896893  0.59098922  0.94757553  1
  Se  Se161  1  0.41729714  0.91836684  0.45098915  1
  Se  Se162  1  0.41984631  0.92350023  0.95615935  1
  Se  Se163  1  0.74912822  0.24835085  0.45207863  1
  Se  Se164  1  0.74796551  0.24258457  0.95131338  1
  Se  Se165  1  0.75558652  0.58186200  0.44882456  1
  Se  Se166  1  0.73942692  0.58041233  0.94488268  1
  Se  Se167  1  0.73913695  0.91730162  0.43378637  1
  Se  Se168  1  0.74575235  0.91816247  0.93791846  1
  Se  Se169  1  0.24966656  0.08302102  0.44950204  1
  Se  Se170  1  0.25198689  0.09076122  0.95624676  1
  Se  Se171  1  0.25446181  0.41828236  0.44045490  1
  Se  Se172  1  0.24842155  0.41917682  0.93519497  1
  Se  Se173  1  0.25820442  0.73740346  0.43060197  1
  Se  Se174  1  0.25348086  0.75396445  0.94346548  1
  Se  Se175  1  0.58629749  0.07674262  0.43600182  1
  Se  Se176  1  0.59492969  0.08233409  0.94182212  1
  Se  Se177  1  0.58494484  0.41483249  0.45054881  1
  Se  Se178  1  0.58079135  0.41404870  0.94105101  1
  Se  Se179  1  0.57980809  0.74681633  0.44641379  1
  Se  Se180  1  0.57309187  0.76981837  0.94666563  1
  Se  Se181  1  0.89588500  0.09510294  0.44364410  1
  Se  Se182  1  0.91956777  0.08020747  0.95028359  1
  Se  Se183  1  0.91336048  0.42414604  0.44915348  1
  Se  Se184  1  0.91876412  0.41653134  0.95445999  1
  Se  Se185  1  0.92179464  0.74882509  0.43538360  1
  Se  Se186  1  0.91587778  0.74168615  0.94641212  1
  Se  Se187  1  0.25127732  0.25111667  0.30001036  1
  Se  Se188  1  0.25316323  0.25481363  0.80289718  1
  Se  Se189  1  0.25716215  0.58540179  0.29725151  1
  Se  Se190  1  0.24314505  0.57885037  0.80130559  1
  Se  Se191  1  0.25364767  0.91885945  0.30963867  1
  Se  Se192  1  0.24999836  0.90808297  0.80663796  1
  Se  Se193  1  0.57488493  0.24604566  0.31627837  1
  Se  Se194  1  0.58494168  0.25001449  0.79958162  1
  Se  Se195  1  0.58998656  0.58746045  0.30245581  1
  Se  Se196  1  0.57874071  0.58601379  0.81303094  1
  Se  Se197  1  0.58212889  0.91894491  0.30183879  1
  Se  Se198  1  0.58235966  0.91984806  0.80049724  1
  Se  Se199  1  0.90890780  0.24045989  0.31160682  1
  Se  Se200  1  0.91066722  0.24669693  0.81378624  1
  Se  Se201  1  0.90993964  0.58202955  0.30414857  1
  Se  Se202  1  0.91038744  0.57476608  0.81186533  1
  Se  Se203  1  0.91589229  0.91842205  0.30036155  1
  Se  Se204  1  0.90806588  0.90547331  0.80700926  1
  Se  Se205  1  0.08007595  0.08503195  0.30666804  1
  Se  Se206  1  0.09141744  0.08794429  0.81003199  1
  Se  Se207  1  0.08805768  0.42731594  0.31276350  1
  Se  Se208  1  0.09008951  0.42097603  0.79902262  1
  Se  Se209  1  0.08111527  0.74727204  0.30012853  1
  Se  Se210  1  0.09348035  0.75324706  0.80861635  1
  Se  Se211  1  0.41557536  0.08170206  0.30159743  1
  Se  Se212  1  0.42634434  0.09269934  0.81777693  1
  Se  Se213  1  0.41858078  0.41478843  0.29542665  1
  Se  Se214  1  0.41564465  0.41961872  0.79951034  1
  Se  Se215  1  0.41864752  0.74933014  0.30439703  1
  Se  Se216  1  0.43109565  0.74698626  0.81656272  1
  Se  Se217  1  0.74567546  0.08007899  0.30003465  1
  Se  Se218  1  0.75018243  0.07988770  0.80222893  1
  Se  Se219  1  0.75021105  0.41931444  0.31793712  1
  Se  Se220  1  0.75654882  0.40913783  0.80507352  1
  Se  Se221  1  0.74483947  0.74953154  0.30063136  1
  Se  Se222  1  0.74478966  0.74558544  0.79764819  1
  Se  Se223  1  0.25055232  0.08363912  0.20098676  1
  Se  Se224  1  0.24576828  0.08749201  0.69012882  1
  Se  Se225  1  0.22829166  0.44374692  0.19564083  1
  Se  Se226  1  0.25582547  0.41300195  0.68615063  1
  Se  Se227  1  0.25345027  0.75146503  0.20387802  1
  Se  Se228  1  0.24864675  0.75203233  0.68344353  1
  Se  Se229  1  0.58744404  0.08832279  0.20037551  1
  Se  Se230  1  0.58221916  0.07809207  0.69567733  1
  Se  Se231  1  0.57864941  0.42354159  0.18802512  1
  Se  Se232  1  0.58408685  0.41639380  0.69842528  1
  Se  Se233  1  0.58545004  0.74902573  0.19403871  1
  Se  Se234  1  0.57860243  0.74470127  0.69064766  1
  Se  Se235  1  0.92284446  0.07981692  0.19612123  1
  Se  Se236  1  0.90820831  0.09856283  0.68526736  1
  Se  Se237  1  0.90132279  0.41351523  0.19681588  1
  Se  Se238  1  0.90793894  0.43380607  0.69208560  1
  Se  Se239  1  0.90927717  0.74690025  0.19808241  1
  Se  Se240  1  0.90536433  0.75747943  0.68339031  1
  Se  Se241  1  0.08826927  0.24961275  0.18925287  1
  Se  Se242  1  0.08852975  0.24238941  0.68613311  1
  Se  Se243  1  0.06313314  0.58488136  0.20628571  1
  Se  Se244  1  0.08597497  0.58200937  0.68545530  1
  Se  Se245  1  0.08386334  0.91607743  0.20352145  1
  Se  Se246  1  0.09140982  0.91831544  0.68983518  1
  Se  Se247  1  0.41753859  0.25382894  0.19841677  1
  Se  Se248  1  0.41269625  0.24779601  0.70047763  1
  Se  Se249  1  0.41797289  0.59128823  0.19764900  1
  Se  Se250  1  0.42416000  0.57373398  0.68303116  1
  Se  Se251  1  0.41669681  0.91956745  0.20171774  1
  Se  Se252  1  0.42239171  0.90507486  0.69007492  1
  Se  Se253  1  0.75649530  0.24649536  0.19416620  1
  Se  Se254  1  0.74712428  0.25364243  0.69540169  1
  Se  Se255  1  0.74210445  0.57754710  0.19495576  1
  Se  Se256  1  0.74116193  0.59037947  0.70155139  1
  Se  Se257  1  0.74781591  0.91785591  0.19495141  1
  Se  Se258  1  0.74452663  0.92240846  0.69234596  1
