# generated using pymatgen
data_In86Cu29Se144
_symmetry_space_group_name_H-M   'P 1'
_cell_length_a   17.58095110
_cell_length_b   17.57934684
_cell_length_c   23.43314178
_cell_angle_alpha   89.98661804
_cell_angle_beta   89.99687246
_cell_angle_gamma   89.98643759
_symmetry_Int_Tables_number   1
_chemical_formula_structural   In86Cu29Se144
_chemical_formula_sum   'In86 Cu29 Se144'
_cell_volume   7242.28475149
_cell_formula_units_Z   1
loop_
 _symmetry_equiv_pos_site_id
 _symmetry_equiv_pos_as_xyz
  1  'x, y, z'
loop_
 _atom_site_type_symbol
 _atom_site_label
 _atom_site_symmetry_multiplicity
 _atom_site_fract_x
 _atom_site_fract_y
 _atom_site_fract_z
 _atom_site_occupancy
  In  In0  1  -0.00365503  0.15440657  0.13666873  1
  In  In1  1  -0.00224620  0.16634669  0.63466021  1
  In  In2  1  -0.00033468  0.50388240  0.12481967  1
  In  In3  1  -0.01634319  0.49443787  0.62421332  1
  In  In4  1  -0.00363802  0.83207946  0.12079811  1
  In  In5  1  -0.00014667  0.84377558  0.62499920  1
  In  In6  1  0.33009892  0.16962488  0.12703648  1
  In  In7  1  0.32983743  0.15288646  0.62046061  1
  In  In8  1  0.31712104  0.49355156  0.12269879  1
  In  In9  1  0.34349438  0.49257668  0.62546130  1
  In  In10  1  0.32906437  0.85133615  0.12587048  1
  In  In11  1  0.35417933  0.84927651  0.63038452  1
  In  In12  1  0.66825795  0.17858574  0.14485015  1
  In  In13  1  0.66880931  0.18246487  0.62122557  1
  In  In14  1  0.67766857  0.49222993  0.12878666  1
  In  In15  1  0.69004136  0.47426576  0.64658661  1
  In  In16  1  0.67371988  0.82414092  0.12853672  1
  In  In17  1  0.66898060  0.81852863  0.62511432  1
  In  In18  1  0.17020916  0.00700840  0.36158995  1
  In  In19  1  0.16492196  0.00639363  0.87978181  1
  In  In20  1  0.16167146  0.32709574  0.36559563  1
  In  In21  1  0.15735029  0.34432486  0.88773922  1
  In  In22  1  0.16772536  0.68175687  0.37025674  1
  In  In23  1  0.16104443  0.66624243  0.88486426  1
  In  In24  1  0.51388309  0.01778308  0.35791411  1
  In  In25  1  0.50040797  0.01955933  0.87930224  1
  In  In26  1  0.50026252  0.31388800  0.36213856  1
  In  In27  1  0.50201460  0.32715652  0.87482216  1
  In  In28  1  0.50436049  0.65216196  0.37296473  1
  In  In29  1  0.50765545  0.65990632  0.86937186  1
  In  In30  1  0.83006365  -0.00953070  0.36651333  1
  In  In31  1  0.83298890  -0.01480429  0.87980982  1
  In  In32  1  0.83851064  0.34521331  0.36629682  1
  In  In33  1  0.83705630  0.34186218  0.86748504  1
  In  In34  1  0.83525706  0.66638254  0.37416508  1
  In  In35  1  0.83122550  0.66621586  0.87750041  1
  In  In36  1  -0.00466175  0.17513924  0.35639068  1
  In  In37  1  0.00807114  0.17839324  0.87545318  1
  In  In38  1  -0.02032339  0.48317713  0.36561281  1
  In  In39  1  -0.00497040  0.49798629  0.87816974  1
  In  In40  1  -0.00368202  0.82204157  0.36687234  1
  In  In41  1  -0.00515149  0.83813801  0.88173188  1
  In  In42  1  0.35407476  0.18243403  0.35188031  1
  In  In43  1  0.33714909  0.16584613  0.88493505  1
  In  In44  1  0.34238209  0.48432961  0.37175778  1
  In  In45  1  0.33014093  0.48935507  0.87741141  1
  In  In46  1  0.32825637  0.84704486  0.37273829  1
  In  In47  1  0.31687051  0.83537943  0.87926637  1
  In  In48  1  0.67169982  0.15610340  0.35633172  1
  In  In49  1  0.65385627  0.16809197  0.88071131  1
  In  In50  1  0.67376616  0.50983409  0.36735703  1
  In  In51  1  0.67880680  0.51172765  0.85932648  1
  In  In52  1  0.68014860  0.84002577  0.37030092  1
  In  In53  1  0.68121668  0.83374701  0.88045868  1
  In  In54  1  0.16085689  0.00143130  0.12019968  1
  In  In55  1  0.16766743  0.00323502  0.63299665  1
  In  In56  1  0.16239268  0.33168049  0.12697200  1
  In  In57  1  0.16548119  0.32107418  0.62684817  1
  In  In58  1  0.15167058  0.65739730  0.11602635  1
  In  In59  1  0.16806919  0.66504381  0.62736868  1
  In  In60  1  0.48937639  0.02516852  0.14168429  1
  In  In61  1  0.49006052  -0.00602477  0.62698983  1
  In  In62  1  0.50783748  0.31352428  0.13824153  1
  In  In63  1  0.51227913  0.33427977  0.61732296  1
  In  In64  1  0.50666493  0.67392063  0.12835531  1
  In  In65  1  0.53035399  0.66233353  0.63798263  1
  In  In66  1  0.84247172  -0.00956847  0.13313928  1
  In  In67  1  0.84674606  0.00333204  0.62269034  1
  In  In68  1  0.82764865  0.34288550  0.13214170  1
  In  In69  1  0.83554252  0.33165372  0.62824274  1
  In  In70  1  0.83527509  0.66619709  0.12201035  1
  In  In71  1  0.82312629  0.65386456  0.61413620  1
  In  In72  1  0.33679144  0.67837326  0.74842714  1
  In  In73  1  0.15435515  0.49094121  0.48611148  1
  In  In74  1  0.16362693  0.16739863  0.48779191  1
  In  In75  1  0.66611248  -0.00135507  0.75418828  1
  In  In76  1  0.83253352  0.16496187  0.01100635  1
  In  In77  1  0.33903893  0.33063851  0.75612143  1
  In  In78  1  0.16208123  0.83753416  0.50404614  1
  In  In79  1  0.83333889  0.16980458  0.49311776  1
  In  In80  1  -0.00603322  0.66683304  0.75651290  1
  In  In81  1  0.49777306  0.49299862  -0.00399621  1
  In  In82  1  0.33625442  0.66627386  0.24964526  1
  In  In83  1  0.50438294  0.82837732  0.50681020  1
  In  In84  1  0.50502977  0.49303134  0.50372798  1
  In  In85  1  0.50182640  0.84110325  0.00626735  1
  Cu  Cu86  1  -0.00019070  0.00075236  0.49709123  1
  Cu  Cu87  1  0.33259387  0.32902638  0.00416484  1
  Cu  Cu88  1  0.66747457  0.33080742  0.00792539  1
  Cu  Cu89  1  0.16323514  0.49709875  0.75850007  1
  Cu  Cu90  1  0.00114006  0.33744230  0.00289416  1
  Cu  Cu91  1  0.16267450  0.49784283  0.24661929  1
  Cu  Cu92  1  -0.01164005  0.66382750  0.49348946  1
  Cu  Cu93  1  0.33210838  0.66367994  0.50962426  1
  Cu  Cu94  1  0.83575159  0.16603673  0.75206459  1
  Cu  Cu95  1  0.83445759  0.51035608  0.24714272  1
  Cu  Cu96  1  0.83613983  0.82532759  0.24806629  1
  Cu  Cu97  1  0.16444404  0.16654609  0.75450125  1
  Cu  Cu98  1  0.34486386  0.00534767  0.49657273  1
  Cu  Cu99  1  0.15765290  0.83309292  0.23992544  1
  Cu  Cu100  1  0.16433799  0.16229637  0.24212857  1
  Cu  Cu101  1  0.50527748  0.49266893  0.24847224  1
  Cu  Cu102  1  0.66512322  0.00500205  0.48816241  1
  Cu  Cu103  1  0.50023090  0.16876669  0.75130696  1
  Cu  Cu104  1  0.32817363  0.00734537  0.00605476  1
  Cu  Cu105  1  0.66837978  0.33675278  0.49634203  1
  Cu  Cu106  1  0.66328982  0.00125965  0.00631039  1
  Cu  Cu107  1  -0.00071781  0.00101530  0.00345878  1
  Cu  Cu108  1  -0.00462434  0.66529900  -0.00014733  1
  Cu  Cu109  1  0.67362858  0.66181422  0.00062342  1
  Cu  Cu110  1  0.32484912  0.66874307  0.00195307  1
  Cu  Cu111  1  0.67717540  0.66478086  0.49670231  1
  Cu  Cu112  1  0.50883557  0.83531324  0.24933447  1
  Cu  Cu113  1  0.83549922  0.82956764  0.75359806  1
  Cu  Cu114  1  0.16626743  0.84934250  0.75274014  1
  Se  Se115  1  0.07599969  0.08994635  0.05630895  1
  Se  Se116  1  0.07931129  0.07951576  0.55791654  1
  Se  Se117  1  0.08514976  0.41997439  0.05720428  1
  Se  Se118  1  0.07780266  0.40785341  0.55993688  1
  Se  Se119  1  0.08028969  0.75166931  0.04967075  1
  Se  Se120  1  0.07147131  0.73696428  0.55748266  1
  Se  Se121  1  0.41663080  0.08748494  0.05716371  1
  Se  Se122  1  0.42675326  0.08515082  0.55300913  1
  Se  Se123  1  0.41661998  0.40640442  0.06480438  1
  Se  Se124  1  0.40484204  0.39974264  0.55104126  1
  Se  Se125  1  0.40707191  0.74565406  0.06126476  1
  Se  Se126  1  0.41644698  0.73637244  0.56955830  1
  Se  Se127  1  0.74206997  0.07740524  0.07113212  1
  Se  Se128  1  0.74471368  0.07872180  0.55642736  1
  Se  Se129  1  0.75454668  0.41730368  0.05259867  1
  Se  Se130  1  0.75029137  0.41173751  0.55748491  1
  Se  Se131  1  0.75213897  0.75094940  0.05214861  1
  Se  Se132  1  0.75474670  0.75477774  0.54922011  1
  Se  Se133  1  0.24564034  0.24929531  0.05675016  1
  Se  Se134  1  0.25482088  0.25134212  0.55366067  1
  Se  Se135  1  0.24489429  0.57944031  0.05146074  1
  Se  Se136  1  0.24855899  0.57633635  0.55849983  1
  Se  Se137  1  0.24443214  0.91697347  0.05052338  1
  Se  Se138  1  0.26150286  0.92752437  0.55777947  1
  Se  Se139  1  0.59098904  0.24410266  0.06254459  1
  Se  Se140  1  0.58483790  0.24880943  0.54481850  1
  Se  Se141  1  0.58626026  0.58503141  0.05784201  1
  Se  Se142  1  0.59844688  0.58410416  0.55770437  1
  Se  Se143  1  0.58391513  0.92716772  0.07267132  1
  Se  Se144  1  0.59564774  0.92643055  0.55930520  1
  Se  Se145  1  0.92381217  0.25782014  0.06627156  1
  Se  Se146  1  0.92521157  0.25065010  0.55764247  1
  Se  Se147  1  0.91369601  0.57965886  0.05255928  1
  Se  Se148  1  0.91343039  0.57593341  0.54844276  1
  Se  Se149  1  0.91229246  0.91687736  0.05240928  1
  Se  Se150  1  0.91761043  0.91646271  0.54990737  1
  Se  Se151  1  0.06526459  0.25781738  0.43764140  1
  Se  Se152  1  0.08444015  0.24951239  0.95382255  1
  Se  Se153  1  0.07589906  0.59534006  0.43216140  1
  Se  Se154  1  0.07859017  0.57875262  0.94786638  1
  Se  Se155  1  0.08188770  0.92371954  0.43545754  1
  Se  Se156  1  0.08249603  0.91930036  0.94725255  1
  Se  Se157  1  0.41716508  0.24667003  0.43757140  1
  Se  Se158  1  0.42147093  0.25331212  0.94935602  1
  Se  Se159  1  0.40715960  0.58532951  0.44514371  1
  Se  Se160  1  0.40775918  0.59348582  0.94099550  1
  Se  Se161  1  0.42396473  0.91937685  0.44040811  1
  Se  Se162  1  0.40952822  0.92668481  0.94418542  1
  Se  Se163  1  0.74292175  0.25603782  0.43177064  1
  Se  Se164  1  0.74832306  0.25233128  0.94429602  1
  Se  Se165  1  0.75647474  0.57787322  0.44357508  1
  Se  Se166  1  0.74956659  0.57656178  0.94348239  1
  Se  Se167  1  0.75426613  0.91897006  0.44587784  1
  Se  Se168  1  0.74863167  0.91798756  0.95594948  1
  Se  Se169  1  0.25935778  0.07708227  0.43576671  1
  Se  Se170  1  0.24525033  0.09031252  0.95078723  1
  Se  Se171  1  0.25550346  0.40033780  0.43921216  1
  Se  Se172  1  0.25210263  0.41903240  0.95358851  1
  Se  Se173  1  0.26117144  0.74751507  0.44736607  1
  Se  Se174  1  0.24131834  0.75390859  0.95126926  1
  Se  Se175  1  0.58810007  0.09168537  0.43579367  1
  Se  Se176  1  0.58091005  0.08778966  0.95648596  1
  Se  Se177  1  0.58763369  0.41260844  0.43202748  1
  Se  Se178  1  0.59604614  0.41031198  0.94013463  1
  Se  Se179  1  0.58960219  0.74154610  0.43934205  1
  Se  Se180  1  0.58685283  0.74321865  0.94596445  1
  Se  Se181  1  0.92513480  0.08070752  0.43348201  1
  Se  Se182  1  0.91868799  0.08124028  0.94221956  1
  Se  Se183  1  0.91139772  0.41452686  0.44674231  1
  Se  Se184  1  0.91333274  0.41281945  0.94676908  1
  Se  Se185  1  0.91261475  0.75654583  0.44372166  1
  Se  Se186  1  0.91280990  0.74965305  0.94566709  1
  Se  Se187  1  0.24508766  0.24836383  0.29603675  1
  Se  Se188  1  0.24197524  0.24965995  0.81624544  1
  Se  Se189  1  0.24562979  0.57401351  0.31056147  1
  Se  Se190  1  0.24669919  0.58350797  0.80965037  1
  Se  Se191  1  0.24374664  0.91045508  0.29646500  1
  Se  Se192  1  0.25086253  0.92683833  0.80834165  1
  Se  Se193  1  0.58719240  0.24181917  0.29193664  1
  Se  Se194  1  0.58582264  0.24965831  0.80319702  1
  Se  Se195  1  0.58410549  0.58447629  0.29661924  1
  Se  Se196  1  0.58839503  0.59145958  0.79586793  1
  Se  Se197  1  0.59345597  0.91856200  0.30186719  1
  Se  Se198  1  0.57970351  0.91534312  0.82070635  1
  Se  Se199  1  0.90088140  0.25136768  0.29339065  1
  Se  Se200  1  0.91893833  0.25041752  0.80512715  1
  Se  Se201  1  0.92056182  0.58921803  0.30255442  1
  Se  Se202  1  0.90167898  0.57059090  0.80487627  1
  Se  Se203  1  0.91985290  0.91139873  0.30006391  1
  Se  Se204  1  0.91750615  0.91505102  0.80527571  1
  Se  Se205  1  0.07783526  0.08178350  0.29621755  1
  Se  Se206  1  0.07986189  0.08411655  0.80802798  1
  Se  Se207  1  0.07918439  0.41479045  0.30109751  1
  Se  Se208  1  0.07919242  0.41444162  0.80958165  1
  Se  Se209  1  0.08219670  0.74597121  0.29548822  1
  Se  Se210  1  0.09196080  0.75845959  0.80875426  1
  Se  Se211  1  0.39022186  0.05427453  0.30676214  1
  Se  Se212  1  0.41466647  0.09167140  0.80703891  1
  Se  Se213  1  0.41964074  0.40913315  0.29831626  1
  Se  Se214  1  0.43003112  0.42950649  0.80747720  1
  Se  Se215  1  0.42571024  0.75826312  0.31206608  1
  Se  Se216  1  0.42110741  0.76284038  0.81574604  1
  Se  Se217  1  0.77474102  0.08817204  0.29470701  1
  Se  Se218  1  0.75621185  0.08894425  0.81571837  1
  Se  Se219  1  0.75010070  0.42345796  0.29794043  1
  Se  Se220  1  0.73253858  0.39868511  0.80301699  1
  Se  Se221  1  0.75020704  0.74545352  0.30352877  1
  Se  Se222  1  0.74997371  0.74905348  0.80612563  1
  Se  Se223  1  0.24765245  0.07730112  0.19074350  1
  Se  Se224  1  0.25055586  0.08716452  0.69984723  1
  Se  Se225  1  0.24836113  0.41243157  0.19844504  1
  Se  Se226  1  0.24470390  0.42134701  0.69512887  1
  Se  Se227  1  0.24536819  0.74977139  0.18572060  1
  Se  Se228  1  0.24224493  0.76936696  0.68865310  1
  Se  Se229  1  0.58448715  0.09059340  0.20896077  1
  Se  Se230  1  0.58238221  0.09058312  0.68947808  1
  Se  Se231  1  0.59042496  0.41128706  0.19510756  1
  Se  Se232  1  0.56949650  0.42025016  0.69307747  1
  Se  Se233  1  0.58916283  0.74592216  0.20081460  1
  Se  Se234  1  0.56423898  0.78111285  0.69608442  1
  Se  Se235  1  0.90037071  0.08747380  0.20505336  1
  Se  Se236  1  0.91742980  0.07870012  0.70117255  1
  Se  Se237  1  0.91812754  0.42413637  0.19634383  1
  Se  Se238  1  0.91509763  0.41459155  0.69865074  1
  Se  Se239  1  0.92013850  0.74570528  0.19200039  1
  Se  Se240  1  0.91054815  0.75175803  0.68698766  1
  Se  Se241  1  0.07795196  0.25022308  0.19628552  1
  Se  Se242  1  0.08273702  0.25100178  0.70072241  1
  Se  Se243  1  0.08197993  0.58623380  0.19688087  1
  Se  Se244  1  0.08700025  0.57699473  0.69442601  1
  Se  Se245  1  0.07579447  0.91976118  0.18948068  1
  Se  Se246  1  0.07725406  0.92358580  0.69752323  1
  Se  Se247  1  0.41025514  0.24507309  0.20160007  1
  Se  Se248  1  0.42001129  0.24396065  0.68659523  1
  Se  Se249  1  0.42236473  0.57222966  0.18724722  1
  Se  Se250  1  0.42384992  0.57954080  0.69370766  1
  Se  Se251  1  0.42117052  0.91460104  0.19694211  1
  Se  Se252  1  0.41488292  0.93088852  0.70816571  1
  Se  Se253  1  0.77203849  0.24669870  0.20560415  1
  Se  Se254  1  0.75254792  0.24703411  0.69709974  1
  Se  Se255  1  0.74765089  0.58982986  0.19326874  1
  Se  Se256  1  0.73589186  0.59951885  0.69193647  1
  Se  Se257  1  0.75101897  0.91054411  0.19779928  1
  Se  Se258  1  0.75789864  0.91276825  0.69099342  1
