# generated using pymatgen
data_In86Cu29Se144
_symmetry_space_group_name_H-M   'P 1'
_cell_length_a   17.57653863
_cell_length_b   17.57856093
_cell_length_c   23.44060586
_cell_angle_alpha   90.00859276
_cell_angle_beta   89.97828135
_cell_angle_gamma   90.00911477
_symmetry_Int_Tables_number   1
_chemical_formula_structural   In86Cu29Se144
_chemical_formula_sum   'In86 Cu29 Se144'
_cell_volume   7242.44928195
_cell_formula_units_Z   1
loop_
 _symmetry_equiv_pos_site_id
 _symmetry_equiv_pos_as_xyz
  1  'x, y, z'
loop_
 _atom_site_type_symbol
 _atom_site_label
 _atom_site_symmetry_multiplicity
 _atom_site_fract_x
 _atom_site_fract_y
 _atom_site_fract_z
 _atom_site_occupancy
  In  In0  1  0.00184313  0.15161609  0.13130817  1
  In  In1  1  -0.00274692  0.17075372  0.61071333  1
  In  In2  1  -0.00340623  0.51367154  0.12653597  1
  In  In3  1  -0.01373580  0.49689494  0.61558079  1
  In  In4  1  0.00719240  0.82822960  0.13100931  1
  In  In5  1  0.00777978  0.82620336  0.61648971  1
  In  In6  1  0.33357022  0.15212087  0.11627282  1
  In  In7  1  0.34843814  0.17560722  0.61425080  1
  In  In8  1  0.35313533  0.49656903  0.12602421  1
  In  In9  1  0.33424831  0.47732715  0.63022621  1
  In  In10  1  0.32913637  0.84178468  0.12457907  1
  In  In11  1  0.33258766  0.84382102  0.62087106  1
  In  In12  1  0.65430422  0.17650643  0.13687213  1
  In  In13  1  0.66039058  0.16857562  0.62788691  1
  In  In14  1  0.65085523  0.49200354  0.11046853  1
  In  In15  1  0.66631876  0.50155106  0.62599838  1
  In  In16  1  0.66909646  0.84456476  0.12108804  1
  In  In17  1  0.65819262  0.83319267  0.63597692  1
  In  In18  1  0.16609164  0.00271661  0.37182662  1
  In  In19  1  0.18193539  -0.00596382  0.89208663  1
  In  In20  1  0.15593222  0.32121944  0.38177181  1
  In  In21  1  0.16846521  0.31243433  0.87616040  1
  In  In22  1  0.18022449  0.68273471  0.36697846  1
  In  In23  1  0.18002864  0.67113932  0.88176994  1
  In  In24  1  0.51272680  0.02739263  0.35319283  1
  In  In25  1  0.50345455  0.00138252  0.88464053  1
  In  In26  1  0.51401036  0.31538641  0.38215394  1
  In  In27  1  0.51332452  0.32855312  0.86537912  1
  In  In28  1  0.48874352  0.66623526  0.37335230  1
  In  In29  1  0.53738219  0.63917240  0.91316342  1
  In  In30  1  0.84038472  0.00675332  0.36911728  1
  In  In31  1  0.82263506  0.01093385  0.87214611  1
  In  In32  1  0.82901484  0.34546362  0.38968999  1
  In  In33  1  0.82500435  0.34018441  0.87061440  1
  In  In34  1  0.83261326  0.64886260  0.37510564  1
  In  In35  1  0.81167498  0.65545335  0.87092376  1
  In  In36  1  0.00753504  0.16182899  0.38753990  1
  In  In37  1  0.00693167  0.17156866  0.87566653  1
  In  In38  1  -0.01390088  0.49937506  0.37453035  1
  In  In39  1  -0.01937987  0.49309024  0.87570433  1
  In  In40  1  0.01189422  0.84697008  0.36426389  1
  In  In41  1  0.00886483  0.83759662  0.88000504  1
  In  In42  1  0.34376114  0.15456523  0.37693783  1
  In  In43  1  0.33617378  0.16682387  0.87782383  1
  In  In44  1  0.33877742  0.50995780  0.37231462  1
  In  In45  1  0.35138594  0.49497160  0.87580970  1
  In  In46  1  0.32971489  0.83607007  0.36771325  1
  In  In47  1  0.35233423  0.83933559  0.89824987  1
  In  In48  1  0.66420842  0.17516459  0.37501120  1
  In  In49  1  0.65863988  0.15127169  0.84893709  1
  In  In50  1  0.67230130  0.48731903  0.38451127  1
  In  In51  1  0.66839007  0.49619488  0.87293946  1
  In  In52  1  0.65304587  0.84056279  0.37094638  1
  In  In53  1  0.65703341  0.82885307  0.87412807  1
  In  In54  1  0.16977234  -0.00203824  0.12522027  1
  In  In55  1  0.16749574  0.00050626  0.61442329  1
  In  In56  1  0.18150919  0.32609381  0.12190897  1
  In  In57  1  0.18156900  0.32374916  0.62786002  1
  In  In58  1  0.15941984  0.68172454  0.13133782  1
  In  In59  1  0.15825640  0.66842709  0.61957098  1
  In  In60  1  0.50168197  0.00323861  0.12120109  1
  In  In61  1  0.50202896  0.01169727  0.62588414  1
  In  In62  1  0.50516571  0.33542953  0.11780957  1
  In  In63  1  0.49708129  0.32991704  0.62732201  1
  In  In64  1  0.49225381  0.65856146  0.11984192  1
  In  In65  1  0.51770491  0.65995638  0.63077046  1
  In  In66  1  0.82689456  0.00473596  0.13750737  1
  In  In67  1  0.81398760  0.00958025  0.62883569  1
  In  In68  1  0.81306926  0.32809776  0.12458495  1
  In  In69  1  0.81856831  0.32403452  0.62315059  1
  In  In70  1  0.83634951  0.66685262  0.12145652  1
  In  In71  1  0.82507128  0.65235185  0.62234342  1
  In  In72  1  0.66792120  0.66852818  0.24568231  1
  In  In73  1  -0.00951298  0.33035592  0.74268954  1
  In  In74  1  -0.00289516  0.00304057  0.74487710  1
  In  In75  1  0.83854905  0.83859227  0.49671418  1
  In  In76  1  0.34109059  0.32981739  0.24732105  1
  In  In77  1  0.49016693  0.83604042  0.49431958  1
  In  In78  1  -0.00423499  0.33541391  0.26078061  1
  In  In79  1  0.34056376  0.00401210  0.75904173  1
  In  In80  1  -0.00626539  0.66387692  0.74354391  1
  In  In81  1  0.16784744  0.50199244  0.00236767  1
  In  In82  1  0.83564098  0.17115149  -0.00222389  1
  In  In83  1  0.16926377  0.49862622  0.49784787  1
  In  In84  1  0.33812964  0.66811695  0.76518021  1
  In  In85  1  0.83424827  0.82547438  0.00507007  1
  Cu  Cu86  1  0.50186854  0.83398442  0.76280849  1
  Cu  Cu87  1  -0.00078283  0.33320483  -0.00181614  1
  Cu  Cu88  1  0.00693461  -0.00367108  0.00684583  1
  Cu  Cu89  1  0.00060342  0.00066226  0.49331796  1
  Cu  Cu90  1  0.16990112  0.51318399  0.25066957  1
  Cu  Cu91  1  0.82718626  0.16809436  0.25526130  1
  Cu  Cu92  1  0.50252928  0.50237628  0.75561379  1
  Cu  Cu93  1  0.32874238  -0.00028259  0.49275697  1
  Cu  Cu94  1  0.16203697  0.48579276  0.74947110  1
  Cu  Cu95  1  0.16812225  0.84011392  0.24704000  1
  Cu  Cu96  1  0.82833636  0.49655277  0.25220809  1
  Cu  Cu97  1  0.17556026  0.83112256  0.75175678  1
  Cu  Cu98  1  0.66986232  0.66067684  0.50321561  1
  Cu  Cu99  1  0.50857787  0.49746066  0.24678012  1
  Cu  Cu100  1  0.82773032  0.83457156  0.75121125  1
  Cu  Cu101  1  0.33550414  0.32675928  0.50194517  1
  Cu  Cu102  1  0.66212567  0.32893492  -0.00521953  1
  Cu  Cu103  1  0.16411716  0.16310493  0.25160524  1
  Cu  Cu104  1  0.17582966  0.15780492  0.75222457  1
  Cu  Cu105  1  0.66192935  0.01095947  0.49856362  1
  Cu  Cu106  1  0.83797042  0.82922828  0.24881978  1
  Cu  Cu107  1  0.33136819  0.67363486  0.00648737  1
  Cu  Cu108  1  0.00664114  0.67229608  0.49345951  1
  Cu  Cu109  1  -0.00705867  0.66224577  0.00293860  1
  Cu  Cu110  1  0.34407462  0.32935483  -0.00372023  1
  Cu  Cu111  1  0.65928955  0.33231860  0.50630342  1
  Cu  Cu112  1  0.66508731  0.00687173  -0.00017463  1
  Cu  Cu113  1  0.33650807  0.66513497  0.49664103  1
  Cu  Cu114  1  0.49284984  0.84007823  0.24637986  1
  Se  Se115  1  0.08636870  0.08619226  0.05660015  1
  Se  Se116  1  0.08385794  0.08405292  0.54850439  1
  Se  Se117  1  0.07815493  0.41039658  0.06324225  1
  Se  Se118  1  0.08727961  0.41043695  0.56374434  1
  Se  Se119  1  0.07666422  0.74720858  0.05323142  1
  Se  Se120  1  0.09300559  0.75439922  0.54394757  1
  Se  Se121  1  0.41781929  0.07495919  0.04531406  1
  Se  Se122  1  0.41619672  0.07534523  0.54986929  1
  Se  Se123  1  0.42203160  0.41829284  0.04863208  1
  Se  Se124  1  0.41662657  0.41361405  0.55357388  1
  Se  Se125  1  0.41657665  0.75595391  0.05834336  1
  Se  Se126  1  0.41532542  0.74108884  0.56367860  1
  Se  Se127  1  0.74719687  0.08399499  0.06118158  1
  Se  Se128  1  0.74600826  0.09133823  0.55347400  1
  Se  Se129  1  0.74635882  0.41125012  0.04911527  1
  Se  Se130  1  0.74569764  0.41754688  0.55548033  1
  Se  Se131  1  0.73440894  0.73748827  0.05581974  1
  Se  Se132  1  0.74280707  0.75388649  0.55784181  1
  Se  Se133  1  0.25864585  0.24862852  0.05016988  1
  Se  Se134  1  0.24726880  0.24284091  0.54968479  1
  Se  Se135  1  0.25481816  0.58816841  0.06672179  1
  Se  Se136  1  0.26028408  0.58542498  0.56211614  1
  Se  Se137  1  0.23526554  0.90612952  0.05411449  1
  Se  Se138  1  0.24918841  0.91357437  0.54732813  1
  Se  Se139  1  0.58524083  0.24395405  0.05284621  1
  Se  Se140  1  0.57575214  0.24552172  0.55599175  1
  Se  Se141  1  0.57867578  0.58780961  0.04739015  1
  Se  Se142  1  0.58068911  0.57950354  0.55221588  1
  Se  Se143  1  0.58427505  0.91864949  0.05005640  1
  Se  Se144  1  0.58793115  0.91894260  0.55553445  1
  Se  Se145  1  0.92443063  0.25479858  0.06586895  1
  Se  Se146  1  0.91568919  0.26294290  0.55306965  1
  Se  Se147  1  0.90909201  0.57642858  0.05074710  1
  Se  Se148  1  0.92054030  0.59460739  0.54890990  1
  Se  Se149  1  0.91708132  0.92396049  0.06423229  1
  Se  Se150  1  0.92200726  0.92913853  0.56309857  1
  Se  Se151  1  0.07009218  0.25969693  0.45581324  1
  Se  Se152  1  0.08360876  0.24583829  0.95216254  1
  Se  Se153  1  0.08639287  0.59045325  0.43357451  1
  Se  Se154  1  0.07415926  0.58584404  0.93778757  1
  Se  Se155  1  0.08610269  0.91687583  0.44357496  1
  Se  Se156  1  0.08855623  0.91136182  0.95315750  1
  Se  Se157  1  0.41724017  0.24315922  0.44674850  1
  Se  Se158  1  0.42751231  0.25189629  0.93832519  1
  Se  Se159  1  0.42133054  0.58016824  0.44846335  1
  Se  Se160  1  0.40787839  0.58595667  0.95077321  1
  Se  Se161  1  0.41682927  0.93156094  0.42982891  1
  Se  Se162  1  0.39809543  0.95644059  0.95583185  1
  Se  Se163  1  0.74432730  0.25288027  0.44907498  1
  Se  Se164  1  0.74017521  0.24638962  0.93394867  1
  Se  Se165  1  0.75356185  0.57710984  0.45050781  1
  Se  Se166  1  0.74485244  0.57842557  0.94739491  1
  Se  Se167  1  0.73965137  0.92445574  0.44051425  1
  Se  Se168  1  0.74956525  0.92295690  0.94458271  1
  Se  Se169  1  0.24517616  0.08713761  0.44295743  1
  Se  Se170  1  0.23663870  0.10637256  0.94631413  1
  Se  Se171  1  0.26050536  0.40775369  0.43715667  1
  Se  Se172  1  0.25452993  0.40942027  0.94065041  1
  Se  Se173  1  0.25829512  0.75341943  0.44501444  1
  Se  Se174  1  0.25036664  0.75756496  0.95264378  1
  Se  Se175  1  0.57742890  0.08797682  0.44161745  1
  Se  Se176  1  0.59488254  0.09422543  0.93954226  1
  Se  Se177  1  0.57724358  0.41512034  0.44959680  1
  Se  Se178  1  0.58084781  0.41496615  0.94143574  1
  Se  Se179  1  0.58967582  0.74120837  0.44275154  1
  Se  Se180  1  0.56578322  0.77400485  0.94968017  1
  Se  Se181  1  0.90914021  0.08310343  0.44837395  1
  Se  Se182  1  0.92709855  0.07183595  0.94237956  1
  Se  Se183  1  0.92643635  0.41830693  0.45249942  1
  Se  Se184  1  0.90883364  0.40913289  0.94806789  1
  Se  Se185  1  0.92269144  0.74838990  0.43254880  1
  Se  Se186  1  0.91896465  0.73998404  0.93510232  1
  Se  Se187  1  0.24389535  0.24738740  0.30885869  1
  Se  Se188  1  0.25561606  0.24616452  0.80280682  1
  Se  Se189  1  0.25939496  0.59099498  0.30190255  1
  Se  Se190  1  0.23930228  0.56845479  0.81155439  1
  Se  Se191  1  0.25031679  0.92385723  0.30115303  1
  Se  Se192  1  0.25417964  0.90486816  0.81546853  1
  Se  Se193  1  0.57926153  0.24628322  0.30040431  1
  Se  Se194  1  0.61598778  0.27264511  0.79397955  1
  Se  Se195  1  0.58461390  0.57825295  0.31110426  1
  Se  Se196  1  0.57769872  0.58839185  0.81353749  1
  Se  Se197  1  0.58262634  0.92010775  0.29634776  1
  Se  Se198  1  0.58363020  0.92530201  0.80984141  1
  Se  Se199  1  0.90781821  0.24455464  0.31916161  1
  Se  Se200  1  0.90886894  0.23922583  0.80841211  1
  Se  Se201  1  0.91620810  0.58209902  0.29837168  1
  Se  Se202  1  0.90294321  0.57392336  0.80056842  1
  Se  Se203  1  0.91667926  0.91938308  0.29987675  1
  Se  Se204  1  0.91326613  0.90882611  0.81005038  1
  Se  Se205  1  0.07650441  0.08683718  0.30704161  1
  Se  Se206  1  0.09440121  0.07821036  0.81148147  1
  Se  Se207  1  0.09586375  0.42798689  0.31158728  1
  Se  Se208  1  0.08123300  0.41262182  0.81335534  1
  Se  Se209  1  0.08534147  0.75197316  0.29916187  1
  Se  Se210  1  0.09060480  0.74921893  0.80650480  1
  Se  Se211  1  0.40623365  0.08663929  0.29248167  1
  Se  Se212  1  0.43495911  0.09643796  0.80832942  1
  Se  Se213  1  0.42849545  0.41876862  0.31011199  1
  Se  Se214  1  0.41979790  0.41171382  0.80181218  1
  Se  Se215  1  0.41746600  0.75254809  0.30221967  1
  Se  Se216  1  0.42789459  0.75366369  0.82539287  1
  Se  Se217  1  0.74424152  0.08310517  0.30770610  1
  Se  Se218  1  0.76250356  0.08269275  0.79011806  1
  Se  Se219  1  0.75081658  0.41280333  0.30887840  1
  Se  Se220  1  0.74442943  0.41520651  0.79882660  1
  Se  Se221  1  0.75600750  0.75506956  0.31276659  1
  Se  Se222  1  0.74513149  0.75241248  0.80523073  1
  Se  Se223  1  0.24811659  0.08726180  0.19333359  1
  Se  Se224  1  0.25195069  0.08106278  0.68729125  1
  Se  Se225  1  0.24580668  0.42657936  0.19242860  1
  Se  Se226  1  0.25271017  0.40412949  0.70423608  1
  Se  Se227  1  0.25329555  0.75393643  0.19712650  1
  Se  Se228  1  0.25075023  0.74863459  0.69095115  1
  Se  Se229  1  0.59982077  0.06338318  0.19150763  1
  Se  Se230  1  0.58854342  0.07644783  0.69747235  1
  Se  Se231  1  0.58708994  0.41339192  0.19149286  1
  Se  Se232  1  0.57587264  0.42261310  0.69211156  1
  Se  Se233  1  0.57537429  0.75752039  0.18773000  1
  Se  Se234  1  0.57995540  0.74872092  0.70564210  1
  Se  Se235  1  0.91386790  0.08571254  0.20420938  1
  Se  Se236  1  0.91129000  0.09737142  0.68821923  1
  Se  Se237  1  0.90978869  0.41724261  0.19001248  1
  Se  Se238  1  0.90098094  0.42622722  0.69015246  1
  Se  Se239  1  0.91619252  0.74438376  0.19377806  1
  Se  Se240  1  0.90684188  0.76110437  0.68581184  1
  Se  Se241  1  0.08780918  0.25140794  0.19455415  1
  Se  Se242  1  0.08953953  0.23527324  0.69323741  1
  Se  Se243  1  0.08133709  0.58863087  0.19658098  1
  Se  Se244  1  0.08828702  0.56816965  0.68864934  1
  Se  Se245  1  0.08005791  0.92264299  0.19635733  1
  Se  Se246  1  0.09361010  0.90761184  0.69125774  1
  Se  Se247  1  0.42311204  0.24039924  0.18348386  1
  Se  Se248  1  0.41309705  0.24636903  0.69518768  1
  Se  Se249  1  0.42114211  0.58300155  0.20006172  1
  Se  Se250  1  0.41624806  0.57904120  0.69441150  1
  Se  Se251  1  0.41387914  0.92501518  0.19194482  1
  Se  Se252  1  0.42460817  0.90774660  0.69592924  1
  Se  Se253  1  0.74495173  0.25393795  0.20405809  1
  Se  Se254  1  0.73191310  0.26068683  0.69954337  1
  Se  Se255  1  0.75029282  0.57196454  0.18626712  1
  Se  Se256  1  0.73296712  0.59832112  0.69504071  1
  Se  Se257  1  0.74857437  0.91056498  0.19992045  1
  Se  Se258  1  0.74529835  0.91857047  0.69861917  1
