# generated using pymatgen
data_In86Cu29Se144
_symmetry_space_group_name_H-M   'P 1'
_cell_length_a   17.58998072
_cell_length_b   17.58172599
_cell_length_c   23.44981350
_cell_angle_alpha   90.00116695
_cell_angle_beta   89.99094510
_cell_angle_gamma   89.98188567
_symmetry_Int_Tables_number   1
_chemical_formula_structural   In86Cu29Se144
_chemical_formula_sum   'In86 Cu29 Se144'
_cell_volume   7252.14095735
_cell_formula_units_Z   1
loop_
 _symmetry_equiv_pos_site_id
 _symmetry_equiv_pos_as_xyz
  1  'x, y, z'
loop_
 _atom_site_type_symbol
 _atom_site_label
 _atom_site_symmetry_multiplicity
 _atom_site_fract_x
 _atom_site_fract_y
 _atom_site_fract_z
 _atom_site_occupancy
  In  In0  1  0.00993723  0.15999974  0.13124210  1
  In  In1  1  0.00377063  0.15941979  0.61757612  1
  In  In2  1  -0.00249118  0.49778162  0.12427898  1
  In  In3  1  -0.00482534  0.49734845  0.61505482  1
  In  In4  1  -0.00179286  0.83275794  0.13630200  1
  In  In5  1  -0.02056231  0.80325359  0.59184747  1
  In  In6  1  0.34490152  0.17969435  0.11889183  1
  In  In7  1  0.34018571  0.17421533  0.62229143  1
  In  In8  1  0.32102794  0.48765517  0.11616065  1
  In  In9  1  0.31900195  0.48856982  0.63410262  1
  In  In10  1  0.33865675  0.82467629  0.12589811  1
  In  In11  1  0.33633112  0.82966352  0.61566710  1
  In  In12  1  0.66961959  0.17828433  0.12306163  1
  In  In13  1  0.64828738  0.17968817  0.63121338  1
  In  In14  1  0.66027824  0.49258166  0.11472996  1
  In  In15  1  0.68263803  0.49352177  0.64081064  1
  In  In16  1  0.66512377  0.83895525  0.12131160  1
  In  In17  1  0.66442018  0.83427311  0.62856879  1
  In  In18  1  0.15895521  0.01120220  0.37608575  1
  In  In19  1  0.17720303  0.00366962  0.87211535  1
  In  In20  1  0.16801911  0.33435411  0.37503417  1
  In  In21  1  0.16520878  0.33384498  0.88311037  1
  In  In22  1  0.14346123  0.68298222  0.39381293  1
  In  In23  1  0.15739171  0.64635949  0.87436623  1
  In  In24  1  0.51266995  0.00311685  0.38755783  1
  In  In25  1  0.50104616  -0.00584932  0.87661925  1
  In  In26  1  0.49416004  0.32843222  0.36820907  1
  In  In27  1  0.49703653  0.33392559  0.87400764  1
  In  In28  1  0.50915280  0.67018887  0.37758582  1
  In  In29  1  0.51289784  0.65605270  0.87996158  1
  In  In30  1  0.83379358  -0.01579965  0.38414408  1
  In  In31  1  0.82803405  0.01321957  0.87017948  1
  In  In32  1  0.84117509  0.33818761  0.36948627  1
  In  In33  1  0.82241451  0.36251850  0.87819518  1
  In  In34  1  0.86169436  0.65220200  0.39999024  1
  In  In35  1  0.82929397  0.65992625  0.87285081  1
  In  In36  1  0.01172045  0.18267388  0.36431091  1
  In  In37  1  0.00196404  0.18811716  0.88375790  1
  In  In38  1  0.00441996  0.49962670  0.37617975  1
  In  In39  1  0.00390058  0.49243627  0.90207927  1
  In  In40  1  -0.00314739  0.83539014  0.37529361  1
  In  In41  1  -0.00183069  0.81829901  0.87619856  1
  In  In42  1  0.32985617  0.17612785  0.37933841  1
  In  In43  1  0.32022807  0.18402624  0.88531393  1
  In  In44  1  0.32440880  0.48380998  0.36759752  1
  In  In45  1  0.33609739  0.49622477  0.87535336  1
  In  In46  1  0.34007144  0.82800896  0.37920014  1
  In  In47  1  0.33271708  0.84900812  0.87124286  1
  In  In48  1  0.65701265  0.17228254  0.38165828  1
  In  In49  1  0.65384362  0.15909661  0.86714494  1
  In  In50  1  0.67995323  0.49983344  0.37697280  1
  In  In51  1  0.66678540  0.49654008  0.86788773  1
  In  In52  1  0.67735430  0.83979363  0.39434437  1
  In  In53  1  0.65924753  0.82488539  0.86597560  1
  In  In54  1  0.15487272  -0.00277524  0.13242081  1
  In  In55  1  0.16507320  -0.00367497  0.61570582  1
  In  In56  1  0.16771516  0.33923962  0.12879297  1
  In  In57  1  0.17462898  0.33898134  0.62019110  1
  In  In58  1  0.15306122  0.65233214  0.11954152  1
  In  In59  1  0.15078950  0.64986397  0.60478609  1
  In  In60  1  0.49808008  0.00022343  0.11747019  1
  In  In61  1  0.51371292  0.01343554  0.61368521  1
  In  In62  1  0.50197538  0.33202453  0.12248631  1
  In  In63  1  0.50822836  0.32650978  0.62913302  1
  In  In64  1  0.50014509  0.66673068  0.11260958  1
  In  In65  1  0.50420963  0.68059209  0.62557820  1
  In  In66  1  0.83333654  0.00612475  0.13156148  1
  In  In67  1  0.83022421  -0.00976075  0.62288989  1
  In  In68  1  0.82514536  0.34329538  0.13139186  1
  In  In69  1  0.81573887  0.34291835  0.61987675  1
  In  In70  1  0.85418141  0.65072714  0.12638778  1
  In  In71  1  0.81987843  0.64959023  0.61171880  1
  In  In72  1  0.50116863  0.50147067  0.49967286  1
  In  In73  1  -0.00821761  0.65275313  0.74113152  1
  In  In74  1  0.32228465  0.65268783  0.24147879  1
  In  In75  1  0.83143366  0.16647027  0.49690654  1
  In  In76  1  0.67293371  0.66728083  0.25981008  1
  In  In77  1  -0.00552171  0.33575314  0.75649307  1
  In  In78  1  0.82807728  0.82320512  -0.00204853  1
  In  In79  1  0.33841062  0.00669593  0.74353415  1
  In  In80  1  0.67256252  0.00467147  0.26272198  1
  In  In81  1  0.83355713  0.17350154  0.00351804  1
  In  In82  1  0.00035120  -0.00360761  0.74149711  1
  In  In83  1  0.33668084  0.66832864  0.75097540  1
  In  In84  1  0.33200062  0.00552750  0.26029778  1
  In  In85  1  0.17247066  0.83394959  0.00507508  1
  Cu  Cu86  1  0.34136979  0.67740535  -0.00573628  1
  Cu  Cu87  1  0.84024826  0.16961987  0.24943711  1
  Cu  Cu88  1  0.83849931  0.82758507  0.25915622  1
  Cu  Cu89  1  0.00263951  0.33312302  0.49276281  1
  Cu  Cu90  1  0.82920930  0.83351716  0.74881078  1
  Cu  Cu91  1  0.66909134  0.66031230  -0.00562464  1
  Cu  Cu92  1  0.66484212  0.67188479  0.50250626  1
  Cu  Cu93  1  0.50293089  0.83005838  0.25127932  1
  Cu  Cu94  1  0.00931412  0.00427520  0.49538350  1
  Cu  Cu95  1  0.65923824  0.33063202  -0.00494399  1
  Cu  Cu96  1  0.81961901  0.17280283  0.74815831  1
  Cu  Cu97  1  0.16054172  0.82269835  0.73428403  1
  Cu  Cu98  1  0.33560452  0.00921623  -0.00291374  1
  Cu  Cu99  1  0.33326401  0.65879228  0.50290661  1
  Cu  Cu100  1  0.33552343  0.32916546  0.49748513  1
  Cu  Cu101  1  0.49324307  0.17110424  0.75071749  1
  Cu  Cu102  1  0.00370342  -0.00313565  0.00448317  1
  Cu  Cu103  1  0.65809643  -0.00547383  -0.00451700  1
  Cu  Cu104  1  0.15565030  0.82951206  0.25519949  1
  Cu  Cu105  1  0.33378512  -0.00178940  0.49654229  1
  Cu  Cu106  1  0.83771992  0.50283694  0.25317840  1
  Cu  Cu107  1  0.17336068  0.17458372  0.24957960  1
  Cu  Cu108  1  0.50211744  0.48815892  0.24164860  1
  Cu  Cu109  1  0.33526957  0.33827108  0.00063346  1
  Cu  Cu110  1  0.16309320  0.17150517  0.75568818  1
  Cu  Cu111  1  0.50684025  0.83494823  0.75020370  1
  Cu  Cu112  1  0.15912657  0.50152121  0.24906510  1
  Cu  Cu113  1  0.50616857  0.17065137  0.24813722  1
  Cu  Cu114  1  0.50120463  0.50097385  0.75497924  1
  Se  Se115  1  0.08761627  0.07993788  0.05591995  1
  Se  Se116  1  0.09202151  0.08876676  0.54742658  1
  Se  Se117  1  0.10876677  0.44283836  0.06337505  1
  Se  Se118  1  0.08350167  0.41300446  0.55246506  1
  Se  Se119  1  0.07037015  0.75043025  0.05718945  1
  Se  Se120  1  0.10283490  0.76176002  0.54442042  1
  Se  Se121  1  0.42092685  0.08904146  0.05153820  1
  Se  Se122  1  0.41161779  0.08281359  0.55322831  1
  Se  Se123  1  0.42225578  0.41897541  0.05367568  1
  Se  Se124  1  0.41116927  0.41231212  0.56055762  1
  Se  Se125  1  0.42240401  0.76122442  0.04901188  1
  Se  Se126  1  0.42003427  0.74547088  0.54862116  1
  Se  Se127  1  0.74064947  0.07214920  0.05623060  1
  Se  Se128  1  0.74547117  0.09041258  0.56826401  1
  Se  Se129  1  0.74717075  0.40822602  0.04986409  1
  Se  Se130  1  0.74803860  0.43562400  0.55189198  1
  Se  Se131  1  0.74325163  0.73484270  0.06398237  1
  Se  Se132  1  0.74914459  0.75557782  0.55592864  1
  Se  Se133  1  0.25127504  0.25734410  0.05688088  1
  Se  Se134  1  0.25043366  0.24827018  0.55293983  1
  Se  Se135  1  0.26490275  0.60202910  0.05921080  1
  Se  Se136  1  0.25574549  0.57034956  0.55453502  1
  Se  Se137  1  0.26176280  0.92917095  0.06382197  1
  Se  Se138  1  0.25213262  0.91483232  0.55044093  1
  Se  Se139  1  0.58144037  0.24551646  0.05126073  1
  Se  Se140  1  0.57838782  0.25182609  0.55094785  1
  Se  Se141  1  0.58141493  0.58019666  0.04741228  1
  Se  Se142  1  0.58935283  0.58691606  0.56306785  1
  Se  Se143  1  0.57818732  0.91100016  0.05141752  1
  Se  Se144  1  0.56604093  0.89763706  0.56075856  1
  Se  Se145  1  0.92086333  0.25344269  0.06987254  1
  Se  Se146  1  0.92135102  0.25966771  0.55886965  1
  Se  Se147  1  0.90428618  0.56054263  0.05045483  1
  Se  Se148  1  0.93871712  0.60791682  0.55546706  1
  Se  Se149  1  0.91611044  0.91932452  0.05932369  1
  Se  Se150  1  0.92125566  0.92739847  0.54979545  1
  Se  Se151  1  0.08823826  0.24761533  0.44527535  1
  Se  Se152  1  0.09220321  0.24745322  0.95528923  1
  Se  Se153  1  0.08803527  0.57229619  0.45040232  1
  Se  Se154  1  0.08618804  0.58888149  0.95823624  1
  Se  Se155  1  0.08749330  0.91603907  0.44165368  1
  Se  Se156  1  0.07902084  0.91968424  0.93807603  1
  Se  Se157  1  0.42346444  0.24890765  0.44628701  1
  Se  Se158  1  0.41893475  0.25310309  0.94880469  1
  Se  Se159  1  0.40822983  0.58435956  0.43312421  1
  Se  Se160  1  0.41562833  0.58469342  0.94295149  1
  Se  Se161  1  0.41943695  0.91670869  0.44439245  1
  Se  Se162  1  0.41318594  0.91794222  0.94689514  1
  Se  Se163  1  0.74682625  0.26509242  0.44189074  1
  Se  Se164  1  0.74280991  0.25052478  0.93526886  1
  Se  Se165  1  0.74728800  0.58669358  0.45052976  1
  Se  Se166  1  0.74971244  0.57616556  0.94149805  1
  Se  Se167  1  0.73183367  0.94676510  0.45710357  1
  Se  Se168  1  0.74614886  0.92175880  0.93762511  1
  Se  Se169  1  0.25282887  0.08283239  0.44254647  1
  Se  Se170  1  0.24419113  0.08562660  0.94752608  1
  Se  Se171  1  0.25081126  0.41471177  0.44758046  1
  Se  Se172  1  0.25131800  0.42129676  0.94708775  1
  Se  Se173  1  0.25703850  0.74635068  0.44703236  1
  Se  Se174  1  0.25280158  0.74766836  0.93312019  1
  Se  Se175  1  0.59153470  0.08583137  0.45528779  1
  Se  Se176  1  0.57890793  0.08385326  0.94462343  1
  Se  Se177  1  0.58628991  0.41295207  0.43673446  1
  Se  Se178  1  0.58272899  0.41857903  0.94010230  1
  Se  Se179  1  0.58089108  0.75379661  0.44957023  1
  Se  Se180  1  0.58770455  0.75123144  0.94575902  1
  Se  Se181  1  0.92880835  0.08554172  0.43450515  1
  Se  Se182  1  0.92418352  0.07776021  0.94369792  1
  Se  Se183  1  0.91618708  0.41762050  0.44453863  1
  Se  Se184  1  0.93524247  0.37624301  0.94568141  1
  Se  Se185  1  0.90084237  0.77663085  0.44827121  1
  Se  Se186  1  0.92441566  0.73072781  0.94730603  1
  Se  Se187  1  0.25589153  0.25535447  0.30448899  1
  Se  Se188  1  0.24469388  0.25587465  0.80732022  1
  Se  Se189  1  0.23398295  0.58281460  0.31406409  1
  Se  Se190  1  0.24382369  0.57326548  0.80188556  1
  Se  Se191  1  0.24353971  0.90554256  0.31163610  1
  Se  Se192  1  0.23709182  0.90889258  0.79384630  1
  Se  Se193  1  0.58990176  0.25165396  0.30294891  1
  Se  Se194  1  0.57989906  0.25341244  0.80235909  1
  Se  Se195  1  0.57356652  0.57029008  0.30691381  1
  Se  Se196  1  0.58713778  0.58815118  0.80030111  1
  Se  Se197  1  0.58189996  0.90543779  0.31358366  1
  Se  Se198  1  0.58559433  0.92313971  0.80280705  1
  Se  Se199  1  0.92217371  0.25872882  0.29746776  1
  Se  Se200  1  0.90054087  0.24379166  0.81274729  1
  Se  Se201  1  0.91608196  0.58609191  0.31056069  1
  Se  Se202  1  0.92358269  0.56715281  0.81795318  1
  Se  Se203  1  0.91631381  0.92235564  0.30539421  1
  Se  Se204  1  0.91250203  0.90894588  0.81003680  1
  Se  Se205  1  0.08785725  0.08807973  0.29827097  1
  Se  Se206  1  0.08003717  0.08803880  0.81038927  1
  Se  Se207  1  0.08259118  0.41446476  0.30539719  1
  Se  Se208  1  0.08285153  0.42556365  0.81610056  1
  Se  Se209  1  0.07482254  0.74429114  0.30764332  1
  Se  Se210  1  0.08812152  0.74655345  0.80201689  1
  Se  Se211  1  0.43219539  0.09016543  0.31288376  1
  Se  Se212  1  0.41353184  0.09369744  0.81521295  1
  Se  Se213  1  0.41484603  0.41325829  0.29812189  1
  Se  Se214  1  0.41511209  0.41674992  0.80330032  1
  Se  Se215  1  0.41871018  0.74393974  0.30177976  1
  Se  Se216  1  0.42468228  0.75890414  0.81225972  1
  Se  Se217  1  0.76460852  0.09575308  0.31799793  1
  Se  Se218  1  0.74208007  0.08095517  0.79763263  1
  Se  Se219  1  0.75106056  0.41862721  0.30201427  1
  Se  Se220  1  0.74679482  0.41589279  0.79559259  1
  Se  Se221  1  0.75899582  0.75446936  0.32262448  1
  Se  Se222  1  0.75293767  0.74605474  0.80356871  1
  Se  Se223  1  0.25114938  0.08939547  0.18974187  1
  Se  Se224  1  0.23726494  0.09159512  0.69006636  1
  Se  Se225  1  0.25177846  0.42211801  0.20021254  1
  Se  Se226  1  0.24473762  0.40385648  0.70334260  1
  Se  Se227  1  0.23431901  0.75631844  0.18918379  1
  Se  Se228  1  0.24473707  0.74188734  0.67976133  1
  Se  Se229  1  0.58233177  0.08266631  0.19173128  1
  Se  Se230  1  0.57573967  0.08437815  0.69876001  1
  Se  Se231  1  0.59187657  0.41037926  0.19135508  1
  Se  Se232  1  0.58139773  0.41811634  0.69757526  1
  Se  Se233  1  0.58144904  0.75038097  0.19170694  1
  Se  Se234  1  0.58896424  0.74631404  0.70131685  1
  Se  Se235  1  0.92034265  0.08064569  0.19924427  1
  Se  Se236  1  0.90551365  0.09407661  0.69057918  1
  Se  Se237  1  0.91732179  0.41738164  0.19833861  1
  Se  Se238  1  0.90983930  0.42108630  0.68929868  1
  Se  Se239  1  0.91459598  0.74498163  0.19937439  1
  Se  Se240  1  0.91334348  0.75793989  0.68742895  1
  Se  Se241  1  0.08562437  0.25296867  0.19654461  1
  Se  Se242  1  0.08024415  0.24477378  0.69203724  1
  Se  Se243  1  0.07514207  0.58572108  0.19774657  1
  Se  Se244  1  0.09247251  0.56716897  0.68851770  1
  Se  Se245  1  0.07565889  0.91975002  0.20495644  1
  Se  Se246  1  0.07825842  0.90295409  0.67744779  1
  Se  Se247  1  0.42050130  0.25232782  0.19632060  1
  Se  Se248  1  0.41215579  0.25534106  0.69743185  1
  Se  Se249  1  0.42505247  0.57493240  0.18442317  1
  Se  Se250  1  0.42442075  0.57722534  0.68827720  1
  Se  Se251  1  0.42238039  0.91367520  0.19613569  1
  Se  Se252  1  0.42300111  0.90912910  0.68879271  1
  Se  Se253  1  0.75052322  0.24764317  0.19761951  1
  Se  Se254  1  0.74265659  0.25946982  0.69344464  1
  Se  Se255  1  0.75089138  0.57773843  0.19149338  1
  Se  Se256  1  0.76519256  0.58630850  0.70037839  1
  Se  Se257  1  0.75532483  0.90615356  0.19857474  1
  Se  Se258  1  0.74820932  0.91924120  0.69742159  1
