# generated using pymatgen
data_In86Cu29Se144
_symmetry_space_group_name_H-M   'P 1'
_cell_length_a   17.58438141
_cell_length_b   17.58538196
_cell_length_c   23.43993191
_cell_angle_alpha   90.04720921
_cell_angle_beta   89.99908055
_cell_angle_gamma   89.98151641
_symmetry_Int_Tables_number   1
_chemical_formula_structural   In86Cu29Se144
_chemical_formula_sum   'In86 Cu29 Se144'
_cell_volume   7248.28191703
_cell_formula_units_Z   1
loop_
 _symmetry_equiv_pos_site_id
 _symmetry_equiv_pos_as_xyz
  1  'x, y, z'
loop_
 _atom_site_type_symbol
 _atom_site_label
 _atom_site_symmetry_multiplicity
 _atom_site_fract_x
 _atom_site_fract_y
 _atom_site_fract_z
 _atom_site_occupancy
  In  In0  1  0.01495028  0.16379007  0.13941904  1
  In  In1  1  0.00523192  0.16129901  0.62756792  1
  In  In2  1  0.00850872  0.49648884  0.12718158  1
  In  In3  1  0.00932874  0.48844289  0.63022579  1
  In  In4  1  0.00456190  0.82281035  0.12982050  1
  In  In5  1  0.00112671  0.83715546  0.63293307  1
  In  In6  1  0.31716795  0.17408494  0.14314404  1
  In  In7  1  0.33711307  0.18252543  0.62102081  1
  In  In8  1  0.33375817  0.50169714  0.12251200  1
  In  In9  1  0.31926245  0.51111596  0.62986305  1
  In  In10  1  0.33163129  0.82651208  0.12508257  1
  In  In11  1  0.32440312  0.82450213  0.62756898  1
  In  In12  1  0.66571213  0.16591382  0.13248526  1
  In  In13  1  0.67752176  0.17078191  0.62315736  1
  In  In14  1  0.66137873  0.50463650  0.12679901  1
  In  In15  1  0.66381205  0.50435625  0.63218305  1
  In  In16  1  0.65688918  0.84033677  0.13305152  1
  In  In17  1  0.66051047  0.82688927  0.62393060  1
  In  In18  1  0.17228342  0.00868802  0.36139152  1
  In  In19  1  0.15269660  -0.00567360  0.87904452  1
  In  In20  1  0.16843508  0.33774035  0.37099617  1
  In  In21  1  0.17447140  0.34170013  0.86910283  1
  In  In22  1  0.16951246  0.66305809  0.37459476  1
  In  In23  1  0.16715624  0.66437988  0.87848173  1
  In  In24  1  0.49963585  0.00598243  0.36630085  1
  In  In25  1  0.49043824  -0.00348129  0.88226017  1
  In  In26  1  0.49725248  0.33752257  0.36530372  1
  In  In27  1  0.51065836  0.35098117  0.87235857  1
  In  In28  1  0.50215205  0.66812363  0.36683660  1
  In  In29  1  0.49834534  0.66083717  0.87702138  1
  In  In30  1  0.83576515  -0.00301557  0.36145578  1
  In  In31  1  0.84434424  -0.01000793  0.87718074  1
  In  In32  1  0.83493443  0.33150320  0.36956905  1
  In  In33  1  0.83436698  0.33405790  0.87017246  1
  In  In34  1  0.82976483  0.66942916  0.36342392  1
  In  In35  1  0.82979450  0.66253607  0.86829243  1
  In  In36  1  0.02259492  0.18239687  0.35377253  1
  In  In37  1  0.00005503  0.16446300  0.86833757  1
  In  In38  1  0.01306304  0.51357212  0.36976592  1
  In  In39  1  0.00875181  0.50839475  0.87093498  1
  In  In40  1  -0.00236130  0.83271822  0.36078633  1
  In  In41  1  0.01256434  0.83810534  0.87317789  1
  In  In42  1  0.31567140  0.16141437  0.36006096  1
  In  In43  1  0.32036768  0.17318968  0.87535470  1
  In  In44  1  0.32929455  0.49478158  0.36955530  1
  In  In45  1  0.33207423  0.50162896  0.87680372  1
  In  In46  1  0.32821211  0.82837393  0.36505647  1
  In  In47  1  0.34500324  0.81764766  0.88727844  1
  In  In48  1  0.66324579  0.16655055  0.36911708  1
  In  In49  1  0.66228253  0.17619199  0.87634065  1
  In  In50  1  0.66829095  0.50330318  0.36620065  1
  In  In51  1  0.65410534  0.48973278  0.87393682  1
  In  In52  1  0.66828639  0.83335117  0.36268012  1
  In  In53  1  0.66795340  0.81949954  0.87815762  1
  In  In54  1  0.17447091  -0.00481979  0.13274824  1
  In  In55  1  0.15331131  -0.00156250  0.62057223  1
  In  In56  1  0.15763452  0.34089830  0.13084853  1
  In  In57  1  0.16893764  0.33392288  0.62300261  1
  In  In58  1  0.16775832  0.66452558  0.12462967  1
  In  In59  1  0.17749774  0.65097228  0.63223610  1
  In  In60  1  0.50199055  -0.00726742  0.13035163  1
  In  In61  1  0.49829983  -0.01185015  0.62396546  1
  In  In62  1  0.49813688  0.33941624  0.12509280  1
  In  In63  1  0.49159968  0.34609164  0.63411481  1
  In  In64  1  0.49537310  0.66412074  0.12277033  1
  In  In65  1  0.50262641  0.66358725  0.63259635  1
  In  In66  1  0.83929675  -0.01641108  0.14105038  1
  In  In67  1  0.84127959  0.01167062  0.62295598  1
  In  In68  1  0.83648824  0.32947095  0.13126420  1
  In  In69  1  0.83165388  0.33436816  0.63346064  1
  In  In70  1  0.82774363  0.67640933  0.14076214  1
  In  In71  1  0.83593918  0.66985170  0.63042464  1
  In  In72  1  0.16843890  0.16443008  0.00897217  1
  In  In73  1  0.83576023  0.50256411  0.00897325  1
  In  In74  1  0.83446762  0.83205425  0.48824064  1
  In  In75  1  0.49522101  0.17158272  0.48972999  1
  In  In76  1  0.49332935  0.16533218  0.01042916  1
  In  In77  1  0.32387210  0.00403197  0.75814340  1
  In  In78  1  0.16422017  0.83076383  0.49429981  1
  In  In79  1  0.83748264  0.50136657  0.48969194  1
  In  In80  1  0.83934621  0.16491035  0.49645792  1
  In  In81  1  0.83457969  0.82859837  0.00953835  1
  In  In82  1  0.49534390  0.50629848  0.50449415  1
  In  In83  1  0.67032263  0.00116163  0.74419804  1
  In  In84  1  0.83601929  0.16588637  -0.00104519  1
  In  In85  1  0.50133207  0.83192431  0.49911820  1
  Cu  Cu86  1  0.16499488  0.17145950  0.74743677  1
  Cu  Cu87  1  0.66573154  -0.00131345  0.01117135  1
  Cu  Cu88  1  0.49936556  0.16899331  0.24790197  1
  Cu  Cu89  1  0.00915179  0.66037235  0.50187346  1
  Cu  Cu90  1  0.00327743  0.66955862  0.00042661  1
  Cu  Cu91  1  0.49400044  0.82925926  0.24615662  1
  Cu  Cu92  1  0.49813365  0.50298804  0.24469425  1
  Cu  Cu93  1  0.83038815  0.16875868  0.25064316  1
  Cu  Cu94  1  0.50206407  0.17933200  0.75019310  1
  Cu  Cu95  1  0.00118005  0.00732851  0.49408069  1
  Cu  Cu96  1  0.83695213  0.49382635  0.24901418  1
  Cu  Cu97  1  0.49999482  0.50061201  0.75397927  1
  Cu  Cu98  1  0.32864120  0.00587840  0.49012373  1
  Cu  Cu99  1  0.33299176  -0.01054847  0.00776918  1
  Cu  Cu100  1  0.33927635  0.34215088  -0.00174947  1
  Cu  Cu101  1  0.16644898  0.82591694  0.75290152  1
  Cu  Cu102  1  0.49976550  0.82668204  0.75634741  1
  Cu  Cu103  1  0.66092898  0.33818505  0.50367805  1
  Cu  Cu104  1  0.01316844  0.33048577  0.49857584  1
  Cu  Cu105  1  0.16871959  0.50367245  0.24778095  1
  Cu  Cu106  1  0.16876913  0.82814956  0.24727277  1
  Cu  Cu107  1  0.32996636  0.66307288  0.00198632  1
  Cu  Cu108  1  0.83398365  0.50238938  0.75081685  1
  Cu  Cu109  1  0.00522897  0.33376051  0.00058568  1
  Cu  Cu110  1  0.84073848  0.83123657  0.75445914  1
  Cu  Cu111  1  0.83572921  0.16857693  0.74945385  1
  Cu  Cu112  1  0.31806155  0.33517409  0.49536324  1
  Cu  Cu113  1  0.16410288  0.49731547  0.75254287  1
  Cu  Cu114  1  0.65444708  0.66130705  0.00037863  1
  Se  Se115  1  0.07682325  0.07286802  0.06230886  1
  Se  Se116  1  0.08324967  0.08797065  0.54993973  1
  Se  Se117  1  0.08715740  0.41906313  0.05237712  1
  Se  Se118  1  0.08879630  0.41950158  0.55272677  1
  Se  Se119  1  0.08652249  0.75088485  0.05494012  1
  Se  Se120  1  0.08064688  0.74636586  0.56324582  1
  Se  Se121  1  0.39960310  0.07981760  0.06919505  1
  Se  Se122  1  0.41180990  0.07611945  0.55568528  1
  Se  Se123  1  0.42208552  0.42254279  0.05288926  1
  Se  Se124  1  0.40303012  0.41010121  0.55659998  1
  Se  Se125  1  0.41484724  0.74834714  0.05289988  1
  Se  Se126  1  0.41253222  0.74207880  0.55977747  1
  Se  Se127  1  0.75261962  0.07583931  0.06512702  1
  Se  Se128  1  0.74222586  0.07382011  0.55186610  1
  Se  Se129  1  0.74622720  0.40780285  0.06165206  1
  Se  Se130  1  0.74744464  0.41630833  0.55851447  1
  Se  Se131  1  0.73588021  0.73974739  0.06174208  1
  Se  Se132  1  0.74895109  0.74459953  0.55483294  1
  Se  Se133  1  0.25997827  0.26190215  0.05999806  1
  Se  Se134  1  0.24418591  0.24550361  0.55038208  1
  Se  Se135  1  0.24555346  0.57930337  0.05343253  1
  Se  Se136  1  0.25166709  0.58692857  0.55099863  1
  Se  Se137  1  0.24437682  0.91036059  0.05810663  1
  Se  Se138  1  0.25725582  0.92314397  0.55569494  1
  Se  Se139  1  0.59271833  0.25455280  0.05840714  1
  Se  Se140  1  0.58059059  0.25711756  0.56119800  1
  Se  Se141  1  0.57553407  0.57591716  0.05368784  1
  Se  Se142  1  0.59446033  0.59432259  0.55669351  1
  Se  Se143  1  0.57816816  0.91283668  0.05548764  1
  Se  Se144  1  0.59664924  0.92694992  0.55329337  1
  Se  Se145  1  0.93066927  0.25054463  0.06112602  1
  Se  Se146  1  0.92245757  0.25992592  0.55801740  1
  Se  Se147  1  0.92088452  0.59903884  0.06612184  1
  Se  Se148  1  0.92250918  0.58447190  0.55943718  1
  Se  Se149  1  0.92590036  0.92222129  0.06116985  1
  Se  Se150  1  0.92475272  0.92240354  0.55325686  1
  Se  Se151  1  0.08895547  0.24719354  0.43976056  1
  Se  Se152  1  0.08356238  0.25103713  0.94032951  1
  Se  Se153  1  0.09323906  0.58022556  0.44855606  1
  Se  Se154  1  0.08343447  0.58126053  0.94883920  1
  Se  Se155  1  0.07588767  0.92074266  0.43476704  1
  Se  Se156  1  0.08173038  0.91255183  0.95180611  1
  Se  Se157  1  0.40186248  0.25980202  0.43385562  1
  Se  Se158  1  0.41369461  0.25369321  0.94017469  1
  Se  Se159  1  0.41202239  0.58986020  0.43741759  1
  Se  Se160  1  0.41533248  0.58121489  0.94754404  1
  Se  Se161  1  0.41044289  0.92176840  0.43689350  1
  Se  Se162  1  0.42012322  0.91168944  0.95378269  1
  Se  Se163  1  0.74115196  0.25821622  0.44382934  1
  Se  Se164  1  0.74492921  0.26116192  0.94621302  1
  Se  Se165  1  0.74253618  0.59388407  0.43955388  1
  Se  Se166  1  0.74512698  0.58703330  0.94355786  1
  Se  Se167  1  0.74316801  0.92588784  0.43589906  1
  Se  Se168  1  0.74395852  0.92154363  0.94568678  1
  Se  Se169  1  0.24327803  0.08694776  0.43956698  1
  Se  Se170  1  0.25780937  0.07245479  0.94515497  1
  Se  Se171  1  0.24273764  0.42539178  0.44342796  1
  Se  Se172  1  0.24761168  0.41774173  0.94603942  1
  Se  Se173  1  0.26367956  0.74310216  0.44448030  1
  Se  Se174  1  0.24577557  0.74861750  0.95007057  1
  Se  Se175  1  0.59020747  0.07564977  0.44257895  1
  Se  Se176  1  0.58993309  0.07787050  0.94627589  1
  Se  Se177  1  0.58495304  0.41612631  0.44078207  1
  Se  Se178  1  0.58328285  0.41711308  0.95308532  1
  Se  Se179  1  0.59242165  0.74567539  0.43882606  1
  Se  Se180  1  0.57750462  0.75020993  0.94667967  1
  Se  Se181  1  0.92450358  0.08308855  0.42954643  1
  Se  Se182  1  0.93060903  0.07440553  0.94509541  1
  Se  Se183  1  0.93154078  0.40791056  0.43743123  1
  Se  Se184  1  0.92248054  0.41410591  0.94285914  1
  Se  Se185  1  0.92998138  0.73701594  0.43815410  1
  Se  Se186  1  0.91761738  0.74344363  0.94033553  1
  Se  Se187  1  0.25328858  0.26374116  0.29833703  1
  Se  Se188  1  0.25138042  0.25299864  0.79934352  1
  Se  Se189  1  0.25246565  0.58565143  0.30238767  1
  Se  Se190  1  0.24719571  0.58137204  0.80696958  1
  Se  Se191  1  0.25173882  0.91638785  0.29817720  1
  Se  Se192  1  0.24653617  0.90400503  0.81664969  1
  Se  Se193  1  0.58324205  0.25201573  0.30204326  1
  Se  Se194  1  0.58707334  0.25778703  0.80488716  1
  Se  Se195  1  0.58418809  0.58443963  0.29880289  1
  Se  Se196  1  0.58522385  0.58458734  0.80594277  1
  Se  Se197  1  0.57578976  0.91458730  0.30077310  1
  Se  Se198  1  0.57911882  0.91600942  0.80993207  1
  Se  Se199  1  0.91736446  0.25496180  0.29820720  1
  Se  Se200  1  0.91908847  0.25186456  0.80307170  1
  Se  Se201  1  0.91640120  0.58127876  0.30282616  1
  Se  Se202  1  0.91938943  0.58477448  0.80284059  1
  Se  Se203  1  0.90742303  0.90537170  0.29439537  1
  Se  Se204  1  0.92453434  0.91756967  0.80323836  1
  Se  Se205  1  0.06058969  0.05982676  0.30164008  1
  Se  Se206  1  0.09011113  0.08339881  0.80377865  1
  Se  Se207  1  0.08385863  0.42114057  0.30188598  1
  Se  Se208  1  0.07868065  0.41294225  0.80343817  1
  Se  Se209  1  0.08832974  0.74480120  0.30401527  1
  Se  Se210  1  0.08218354  0.74340640  0.80632140  1
  Se  Se211  1  0.41383933  0.08500091  0.29916013  1
  Se  Se212  1  0.42551193  0.09536771  0.81027760  1
  Se  Se213  1  0.41449108  0.41915412  0.29787389  1
  Se  Se214  1  0.41378506  0.41777070  0.80575566  1
  Se  Se215  1  0.41274480  0.74454832  0.29953934  1
  Se  Se216  1  0.41423013  0.74400918  0.80681040  1
  Se  Se217  1  0.74609259  0.08439525  0.30156573  1
  Se  Se218  1  0.75717263  0.08744728  0.81263835  1
  Se  Se219  1  0.74995597  0.41401236  0.30307252  1
  Se  Se220  1  0.75060411  0.42047351  0.80616517  1
  Se  Se221  1  0.74793376  0.74925751  0.29575405  1
  Se  Se222  1  0.74923280  0.75149423  0.80202147  1
  Se  Se223  1  0.23667116  0.08731349  0.20582060  1
  Se  Se224  1  0.24553904  0.08940830  0.68630872  1
  Se  Se225  1  0.25126811  0.42002443  0.19329172  1
  Se  Se226  1  0.24797436  0.41623999  0.69567359  1
  Se  Se227  1  0.25237277  0.74299733  0.19586800  1
  Se  Se228  1  0.25184937  0.74376987  0.70079278  1
  Se  Se229  1  0.58163610  0.08104090  0.19712268  1
  Se  Se230  1  0.57292817  0.09263014  0.68790489  1
  Se  Se231  1  0.58376600  0.41670122  0.19597896  1
  Se  Se232  1  0.58571196  0.41751397  0.69978963  1
  Se  Se233  1  0.57850838  0.74490506  0.19398919  1
  Se  Se234  1  0.58578472  0.75021944  0.69901846  1
  Se  Se235  1  0.91451488  0.08683779  0.19720170  1
  Se  Se236  1  0.91973781  0.08262388  0.69852469  1
  Se  Se237  1  0.92268051  0.41436761  0.19451896  1
  Se  Se238  1  0.91661625  0.41667447  0.69844563  1
  Se  Se239  1  0.91298114  0.75976323  0.20323153  1
  Se  Se240  1  0.92258565  0.74832299  0.69843909  1
  Se  Se241  1  0.09491126  0.24952341  0.20368824  1
  Se  Se242  1  0.08210737  0.25321987  0.69230721  1
  Se  Se243  1  0.08168092  0.58639947  0.19608224  1
  Se  Se244  1  0.08119802  0.58174733  0.69814582  1
  Se  Se245  1  0.08454858  0.91202066  0.19619292  1
  Se  Se246  1  0.08993976  0.91677581  0.69931336  1
  Se  Se247  1  0.41883265  0.25496052  0.19551553  1
  Se  Se248  1  0.41129303  0.25571282  0.69868398  1
  Se  Se249  1  0.41188324  0.58573889  0.19426783  1
  Se  Se250  1  0.41703538  0.58004913  0.69645827  1
  Se  Se251  1  0.41047339  0.91479134  0.19474689  1
  Se  Se252  1  0.41700852  0.90941573  0.69874835  1
  Se  Se253  1  0.74676465  0.25315049  0.19842663  1
  Se  Se254  1  0.74667770  0.24989978  0.69965260  1
  Se  Se255  1  0.75042730  0.57683759  0.19789401  1
  Se  Se256  1  0.75136511  0.58651623  0.69677369  1
  Se  Se257  1  0.74022822  0.91675341  0.20270327  1
  Se  Se258  1  0.76355030  0.90852530  0.68725538  1
