# generated using pymatgen
data_In86Cu29Se144
_symmetry_space_group_name_H-M   'P 1'
_cell_length_a   17.58126203
_cell_length_b   17.58433843
_cell_length_c   23.44269881
_cell_angle_alpha   90.00945123
_cell_angle_beta   90.00350290
_cell_angle_gamma   89.98834648
_symmetry_Int_Tables_number   1
_chemical_formula_structural   In86Cu29Se144
_chemical_formula_sum   'In86 Cu29 Se144'
_cell_volume   7247.42404298
_cell_formula_units_Z   1
loop_
 _symmetry_equiv_pos_site_id
 _symmetry_equiv_pos_as_xyz
  1  'x, y, z'
loop_
 _atom_site_type_symbol
 _atom_site_label
 _atom_site_symmetry_multiplicity
 _atom_site_fract_x
 _atom_site_fract_y
 _atom_site_fract_z
 _atom_site_occupancy
  In  In0  1  -0.00974265  0.15763351  0.10799701  1
  In  In1  1  -0.02364283  0.16235714  0.63781934  1
  In  In2  1  -0.02112843  0.50417242  0.11942759  1
  In  In3  1  -0.00281445  0.51837738  0.63070761  1
  In  In4  1  0.00171253  0.83926194  0.12147341  1
  In  In5  1  -0.00627395  0.83327864  0.63045385  1
  In  In6  1  0.35283561  0.18299249  0.09968521  1
  In  In7  1  0.33516303  0.16942628  0.63059301  1
  In  In8  1  0.34224318  0.49970016  0.13469654  1
  In  In9  1  0.33702446  0.48377499  0.62496830  1
  In  In10  1  0.33437503  0.83138123  0.12678007  1
  In  In11  1  0.34133362  0.83609857  0.61987497  1
  In  In12  1  0.67786784  0.17892765  0.11035203  1
  In  In13  1  0.69120412  0.14756826  0.65194849  1
  In  In14  1  0.66673689  0.49568519  0.13176751  1
  In  In15  1  0.66628448  0.49795620  0.62375330  1
  In  In16  1  0.66522109  0.82384819  0.12500158  1
  In  In17  1  0.66620698  0.82910519  0.63140686  1
  In  In18  1  0.15744460  -0.00254789  0.37955199  1
  In  In19  1  0.16863492  0.00224002  0.87023623  1
  In  In20  1  0.18082969  0.32993053  0.37560102  1
  In  In21  1  0.16624717  0.31658106  0.87696635  1
  In  In22  1  0.17900977  0.65965025  0.37961181  1
  In  In23  1  0.15795737  0.68119728  0.87775115  1
  In  In24  1  0.49052763  -0.00329666  0.38083813  1
  In  In25  1  0.51018099  0.01289342  0.87314287  1
  In  In26  1  0.52527966  0.36093231  0.34920330  1
  In  In27  1  0.49092763  0.33049827  0.87019328  1
  In  In28  1  0.50556447  0.66562686  0.37893902  1
  In  In29  1  0.51213610  0.65878253  0.87829350  1
  In  In30  1  0.83060332  -0.00124047  0.38857381  1
  In  In31  1  0.82893553  0.00799768  0.87022584  1
  In  In32  1  0.81741411  0.34687557  0.38782108  1
  In  In33  1  0.82092536  0.33631314  0.87415079  1
  In  In34  1  0.82452918  0.67059332  0.38264705  1
  In  In35  1  0.83268158  0.67094577  0.87020991  1
  In  In36  1  -0.00500433  0.15606656  0.37599082  1
  In  In37  1  0.00453707  0.15698158  0.87585240  1
  In  In38  1  -0.00931489  0.49058464  0.38039331  1
  In  In39  1  -0.01508713  0.50178582  0.87841751  1
  In  In40  1  -0.00265826  0.83671472  0.38828482  1
  In  In41  1  -0.03467764  0.82169482  0.84406256  1
  In  In42  1  0.33071687  0.17170977  0.37088887  1
  In  In43  1  0.33074638  0.16226784  0.87742477  1
  In  In44  1  0.36760413  0.52341478  0.34738447  1
  In  In45  1  0.35162706  0.50018477  0.87789061  1
  In  In46  1  0.34544919  0.81819145  0.39273048  1
  In  In47  1  0.32209110  0.83961718  0.87676472  1
  In  In48  1  0.66101368  0.17802811  0.37540413  1
  In  In49  1  0.65755591  0.16429337  0.87880099  1
  In  In50  1  0.66519921  0.50376519  0.37842693  1
  In  In51  1  0.67665766  0.51608131  0.86412140  1
  In  In52  1  0.67788689  0.82201368  0.38670259  1
  In  In53  1  0.70876907  0.86260661  0.83394325  1
  In  In54  1  0.16138726  -0.00243329  0.11565068  1
  In  In55  1  0.17539763  -0.00497630  0.63315887  1
  In  In56  1  0.17679880  0.33566198  0.12287501  1
  In  In57  1  0.17924096  0.33642317  0.62541494  1
  In  In58  1  0.17753023  0.67618954  0.12904974  1
  In  In59  1  0.14943479  0.66954928  0.62853251  1
  In  In60  1  0.49520399  0.00659340  0.11187657  1
  In  In61  1  0.51026890  -0.00862022  0.63749596  1
  In  In62  1  0.50803336  0.33518539  0.13197376  1
  In  In63  1  0.50503925  0.33251807  0.62386038  1
  In  In64  1  0.50584105  0.66364235  0.13841473  1
  In  In65  1  0.50993717  0.67265640  0.61635702  1
  In  In66  1  0.82555124  -0.00138298  0.10468513  1
  In  In67  1  0.82873931  -0.01301692  0.63545152  1
  In  In68  1  0.82340434  0.33267707  0.11745012  1
  In  In69  1  0.81849255  0.32218434  0.62107721  1
  In  In70  1  0.82264068  0.64925623  0.10607046  1
  In  In71  1  0.83203004  0.67145637  0.62891729  1
  In  In72  1  0.16340366  0.50072672  0.50358757  1
  In  In73  1  0.15990031  0.16515049  0.49704516  1
  In  In74  1  0.33108013  -0.00025743  0.24505833  1
  In  In75  1  0.00552099  0.66902424  0.24547297  1
  In  In76  1  0.50875961  0.83738449  -0.00537800  1
  In  In77  1  0.50636655  0.50126526  0.00768843  1
  In  In78  1  0.33482507  0.66416395  0.75323322  1
  In  In79  1  0.00388175  0.32913727  0.25641331  1
  In  In80  1  -0.00165332  0.33292624  0.75714094  1
  In  In81  1  0.16391704  0.49875525  0.00977966  1
  In  In82  1  0.66438371  0.00077175  0.24639187  1
  In  In83  1  0.50401333  0.16695323  0.50217723  1
  In  In84  1  0.16026861  0.83795368  -0.00502533  1
  In  In85  1  -0.00177706  -0.00032044  0.24067128  1
  Cu  Cu86  1  0.16454929  0.83586078  0.75204242  1
  Cu  Cu87  1  0.82401222  0.17557106  0.24600116  1
  Cu  Cu88  1  0.66561635  0.66148795  0.50452343  1
  Cu  Cu89  1  -0.00147604  -0.00731438  -0.01217213  1
  Cu  Cu90  1  0.32862929  0.32665941  -0.00436579  1
  Cu  Cu91  1  0.17490426  0.17125643  0.75102614  1
  Cu  Cu92  1  0.17435611  0.50079346  0.24567364  1
  Cu  Cu93  1  -0.01044122  0.32738178  -0.00757228  1
  Cu  Cu94  1  0.17326623  0.49747903  0.75174958  1
  Cu  Cu95  1  0.66646983  0.32783778  0.50041307  1
  Cu  Cu96  1  0.83386019  0.82863521  0.25398951  1
  Cu  Cu97  1  -0.01103763  0.33232130  0.50682859  1
  Cu  Cu98  1  0.34650008  0.33843975  0.49495055  1
  Cu  Cu99  1  0.32966470  0.66273834  0.49839536  1
  Cu  Cu100  1  0.49393454  0.17805754  0.75530841  1
  Cu  Cu101  1  0.50633310  0.82947597  0.25703433  1
  Cu  Cu102  1  0.67896901  0.67587790  -0.00626664  1
  Cu  Cu103  1  0.49517755  0.83398221  0.74720553  1
  Cu  Cu104  1  0.66046528  0.34182827  -0.00309712  1
  Cu  Cu105  1  0.82882577  0.50317274  0.25201697  1
  Cu  Cu106  1  0.33488512  -0.00916679  0.50721097  1
  Cu  Cu107  1  0.18242194  0.82552764  0.25884056  1
  Cu  Cu108  1  0.17147316  0.16894891  0.23780949  1
  Cu  Cu109  1  -0.00519943  0.00001562  0.50965316  1
  Cu  Cu110  1  0.50159871  0.49400474  0.74677480  1
  Cu  Cu111  1  0.66926553  -0.00438294  0.51330977  1
  Cu  Cu112  1  0.50152657  0.17254749  0.24022360  1
  Cu  Cu113  1  0.83510360  0.50190198  0.74826491  1
  Cu  Cu114  1  -0.01020029  0.67407804  0.50574244  1
  Se  Se115  1  0.08024306  0.07587809  0.04493384  1
  Se  Se116  1  0.07739302  0.08327031  0.56636222  1
  Se  Se117  1  0.06588206  0.40312570  0.06082820  1
  Se  Se118  1  0.07372845  0.40982659  0.56504282  1
  Se  Se119  1  0.07965937  0.74033049  0.05816190  1
  Se  Se120  1  0.07834963  0.75407882  0.55659020  1
  Se  Se121  1  0.41113881  0.07622448  0.04015892  1
  Se  Se122  1  0.41452276  0.07617890  0.56285495  1
  Se  Se123  1  0.40751607  0.40788183  0.05767915  1
  Se  Se124  1  0.42619351  0.41832647  0.55223216  1
  Se  Se125  1  0.42491103  0.74693417  0.06243149  1
  Se  Se126  1  0.41419227  0.74550081  0.55165040  1
  Se  Se127  1  0.74417221  0.08526785  0.04256209  1
  Se  Se128  1  0.75246657  0.07914907  0.56586501  1
  Se  Se129  1  0.74352419  0.42442452  0.05314710  1
  Se  Se130  1  0.74843470  0.41475598  0.55251114  1
  Se  Se131  1  0.75665182  0.76047456  0.05187257  1
  Se  Se132  1  0.74558186  0.74853252  0.55797908  1
  Se  Se133  1  0.23850033  0.24780811  0.04746335  1
  Se  Se134  1  0.26169594  0.25505995  0.54988627  1
  Se  Se135  1  0.26216668  0.58791277  0.06161413  1
  Se  Se136  1  0.25371817  0.58890305  0.56686663  1
  Se  Se137  1  0.26129394  0.92047613  0.05397821  1
  Se  Se138  1  0.24395899  0.91224953  0.55625778  1
  Se  Se139  1  0.57856496  0.25986004  0.05305697  1
  Se  Se140  1  0.60008988  0.24194628  0.56599287  1
  Se  Se141  1  0.59745352  0.59926467  0.05873040  1
  Se  Se142  1  0.57974122  0.57485255  0.55200182  1
  Se  Se143  1  0.59874736  0.92582409  0.05778674  1
  Se  Se144  1  0.58167314  0.91258360  0.56103868  1
  Se  Se145  1  0.90451166  0.24783521  0.04936487  1
  Se  Se146  1  0.91228455  0.24222297  0.55760595  1
  Se  Se147  1  0.92489805  0.58953693  0.04197231  1
  Se  Se148  1  0.91166435  0.58475992  0.55676272  1
  Se  Se149  1  0.91970426  0.91226324  0.04828217  1
  Se  Se150  1  0.91112004  0.91411585  0.55922083  1
  Se  Se151  1  0.07118310  0.26268994  0.43978536  1
  Se  Se152  1  0.07980296  0.24501200  0.94725137  1
  Se  Se153  1  0.06973876  0.59255003  0.44336313  1
  Se  Se154  1  0.08012263  0.58508138  0.94293703  1
  Se  Se155  1  0.08218578  0.92097390  0.45435268  1
  Se  Se156  1  0.07065335  0.90983780  0.92437508  1
  Se  Se157  1  0.42159374  0.25375551  0.43546331  1
  Se  Se158  1  0.41717176  0.24876666  0.94396378  1
  Se  Se159  1  0.41211973  0.58157608  0.44260839  1
  Se  Se160  1  0.41387276  0.59548289  0.95102122  1
  Se  Se161  1  0.42422621  0.91201929  0.45572538  1
  Se  Se162  1  0.41308540  0.92399608  0.93856335  1
  Se  Se163  1  0.75073253  0.24198548  0.44899111  1
  Se  Se164  1  0.74080284  0.25476370  0.94504963  1
  Se  Se165  1  0.75045884  0.57966210  0.45003257  1
  Se  Se166  1  0.75494574  0.58341790  0.94326474  1
  Se  Se167  1  0.75060508  0.91371142  0.45497231  1
  Se  Se168  1  0.75777291  0.90652252  0.93155959  1
  Se  Se169  1  0.26129269  0.07401593  0.44346673  1
  Se  Se170  1  0.23691786  0.08892730  0.94358538  1
  Se  Se171  1  0.25792160  0.41993803  0.44255634  1
  Se  Se172  1  0.25250115  0.41626905  0.94046737  1
  Se  Se173  1  0.24103260  0.74959652  0.45332685  1
  Se  Se174  1  0.25975165  0.73995167  0.94789544  1
  Se  Se175  1  0.59546680  0.07158865  0.44314228  1
  Se  Se176  1  0.57701688  0.08718119  0.95290940  1
  Se  Se177  1  0.58405452  0.40928619  0.44316699  1
  Se  Se178  1  0.58568610  0.42292318  0.93331197  1
  Se  Se179  1  0.58336562  0.74769981  0.45121187  1
  Se  Se180  1  0.59957421  0.75354849  0.93324071  1
  Se  Se181  1  0.91683279  0.08494758  0.45199117  1
  Se  Se182  1  0.91390614  0.08314848  0.94428197  1
  Se  Se183  1  0.90979363  0.42102574  0.45536057  1
  Se  Se184  1  0.90704450  0.41506239  0.94492697  1
  Se  Se185  1  0.90712671  0.75543937  0.45019363  1
  Se  Se186  1  0.92246891  0.75181147  0.93439252  1
  Se  Se187  1  0.24819483  0.24780821  0.29847460  1
  Se  Se188  1  0.25709010  0.25392193  0.80467032  1
  Se  Se189  1  0.25042346  0.58924336  0.29992999  1
  Se  Se190  1  0.24497215  0.57863644  0.81785081  1
  Se  Se191  1  0.25406171  0.91354860  0.31836645  1
  Se  Se192  1  0.25225101  0.91856964  0.80044265  1
  Se  Se193  1  0.58944904  0.24884414  0.29495292  1
  Se  Se194  1  0.58478687  0.25510859  0.80668708  1
  Se  Se195  1  0.57026862  0.57009744  0.30920275  1
  Se  Se196  1  0.57931608  0.58501255  0.79740855  1
  Se  Se197  1  0.58299794  0.91390014  0.31543733  1
  Se  Se198  1  0.57558112  0.91540059  0.80407947  1
  Se  Se199  1  0.90481948  0.24509490  0.31319305  1
  Se  Se200  1  0.90818686  0.24115557  0.81178237  1
  Se  Se201  1  0.91510562  0.58061320  0.30894614  1
  Se  Se202  1  0.91904518  0.58346295  0.80184506  1
  Se  Se203  1  0.91301341  0.91465276  0.31089117  1
  Se  Se204  1  0.92627463  0.94708423  0.79530886  1
  Se  Se205  1  0.09311431  0.09084570  0.30125857  1
  Se  Se206  1  0.08838130  0.08785730  0.80044161  1
  Se  Se207  1  0.09569055  0.42772463  0.31138445  1
  Se  Se208  1  0.09117444  0.42322148  0.81611620  1
  Se  Se209  1  0.08791741  0.75675465  0.31499621  1
  Se  Se210  1  0.08116965  0.74787982  0.79863215  1
  Se  Se211  1  0.42758386  0.09117159  0.30371690  1
  Se  Se212  1  0.41639859  0.08609236  0.80583756  1
  Se  Se213  1  0.38970727  0.38663580  0.31358093  1
  Se  Se214  1  0.41276756  0.41760511  0.80009204  1
  Se  Se215  1  0.41953853  0.75231930  0.31136176  1
  Se  Se216  1  0.42170510  0.75453075  0.81488895  1
  Se  Se217  1  0.75615180  0.08653261  0.30997987  1
  Se  Se218  1  0.73003243  0.07789548  0.80638319  1
  Se  Se219  1  0.74872482  0.41915673  0.30710479  1
  Se  Se220  1  0.74917374  0.41941966  0.79925230  1
  Se  Se221  1  0.74869695  0.74774894  0.30624877  1
  Se  Se222  1  0.73401912  0.72685079  0.79831535  1
  Se  Se223  1  0.24896435  0.08686153  0.17877936  1
  Se  Se224  1  0.25585522  0.08453406  0.69824245  1
  Se  Se225  1  0.25434712  0.41144433  0.19642290  1
  Se  Se226  1  0.25445383  0.41320763  0.70055874  1
  Se  Se227  1  0.26395174  0.74674879  0.20176131  1
  Se  Se228  1  0.24629104  0.75411829  0.69159863  1
  Se  Se229  1  0.58071567  0.09053344  0.18221430  1
  Se  Se230  1  0.57414715  0.09060367  0.70321046  1
  Se  Se231  1  0.56612159  0.43590086  0.19813294  1
  Se  Se232  1  0.58716356  0.41288188  0.69477104  1
  Se  Se233  1  0.59248355  0.74983231  0.20284525  1
  Se  Se234  1  0.57678656  0.74607418  0.69737402  1
  Se  Se235  1  0.90067366  0.08999863  0.18699755  1
  Se  Se236  1  0.91620701  0.06639233  0.70614204  1
  Se  Se237  1  0.91018751  0.41777194  0.19644381  1
  Se  Se238  1  0.91465105  0.41775265  0.68897134  1
  Se  Se239  1  0.91199308  0.75576165  0.18768035  1
  Se  Se240  1  0.91896629  0.74519303  0.69958184  1
  Se  Se241  1  0.07940591  0.24207793  0.18311230  1
  Se  Se242  1  0.08947606  0.24745146  0.68953102  1
  Se  Se243  1  0.08918942  0.57122222  0.18402115  1
  Se  Se244  1  0.08713262  0.58213945  0.70415119  1
  Se  Se245  1  0.10113749  0.90378207  0.19634519  1
  Se  Se246  1  0.08238434  0.91718356  0.69648130  1
  Se  Se247  1  0.41107694  0.24844414  0.18802138  1
  Se  Se248  1  0.41602387  0.25812613  0.69408392  1
  Se  Se249  1  0.41557107  0.58668092  0.20282469  1
  Se  Se250  1  0.42213413  0.57884659  0.68764717  1
  Se  Se251  1  0.43353322  0.91153261  0.19246871  1
  Se  Se252  1  0.40888280  0.91686594  0.69740163  1
  Se  Se253  1  0.74249512  0.25743479  0.19185923  1
  Se  Se254  1  0.75548284  0.25736519  0.70674491  1
  Se  Se255  1  0.75482431  0.58688899  0.19227236  1
  Se  Se256  1  0.74887761  0.58091194  0.69297259  1
  Se  Se257  1  0.76254440  0.91425154  0.18999563  1
  Se  Se258  1  0.74004206  0.91191390  0.70559070  1
