# generated using pymatgen
data_In86Cu29Se144
_symmetry_space_group_name_H-M   'P 1'
_cell_length_a   17.57825351
_cell_length_b   17.58110409
_cell_length_c   23.43903038
_cell_angle_alpha   89.99687890
_cell_angle_beta   90.00683358
_cell_angle_gamma   89.99895206
_symmetry_Int_Tables_number   1
_chemical_formula_structural   In86Cu29Se144
_chemical_formula_sum   'In86 Cu29 Se144'
_cell_volume   7243.71753676
_cell_formula_units_Z   1
loop_
 _symmetry_equiv_pos_site_id
 _symmetry_equiv_pos_as_xyz
  1  'x, y, z'
loop_
 _atom_site_type_symbol
 _atom_site_label
 _atom_site_symmetry_multiplicity
 _atom_site_fract_x
 _atom_site_fract_y
 _atom_site_fract_z
 _atom_site_occupancy
  In  In0  1  0.00844084  0.17038697  0.12803367  1
  In  In1  1  0.00238855  0.17305984  0.61887164  1
  In  In2  1  0.00328762  0.50416209  0.14331043  1
  In  In3  1  0.00089992  0.50206228  0.61940272  1
  In  In4  1  -0.00822934  0.82680500  0.12066314  1
  In  In5  1  -0.00269998  0.83091361  0.61727219  1
  In  In6  1  0.33931001  0.16752857  0.13175334  1
  In  In7  1  0.33722233  0.18380454  0.62117071  1
  In  In8  1  0.33759803  0.49161690  0.13902900  1
  In  In9  1  0.32322438  0.49585725  0.61410783  1
  In  In10  1  0.32230224  0.83053801  0.11782449  1
  In  In11  1  0.33096640  0.83561215  0.61416540  1
  In  In12  1  0.66432573  0.16743645  0.13478966  1
  In  In13  1  0.68286103  0.17617848  0.62232876  1
  In  In14  1  0.65051102  0.50714132  0.12886163  1
  In  In15  1  0.65768018  0.49103651  0.61378174  1
  In  In16  1  0.67310733  0.83654914  0.12461870  1
  In  In17  1  0.66156615  0.82930188  0.61663988  1
  In  In18  1  0.18082581  -0.00506350  0.39525880  1
  In  In19  1  0.16271344  -0.00831131  0.88150029  1
  In  In20  1  0.16568573  0.33586054  0.37407700  1
  In  In21  1  0.16553471  0.33674383  0.86430496  1
  In  In22  1  0.17333903  0.65958876  0.36903637  1
  In  In23  1  0.16080341  0.67390447  0.87445960  1
  In  In24  1  0.49971885  -0.03132470  0.36983488  1
  In  In25  1  0.49706032  -0.01117295  0.87757903  1
  In  In26  1  0.50988049  0.34260700  0.37265370  1
  In  In27  1  0.50256565  0.33959783  0.86895692  1
  In  In28  1  0.48779995  0.67501840  0.37550264  1
  In  In29  1  0.49405065  0.66845419  0.88516103  1
  In  In30  1  0.82470341  0.00515362  0.37927016  1
  In  In31  1  0.82912605  -0.00188724  0.87603311  1
  In  In32  1  0.83528232  0.33137247  0.37917483  1
  In  In33  1  0.83312172  0.33369168  0.85726804  1
  In  In34  1  0.84553659  0.65386782  0.38243403  1
  In  In35  1  0.84576006  0.66725144  0.87153898  1
  In  In36  1  -0.00542504  0.17335688  0.38390056  1
  In  In37  1  -0.00474858  0.17171172  0.86988325  1
  In  In38  1  0.00329070  0.49639283  0.37194155  1
  In  In39  1  -0.00326902  0.49955759  0.86165882  1
  In  In40  1  0.01251625  0.81777676  0.37960863  1
  In  In41  1  0.01003747  0.82490510  0.88291034  1
  In  In42  1  0.31743134  0.16056935  0.38005150  1
  In  In43  1  0.32593910  0.17430785  0.87014198  1
  In  In44  1  0.33183982  0.50416412  0.37225623  1
  In  In45  1  0.34106011  0.50147044  0.87663620  1
  In  In46  1  0.34795964  0.81966076  0.38226965  1
  In  In47  1  0.33400357  0.82916558  0.88926424  1
  In  In48  1  0.67267273  0.17025833  0.37071843  1
  In  In49  1  0.66392353  0.17439373  0.87011957  1
  In  In50  1  0.67962608  0.49198767  0.38540608  1
  In  In51  1  0.66314705  0.49235402  0.87348476  1
  In  In52  1  0.65667318  0.83979882  0.37568375  1
  In  In53  1  0.66624603  0.83484460  0.88012824  1
  In  In54  1  0.17211342  -0.01393687  0.12236563  1
  In  In55  1  0.16780493  -0.00209833  0.60822606  1
  In  In56  1  0.16250322  0.33978746  0.14568201  1
  In  In57  1  0.16441576  0.33757703  0.61966107  1
  In  In58  1  0.15614800  0.67121839  0.14306509  1
  In  In59  1  0.16040274  0.65924670  0.61635467  1
  In  In60  1  0.50740049  -0.00075967  0.12444813  1
  In  In61  1  0.50068923  -0.00636613  0.62234717  1
  In  In62  1  0.49083857  0.34074821  0.13797482  1
  In  In63  1  0.49058253  0.34372064  0.62823799  1
  In  In64  1  0.49262985  0.66264001  0.12238912  1
  In  In65  1  0.50067660  0.66721260  0.61703434  1
  In  In66  1  0.83524763  -0.01964673  0.12737405  1
  In  In67  1  0.83597294  0.00529934  0.61517133  1
  In  In68  1  0.83240100  0.33178272  0.13319281  1
  In  In69  1  0.83314743  0.33237717  0.62238158  1
  In  In70  1  0.83412046  0.67823886  0.12925320  1
  In  In71  1  0.84495839  0.67861527  0.61438854  1
  In  In72  1  0.32979728  0.66501466  0.75548645  1
  In  In73  1  0.49549003  0.15933046  0.49718216  1
  In  In74  1  0.00004212  0.00517102  0.74443038  1
  In  In75  1  0.82818838  0.50457026  -0.00267140  1
  In  In76  1  0.49868249  0.16078897  0.00632180  1
  In  In77  1  0.16937504  0.50138356  0.00818545  1
  In  In78  1  0.67114283  0.00774331  0.75497780  1
  In  In79  1  0.66741604  0.66661119  0.25298219  1
  In  In80  1  0.33423856  0.00084935  0.25088820  1
  In  In81  1  0.66821346  0.66410758  0.73945156  1
  In  In82  1  -0.00482536  0.00640123  0.25538031  1
  In  In83  1  0.17099912  0.15787375  0.00580478  1
  In  In84  1  0.33406293  0.00304079  0.75002468  1
  In  In85  1  0.83385416  0.16190281  -0.00984880  1
  Cu  Cu86  1  0.66875023  0.32839957  0.49759353  1
  Cu  Cu87  1  0.50335279  0.49849703  0.25499096  1
  Cu  Cu88  1  0.83864262  0.82772324  0.25186585  1
  Cu  Cu89  1  0.00551712  0.66560870  0.49587308  1
  Cu  Cu90  1  0.49966565  0.16925015  0.25454731  1
  Cu  Cu91  1  0.49645297  0.49879136  0.74806153  1
  Cu  Cu92  1  0.65753914  0.34084356  -0.00064829  1
  Cu  Cu93  1  0.00130295  0.33967776  0.49860902  1
  Cu  Cu94  1  0.66267587  0.67347714  0.00563362  1
  Cu  Cu95  1  0.33213880  0.33995334  0.49764078  1
  Cu  Cu96  1  0.33820242  0.33572606  0.00845220  1
  Cu  Cu97  1  0.83643673  0.83557800  0.74297479  1
  Cu  Cu98  1  0.66353671  -0.00431601  0.49818092  1
  Cu  Cu99  1  0.16174351  0.49556422  0.73818701  1
  Cu  Cu100  1  0.82845260  0.16905254  0.25773416  1
  Cu  Cu101  1  0.83457082  0.49274679  0.25938461  1
  Cu  Cu102  1  0.33299683  0.66354674  0.00520014  1
  Cu  Cu103  1  0.83598958  0.50004535  0.74101410  1
  Cu  Cu104  1  0.50682822  0.17620480  0.74677406  1
  Cu  Cu105  1  0.16775253  0.83101418  0.25382839  1
  Cu  Cu106  1  0.16221903  0.82700971  0.75128199  1
  Cu  Cu107  1  0.67362820  -0.00567453  0.00252492  1
  Cu  Cu108  1  0.33145426  0.66501137  0.49523589  1
  Cu  Cu109  1  0.15931598  0.17011176  0.25957885  1
  Cu  Cu110  1  0.16953260  0.17415633  0.74323089  1
  Cu  Cu111  1  0.00156959  0.33500116  -0.00258144  1
  Cu  Cu112  1  0.66631742  0.66866123  0.49491199  1
  Cu  Cu113  1  -0.00748800  -0.00241503  0.49612830  1
  Cu  Cu114  1  0.00036737  0.66786619  0.00313919  1
  Se  Se115  1  0.07255550  0.07098620  0.06004127  1
  Se  Se116  1  0.07532740  0.08206323  0.54998563  1
  Se  Se117  1  0.07574432  0.40974670  0.06407435  1
  Se  Se118  1  0.08714463  0.42351693  0.54953833  1
  Se  Se119  1  0.08604195  0.74295800  0.06099901  1
  Se  Se120  1  0.08567084  0.75225808  0.55024675  1
  Se  Se121  1  0.40217918  0.07140784  0.05945598  1
  Se  Se122  1  0.40438989  0.07434260  0.56022442  1
  Se  Se123  1  0.41908479  0.42034709  0.06114515  1
  Se  Se124  1  0.41972027  0.42089169  0.55008481  1
  Se  Se125  1  0.41660249  0.75137644  0.05382449  1
  Se  Se126  1  0.41500190  0.74825897  0.55019159  1
  Se  Se127  1  0.74707739  0.08166586  0.06133394  1
  Se  Se128  1  0.74472312  0.08324612  0.54987458  1
  Se  Se129  1  0.74284365  0.41400583  0.06112355  1
  Se  Se130  1  0.75150397  0.41413807  0.55042546  1
  Se  Se131  1  0.75400365  0.75106089  0.05495177  1
  Se  Se132  1  0.74934973  0.75257431  0.54963032  1
  Se  Se133  1  0.25197535  0.25908936  0.06592510  1
  Se  Se134  1  0.24993039  0.25493592  0.55056870  1
  Se  Se135  1  0.25578676  0.58840479  0.07050284  1
  Se  Se136  1  0.24537414  0.58198025  0.54623897  1
  Se  Se137  1  0.24722999  0.91541678  0.04633278  1
  Se  Se138  1  0.24579503  0.90930015  0.54457442  1
  Se  Se139  1  0.58589155  0.25774243  0.06228041  1
  Se  Se140  1  0.58131273  0.25309147  0.55838837  1
  Se  Se141  1  0.57981021  0.58367281  0.05184252  1
  Se  Se142  1  0.58220896  0.58470796  0.54892816  1
  Se  Se143  1  0.58621329  0.91506304  0.05481066  1
  Se  Se144  1  0.57742311  0.91350313  0.54989687  1
  Se  Se145  1  0.91970969  0.25394578  0.05575118  1
  Se  Se146  1  0.91729391  0.25356715  0.55052881  1
  Se  Se147  1  0.92305605  0.58328146  0.06261657  1
  Se  Se148  1  0.91884590  0.58473922  0.54897198  1
  Se  Se149  1  0.91914134  0.91741811  0.05299736  1
  Se  Se150  1  0.91102229  0.91291688  0.55059002  1
  Se  Se151  1  0.08538437  0.25394231  0.44714474  1
  Se  Se152  1  0.08497250  0.25363268  0.94213978  1
  Se  Se153  1  0.08597740  0.58271853  0.43966243  1
  Se  Se154  1  0.07357329  0.58120136  0.94254822  1
  Se  Se155  1  0.07992187  0.91336057  0.44832529  1
  Se  Se156  1  0.08891991  0.90832622  0.95085212  1
  Se  Se157  1  0.41248263  0.25710214  0.43820505  1
  Se  Se158  1  0.41233220  0.25456258  0.94431256  1
  Se  Se159  1  0.41826066  0.58193344  0.44437392  1
  Se  Se160  1  0.41514278  0.57916008  0.95147263  1
  Se  Se161  1  0.39949214  0.93154934  0.44341819  1
  Se  Se162  1  0.41815122  0.91700758  0.95014345  1
  Se  Se163  1  0.75180860  0.24382681  0.44653870  1
  Se  Se164  1  0.74396061  0.26593624  0.94038279  1
  Se  Se165  1  0.75537905  0.58169422  0.45250125  1
  Se  Se166  1  0.73848510  0.59672484  0.93760928  1
  Se  Se167  1  0.74797811  0.91264310  0.44505926  1
  Se  Se168  1  0.75596289  0.91284364  0.94692792  1
  Se  Se169  1  0.24461658  0.09458779  0.46031750  1
  Se  Se170  1  0.26341138  0.07636157  0.94038591  1
  Se  Se171  1  0.24926246  0.42089242  0.44210744  1
  Se  Se172  1  0.25383615  0.40784429  0.94440320  1
  Se  Se173  1  0.24658069  0.74806413  0.44218542  1
  Se  Se174  1  0.24648467  0.74021073  0.94882263  1
  Se  Se175  1  0.58479232  0.07320570  0.43427299  1
  Se  Se176  1  0.59572821  0.07829765  0.94201948  1
  Se  Se177  1  0.58423642  0.41649296  0.45070893  1
  Se  Se178  1  0.57484732  0.42162019  0.94498346  1
  Se  Se179  1  0.57982942  0.75072258  0.44351973  1
  Se  Se180  1  0.58084030  0.75443683  0.94765498  1
  Se  Se181  1  0.90989009  0.08553970  0.44733084  1
  Se  Se182  1  0.93330912  0.07156780  0.94013967  1
  Se  Se183  1  0.91640861  0.42092454  0.44412595  1
  Se  Se184  1  0.91907527  0.41258360  0.93823569  1
  Se  Se185  1  0.91650287  0.75080781  0.44809214  1
  Se  Se186  1  0.91537286  0.74737006  0.94781599  1
  Se  Se187  1  0.25174225  0.24885723  0.30687362  1
  Se  Se188  1  0.25337622  0.25649469  0.79742989  1
  Se  Se189  1  0.27263406  0.59999222  0.30028443  1
  Se  Se190  1  0.23523706  0.57026902  0.80941922  1
  Se  Se191  1  0.24490469  0.91357748  0.31273161  1
  Se  Se192  1  0.24581167  0.90631106  0.80896815  1
  Se  Se193  1  0.58618796  0.25264729  0.30489525  1
  Se  Se194  1  0.58890614  0.25971362  0.80055344  1
  Se  Se195  1  0.58429942  0.57601010  0.31710856  1
  Se  Se196  1  0.57436411  0.58350571  0.80704971  1
  Se  Se197  1  0.59024576  0.91406059  0.29464515  1
  Se  Se198  1  0.57897258  0.90898914  0.80369358  1
  Se  Se199  1  0.91733239  0.24869379  0.30763551  1
  Se  Se200  1  0.92831118  0.25695704  0.79824405  1
  Se  Se201  1  0.91911884  0.58290013  0.30312032  1
  Se  Se202  1  0.91528816  0.58640234  0.79571209  1
  Se  Se203  1  0.91467899  0.90909871  0.31548920  1
  Se  Se204  1  0.91552152  0.91220780  0.80731391  1
  Se  Se205  1  0.09166576  0.08111361  0.32047884  1
  Se  Se206  1  0.09795400  0.08930098  0.80685305  1
  Se  Se207  1  0.08391921  0.41416523  0.30250749  1
  Se  Se208  1  0.07911318  0.41396882  0.79627675  1
  Se  Se209  1  0.08400132  0.74315304  0.30139885  1
  Se  Se210  1  0.07526858  0.74589714  0.80196903  1
  Se  Se211  1  0.42281494  0.08769199  0.31578855  1
  Se  Se212  1  0.43035058  0.09362353  0.80914895  1
  Se  Se213  1  0.41697674  0.41570597  0.30611131  1
  Se  Se214  1  0.41147568  0.41778092  0.80258497  1
  Se  Se215  1  0.42618641  0.76341307  0.30052686  1
  Se  Se216  1  0.42065845  0.75776995  0.81080827  1
  Se  Se217  1  0.74619159  0.07741364  0.30204508  1
  Se  Se218  1  0.76732394  0.10030424  0.80700967  1
  Se  Se219  1  0.74786867  0.41035224  0.30850758  1
  Se  Se220  1  0.74864354  0.42619211  0.79866537  1
  Se  Se221  1  0.75976214  0.75000959  0.31555658  1
  Se  Se222  1  0.75443497  0.75646173  0.80420322  1
  Se  Se223  1  0.23456830  0.08974750  0.19383023  1
  Se  Se224  1  0.24447270  0.08742409  0.68498575  1
  Se  Se225  1  0.25508192  0.41328772  0.20810418  1
  Se  Se226  1  0.25254753  0.41560817  0.69058550  1
  Se  Se227  1  0.25489960  0.75392592  0.19818172  1
  Se  Se228  1  0.24523446  0.75241377  0.68905076  1
  Se  Se229  1  0.57770205  0.08364701  0.19860303  1
  Se  Se230  1  0.58014935  0.09064685  0.68752812  1
  Se  Se231  1  0.58779252  0.41571690  0.20140363  1
  Se  Se232  1  0.58373271  0.42005088  0.69434251  1
  Se  Se233  1  0.58061687  0.75188284  0.18911921  1
  Se  Se234  1  0.57163128  0.75843436  0.69222475  1
  Se  Se235  1  0.90452600  0.09220708  0.18995357  1
  Se  Se236  1  0.90685469  0.09458467  0.68948104  1
  Se  Se237  1  0.91637639  0.41248413  0.20059448  1
  Se  Se238  1  0.92008345  0.41724673  0.68856830  1
  Se  Se239  1  0.92482881  0.74626658  0.20012369  1
  Se  Se240  1  0.92119040  0.75168623  0.69280927  1
  Se  Se241  1  0.07415338  0.25046001  0.20530665  1
  Se  Se242  1  0.08320733  0.25327638  0.69010178  1
  Se  Se243  1  0.10401285  0.56416571  0.20740756  1
  Se  Se244  1  0.08066246  0.58647833  0.69192150  1
  Se  Se245  1  0.08435038  0.91261331  0.19615064  1
  Se  Se246  1  0.09326725  0.91374418  0.68857755  1
  Se  Se247  1  0.41195937  0.25063396  0.20394332  1
  Se  Se248  1  0.41519720  0.25469416  0.69794945  1
  Se  Se249  1  0.42317132  0.58314933  0.19997442  1
  Se  Se250  1  0.41670935  0.57997684  0.68866910  1
  Se  Se251  1  0.41746672  0.91175153  0.18726562  1
  Se  Se252  1  0.41877584  0.90683270  0.69271746  1
  Se  Se253  1  0.74683218  0.25239065  0.20074519  1
  Se  Se254  1  0.74809021  0.25950321  0.69619297  1
  Se  Se255  1  0.75963283  0.57377224  0.19291099  1
  Se  Se256  1  0.75797037  0.57857796  0.67808990  1
  Se  Se257  1  0.75223954  0.91114494  0.20168442  1
  Se  Se258  1  0.75221824  0.91500533  0.68743234  1
