# generated using pymatgen
data_In86Cu29Se144
_symmetry_space_group_name_H-M   'P 1'
_cell_length_a   17.58033757
_cell_length_b   17.57786433
_cell_length_c   23.44090835
_cell_angle_alpha   89.99711845
_cell_angle_beta   90.00338414
_cell_angle_gamma   89.98923680
_symmetry_Int_Tables_number   1
_chemical_formula_structural   In86Cu29Se144
_chemical_formula_sum   'In86 Cu29 Se144'
_cell_volume   7243.82160179
_cell_formula_units_Z   1
loop_
 _symmetry_equiv_pos_site_id
 _symmetry_equiv_pos_as_xyz
  1  'x, y, z'
loop_
 _atom_site_type_symbol
 _atom_site_label
 _atom_site_symmetry_multiplicity
 _atom_site_fract_x
 _atom_site_fract_y
 _atom_site_fract_z
 _atom_site_occupancy
  In  In0  1  -0.00276970  0.16547669  0.12503873  1
  In  In1  1  0.00275037  0.16537241  0.62503230  1
  In  In2  1  0.00041506  0.50513470  0.14031604  1
  In  In3  1  0.00456479  0.49670909  0.62558892  1
  In  In4  1  0.00067816  0.83846642  0.12476824  1
  In  In5  1  -0.00278838  0.83874651  0.62978333  1
  In  In6  1  0.32760510  0.16141330  0.11631613  1
  In  In7  1  0.32286473  0.16917631  0.61558452  1
  In  In8  1  0.32978386  0.48865037  0.12660841  1
  In  In9  1  0.33676641  0.49257234  0.61108349  1
  In  In10  1  0.33911009  0.84194769  0.11920733  1
  In  In11  1  0.33836738  0.84288661  0.63172805  1
  In  In12  1  0.67076585  0.16972412  0.12048844  1
  In  In13  1  0.67585376  0.17517906  0.62324906  1
  In  In14  1  0.67210969  0.49417563  0.13617526  1
  In  In15  1  0.65171298  0.48935102  0.61979173  1
  In  In16  1  0.66260757  0.82777541  0.12069481  1
  In  In17  1  0.67113331  0.82427237  0.62348003  1
  In  In18  1  0.16705814  0.01238198  0.37378152  1
  In  In19  1  0.16461822  0.00292644  0.87421372  1
  In  In20  1  0.15042640  0.33924788  0.38577421  1
  In  In21  1  0.15133108  0.33031511  0.87306711  1
  In  In22  1  0.14665199  0.65217687  0.36787230  1
  In  In23  1  0.16591006  0.68210671  0.87814276  1
  In  In24  1  0.50905033  0.00772057  0.37570911  1
  In  In25  1  0.48873831  0.01221282  0.87894082  1
  In  In26  1  0.50567693  0.32760040  0.38456526  1
  In  In27  1  0.49642365  0.31136000  0.85929344  1
  In  In28  1  0.49359652  0.65307387  0.37292390  1
  In  In29  1  0.50916497  0.66893082  0.87661470  1
  In  In30  1  0.83938367  -0.01234554  0.38252916  1
  In  In31  1  0.84268315  -0.01126519  0.88321683  1
  In  In32  1  0.82344640  0.32491015  0.36964622  1
  In  In33  1  0.82273622  0.32381574  0.86574808  1
  In  In34  1  0.85156373  0.68108974  0.37069148  1
  In  In35  1  0.84331678  0.66687988  0.87628019  1
  In  In36  1  -0.00687420  0.16367885  0.37525966  1
  In  In37  1  0.00022605  0.16513758  0.87619351  1
  In  In38  1  0.01399383  0.50501946  0.36840226  1
  In  In39  1  -0.00462281  0.49883447  0.86501485  1
  In  In40  1  -0.00779069  0.82147327  0.36076396  1
  In  In41  1  0.00012995  0.83570426  0.87609084  1
  In  In42  1  0.32564687  0.18010426  0.39295027  1
  In  In43  1  0.34225516  0.15339383  0.87700238  1
  In  In44  1  0.33199698  0.48684806  0.39459258  1
  In  In45  1  0.33034906  0.48672056  0.87176854  1
  In  In46  1  0.33135521  0.83404389  0.37010741  1
  In  In47  1  0.31972146  0.84785301  0.88398902  1
  In  In48  1  0.65956296  0.17376165  0.38240019  1
  In  In49  1  0.66250337  0.16961773  0.87876190  1
  In  In50  1  0.66211344  0.49459650  0.36792247  1
  In  In51  1  0.67411162  0.49706815  0.86783202  1
  In  In52  1  0.68121426  0.83748436  0.37052391  1
  In  In53  1  0.66757035  0.82976586  0.88868886  1
  In  In54  1  0.15074849  -0.01080044  0.11752742  1
  In  In55  1  0.15601851  0.00623126  0.63213957  1
  In  In56  1  0.16636879  0.32381749  0.12717832  1
  In  In57  1  0.15931111  0.32351905  0.61404441  1
  In  In58  1  0.15190113  0.67761436  0.13423149  1
  In  In59  1  0.16231659  0.65192577  0.61884355  1
  In  In60  1  0.49943325  0.00258612  0.11737948  1
  In  In61  1  0.48325048  0.00742548  0.63612767  1
  In  In62  1  0.51026824  0.32809801  0.12555876  1
  In  In63  1  0.50798113  0.34072033  0.62020821  1
  In  In64  1  0.50329326  0.68392594  0.13272206  1
  In  In65  1  0.50663124  0.65961173  0.62095291  1
  In  In66  1  0.84713684  0.01145281  0.11709996  1
  In  In67  1  0.84324181  0.01294901  0.62026192  1
  In  In68  1  0.83885799  0.32649440  0.13125432  1
  In  In69  1  0.84757901  0.32493873  0.63048932  1
  In  In70  1  0.82683407  0.67015566  0.13179404  1
  In  In71  1  0.83740339  0.68086974  0.61851513  1
  In  In72  1  0.66899236  0.00376617  0.75314208  1
  In  In73  1  0.16269468  0.83080004  0.49287517  1
  In  In74  1  0.33005478  0.66858948  0.74226906  1
  In  In75  1  0.83254211  0.50002538  0.00392382  1
  In  In76  1  0.33150133  0.66535282  0.25486410  1
  In  In77  1  0.83831375  0.50303940  0.49274670  1
  In  In78  1  0.50413393  0.50046391  -0.00715054  1
  In  In79  1  0.67123468  0.00033121  0.24826594  1
  In  In80  1  0.33160574  0.33122374  0.74011390  1
  In  In81  1  0.66946788  0.66140625  0.74553123  1
  In  In82  1  0.33134121  0.00257303  0.24389974  1
  In  In83  1  0.50480231  0.83569283  0.50333046  1
  In  In84  1  0.16006099  0.50732302  0.01396143  1
  In  In85  1  0.32477677  0.33551232  0.25495834  1
  Cu  Cu86  1  0.00072760  0.00291336  0.50284285  1
  Cu  Cu87  1  0.16188538  0.50253136  0.74741219  1
  Cu  Cu88  1  0.49580124  0.17105050  0.25730499  1
  Cu  Cu89  1  0.15941992  0.83611025  0.75647382  1
  Cu  Cu90  1  0.83614040  0.49892683  0.74477289  1
  Cu  Cu91  1  0.67169859  0.00061486  0.00095175  1
  Cu  Cu92  1  0.83914064  0.83621862  0.75057458  1
  Cu  Cu93  1  0.67031881  0.66704637  0.49760976  1
  Cu  Cu94  1  0.83759979  0.83271850  0.24596052  1
  Cu  Cu95  1  0.33024326  0.32655102  -0.00502384  1
  Cu  Cu96  1  0.84488122  0.16396890  0.74996061  1
  Cu  Cu97  1  0.00528660  0.00157161  -0.00142853  1
  Cu  Cu98  1  0.16677136  0.16653937  0.74844864  1
  Cu  Cu99  1  -0.00590993  0.32592211  0.49980762  1
  Cu  Cu100  1  0.66402893  0.67089217  0.00864703  1
  Cu  Cu101  1  0.49332400  0.83937102  0.75831621  1
  Cu  Cu102  1  0.67288228  0.33266311  0.49878988  1
  Cu  Cu103  1  0.33043746  0.00336612  0.50288252  1
  Cu  Cu104  1  0.33361610  0.00329414  -0.00167326  1
  Cu  Cu105  1  0.33007873  0.66065265  0.49858654  1
  Cu  Cu106  1  0.50363803  0.49768448  0.25119387  1
  Cu  Cu107  1  -0.00843727  0.32463343  -0.00022807  1
  Cu  Cu108  1  0.33581567  0.67629280  0.00252884  1
  Cu  Cu109  1  0.66648252  0.00487827  0.50209706  1
  Cu  Cu110  1  0.00212260  0.67600342  0.00065360  1
  Cu  Cu111  1  0.15045288  0.16858363  0.25055018  1
  Cu  Cu112  1  0.66224099  0.32181771  -0.00382771  1
  Cu  Cu113  1  0.83432054  0.50114905  0.25759484  1
  Cu  Cu114  1  0.83306047  0.16514705  0.24949421  1
  Se  Se115  1  0.08375143  0.08933257  0.05327295  1
  Se  Se116  1  0.08735968  0.08502438  0.55379689  1
  Se  Se117  1  0.06643973  0.40904081  0.06193353  1
  Se  Se118  1  0.07639642  0.41392583  0.55080173  1
  Se  Se119  1  0.08691671  0.75601731  0.05462951  1
  Se  Se120  1  0.07647181  0.74670299  0.55850910  1
  Se  Se121  1  0.41920853  0.08782599  0.04957632  1
  Se  Se122  1  0.41694567  0.08281789  0.55575654  1
  Se  Se123  1  0.41227280  0.40817950  0.05359315  1
  Se  Se124  1  0.43190961  0.42273154  0.54781137  1
  Se  Se125  1  0.42383289  0.75349354  0.05565600  1
  Se  Se126  1  0.40641950  0.74421593  0.55949398  1
  Se  Se127  1  0.75305419  0.08713820  0.05251233  1
  Se  Se128  1  0.75231785  0.08735769  0.55360357  1
  Se  Se129  1  0.73921114  0.40568989  0.05712967  1
  Se  Se130  1  0.75554161  0.41209154  0.55850058  1
  Se  Se131  1  0.75645995  0.75074195  0.05499916  1
  Se  Se132  1  0.75118439  0.75494079  0.54697440  1
  Se  Se133  1  0.24518408  0.25021146  0.05193208  1
  Se  Se134  1  0.26228833  0.26836660  0.54640375  1
  Se  Se135  1  0.25962328  0.59637071  0.06600656  1
  Se  Se136  1  0.24577049  0.57567373  0.54855619  1
  Se  Se137  1  0.25126169  0.92080873  0.05317916  1
  Se  Se138  1  0.25137191  0.91845276  0.55933417  1
  Se  Se139  1  0.57713459  0.24256006  0.05140651  1
  Se  Se140  1  0.58908520  0.25143689  0.55362685  1
  Se  Se141  1  0.58735144  0.58216350  0.06423685  1
  Se  Se142  1  0.58654551  0.58300717  0.54839961  1
  Se  Se143  1  0.58601635  0.91821803  0.05385423  1
  Se  Se144  1  0.58758104  0.92823787  0.56736380  1
  Se  Se145  1  0.90838604  0.24455968  0.05517356  1
  Se  Se146  1  0.91405461  0.24177554  0.55415190  1
  Se  Se147  1  0.92643554  0.58954199  0.06048006  1
  Se  Se148  1  0.92517180  0.59050337  0.55565362  1
  Se  Se149  1  0.92009678  0.91747188  0.05111958  1
  Se  Se150  1  0.91842757  0.91758949  0.55606933  1
  Se  Se151  1  0.07833218  0.24048184  0.44782020  1
  Se  Se152  1  0.08271403  0.24792740  0.94810112  1
  Se  Se153  1  0.08158767  0.57972569  0.44876115  1
  Se  Se154  1  0.07454863  0.58691190  0.94122854  1
  Se  Se155  1  0.07435520  0.92413906  0.43651171  1
  Se  Se156  1  0.08638463  0.91631626  0.94413056  1
  Se  Se157  1  0.43495869  0.23519854  0.45111708  1
  Se  Se158  1  0.41824892  0.25022784  0.94095631  1
  Se  Se159  1  0.42080775  0.57938159  0.45073604  1
  Se  Se160  1  0.40293272  0.58954666  0.93867302  1
  Se  Se161  1  0.40987826  0.92298731  0.44225802  1
  Se  Se162  1  0.41936319  0.91759250  0.94717359  1
  Se  Se163  1  0.75553212  0.24607628  0.44855533  1
  Se  Se164  1  0.75538933  0.24645053  0.94544614  1
  Se  Se165  1  0.74818783  0.59205697  0.43219799  1
  Se  Se166  1  0.73933598  0.59136740  0.94340984  1
  Se  Se167  1  0.74508206  0.91588909  0.45045898  1
  Se  Se168  1  0.75453911  0.91245453  0.95227512  1
  Se  Se169  1  0.24359053  0.08424029  0.45124212  1
  Se  Se170  1  0.24809658  0.08502743  0.94479629  1
  Se  Se171  1  0.26126787  0.38452731  0.45194846  1
  Se  Se172  1  0.24476619  0.41471447  0.94667745  1
  Se  Se173  1  0.25504678  0.73861436  0.43517377  1
  Se  Se174  1  0.24624936  0.75525262  0.95186395  1
  Se  Se175  1  0.57982318  0.08640548  0.45127287  1
  Se  Se176  1  0.58594035  0.08043400  0.94578663  1
  Se  Se177  1  0.59072588  0.41876727  0.44633236  1
  Se  Se178  1  0.58870180  0.40550205  0.93358733  1
  Se  Se179  1  0.58647527  0.74644369  0.43718503  1
  Se  Se180  1  0.57720206  0.74901927  0.95342161  1
  Se  Se181  1  0.91290729  0.08192418  0.44791060  1
  Se  Se182  1  0.91825313  0.08379716  0.94699282  1
  Se  Se183  1  0.92273940  0.40774000  0.43404669  1
  Se  Se184  1  0.91798742  0.41156547  0.93921013  1
  Se  Se185  1  0.92017571  0.76286255  0.44559558  1
  Se  Se186  1  0.91459821  0.75409108  0.94673398  1
  Se  Se187  1  0.23827320  0.24049516  0.31173013  1
  Se  Se188  1  0.24677234  0.24712290  0.80933913  1
  Se  Se189  1  0.25406631  0.56744437  0.31647690  1
  Se  Se190  1  0.24255480  0.57889850  0.80953260  1
  Se  Se191  1  0.24063511  0.91353908  0.30478874  1
  Se  Se192  1  0.24823190  0.91917951  0.80390588  1
  Se  Se193  1  0.58322316  0.25249899  0.30704620  1
  Se  Se194  1  0.60164098  0.25154982  0.79917144  1
  Se  Se195  1  0.58419533  0.58627546  0.30143701  1
  Se  Se196  1  0.57323748  0.57481854  0.80361322  1
  Se  Se197  1  0.57717459  0.91114433  0.30701784  1
  Se  Se198  1  0.58300278  0.91090895  0.81548003  1
  Se  Se199  1  0.91575415  0.24912255  0.30363434  1
  Se  Se200  1  0.92328014  0.25227992  0.80463762  1
  Se  Se201  1  0.92217423  0.58539687  0.30459740  1
  Se  Se202  1  0.91263823  0.58626639  0.80011219  1
  Se  Se203  1  0.91406558  0.92067225  0.30127083  1
  Se  Se204  1  0.92057507  0.91964444  0.80450372  1
  Se  Se205  1  0.07463971  0.07989451  0.30402718  1
  Se  Se206  1  0.08304733  0.08540611  0.80426797  1
  Se  Se207  1  0.08585896  0.40938217  0.30356745  1
  Se  Se208  1  0.08164737  0.41553711  0.79996227  1
  Se  Se209  1  0.09641532  0.75575878  0.30139475  1
  Se  Se210  1  0.07799076  0.74711222  0.80510027  1
  Se  Se211  1  0.41179030  0.09195026  0.31376663  1
  Se  Se212  1  0.42465667  0.08996086  0.79955217  1
  Se  Se213  1  0.42217825  0.42086731  0.31285774  1
  Se  Se214  1  0.42407948  0.42219272  0.80113944  1
  Se  Se215  1  0.42899872  0.75909370  0.30614324  1
  Se  Se216  1  0.41351790  0.75284594  0.81379622  1
  Se  Se217  1  0.75388958  0.08781177  0.31443347  1
  Se  Se218  1  0.76428961  0.08655214  0.81337753  1
  Se  Se219  1  0.74688549  0.41291698  0.30099279  1
  Se  Se220  1  0.75119110  0.41653022  0.79677252  1
  Se  Se221  1  0.75575254  0.75040177  0.30153124  1
  Se  Se222  1  0.75305828  0.75697291  0.80823773  1
  Se  Se223  1  0.23537718  0.09264965  0.18951166  1
  Se  Se224  1  0.25119864  0.08758132  0.69190170  1
  Se  Se225  1  0.23275878  0.42677206  0.19701701  1
  Se  Se226  1  0.24005332  0.42523521  0.68497172  1
  Se  Se227  1  0.25290961  0.76159057  0.19172888  1
  Se  Se228  1  0.23447296  0.75982636  0.68764694  1
  Se  Se229  1  0.57361316  0.09163242  0.19386955  1
  Se  Se230  1  0.58213441  0.09274174  0.69239036  1
  Se  Se231  1  0.58304325  0.40964159  0.19893868  1
  Se  Se232  1  0.58886401  0.41025335  0.69767002  1
  Se  Se233  1  0.59981239  0.74570026  0.19947374  1
  Se  Se234  1  0.57044394  0.75939374  0.69531909  1
  Se  Se235  1  0.91803302  0.08241168  0.19781322  1
  Se  Se236  1  0.92590249  0.07881746  0.69735033  1
  Se  Se237  1  0.91225837  0.41740236  0.19936504  1
  Se  Se238  1  0.92414019  0.41529914  0.69660824  1
  Se  Se239  1  0.92163698  0.74839684  0.19349608  1
  Se  Se240  1  0.91690694  0.74826427  0.69686107  1
  Se  Se241  1  0.07377901  0.25496669  0.19547875  1
  Se  Se242  1  0.08582494  0.25126802  0.69324691  1
  Se  Se243  1  0.09027283  0.58382185  0.20317940  1
  Se  Se244  1  0.07877944  0.58789265  0.69617219  1
  Se  Se245  1  0.07954721  0.92032255  0.19663096  1
  Se  Se246  1  0.07840820  0.91972247  0.70028952  1
  Se  Se247  1  0.41379647  0.24436922  0.19221751  1
  Se  Se248  1  0.42283371  0.24342225  0.68338653  1
  Se  Se249  1  0.42179931  0.57401375  0.18972207  1
  Se  Se250  1  0.42091193  0.57453300  0.68860403  1
  Se  Se251  1  0.43088098  0.91276860  0.19386239  1
  Se  Se252  1  0.40837547  0.92261464  0.70792037  1
  Se  Se253  1  0.74687483  0.24675549  0.19618486  1
  Se  Se254  1  0.75900303  0.24652142  0.69820497  1
  Se  Se255  1  0.75104160  0.58272693  0.20113059  1
  Se  Se256  1  0.75742867  0.57649843  0.68045699  1
  Se  Se257  1  0.76045297  0.91540392  0.18465371  1
  Se  Se258  1  0.75590454  0.91242286  0.68987825  1
