# generated using pymatgen
data_In86Cu29Se144
_symmetry_space_group_name_H-M   'P 1'
_cell_length_a   17.58772015
_cell_length_b   17.59777939
_cell_length_c   23.46088228
_cell_angle_alpha   90.01233114
_cell_angle_beta   90.00960748
_cell_angle_gamma   90.01028153
_symmetry_Int_Tables_number   1
_chemical_formula_structural   In86Cu29Se144
_chemical_formula_sum   'In86 Cu29 Se144'
_cell_volume   7261.25573888
_cell_formula_units_Z   1
loop_
 _symmetry_equiv_pos_site_id
 _symmetry_equiv_pos_as_xyz
  1  'x, y, z'
loop_
 _atom_site_type_symbol
 _atom_site_label
 _atom_site_symmetry_multiplicity
 _atom_site_fract_x
 _atom_site_fract_y
 _atom_site_fract_z
 _atom_site_occupancy
  In  In0  1  0.01680798  0.15531591  0.13216281  1
  In  In1  1  0.00160691  0.16829338  0.62743633  1
  In  In2  1  0.00101486  0.50021611  0.12907057  1
  In  In3  1  -0.00223009  0.49592383  0.62711743  1
  In  In4  1  -0.00793311  0.83951201  0.12347581  1
  In  In5  1  0.00042447  0.83122412  0.61724586  1
  In  In6  1  0.31520007  0.17026492  0.12730205  1
  In  In7  1  0.33514944  0.17615333  0.62534464  1
  In  In8  1  0.32867218  0.49238013  0.11150450  1
  In  In9  1  0.31620120  0.49893740  0.63046190  1
  In  In10  1  0.34368219  0.84063066  0.13564889  1
  In  In11  1  0.32695623  0.84176077  0.62511993  1
  In  In12  1  0.67076587  0.16591216  0.12822653  1
  In  In13  1  0.65964717  0.16437504  0.61886020  1
  In  In14  1  0.69056115  0.52157836  0.10965639  1
  In  In15  1  0.68503133  0.49940265  0.62477053  1
  In  In16  1  0.67274842  0.80358331  0.13529342  1
  In  In17  1  0.67355160  0.81570096  0.62844206  1
  In  In18  1  0.16276431  0.00246360  0.37468649  1
  In  In19  1  0.16789813  0.01510481  0.87741317  1
  In  In20  1  0.15075863  0.34651984  0.38888018  1
  In  In21  1  0.16824390  0.33548263  0.87129953  1
  In  In22  1  0.12737328  0.69350564  0.40585903  1
  In  In23  1  0.14274040  0.66456475  0.87556288  1
  In  In24  1  0.49957644  0.01041553  0.37678985  1
  In  In25  1  0.49475353  0.00093501  0.87659091  1
  In  In26  1  0.49049085  0.32907910  0.37679813  1
  In  In27  1  0.50045213  0.35588335  0.85824808  1
  In  In28  1  0.50758446  0.66152881  0.36822021  1
  In  In29  1  0.50509217  0.64008515  0.86971236  1
  In  In30  1  0.84334377  -0.01225806  0.38270643  1
  In  In31  1  0.84348129  -0.01495245  0.88001997  1
  In  In32  1  0.84230180  0.32112885  0.38510296  1
  In  In33  1  0.85157140  0.33345736  0.87400451  1
  In  In34  1  0.83883696  0.66813166  0.37428550  1
  In  In35  1  0.83878257  0.66829925  0.87593958  1
  In  In36  1  0.00401422  0.16758322  0.37820986  1
  In  In37  1  0.02194675  0.17953323  0.85427301  1
  In  In38  1  -0.00089763  0.50131220  0.37728591  1
  In  In39  1  0.00303772  0.50307238  0.88122692  1
  In  In40  1  -0.00640905  0.83696612  0.37221787  1
  In  In41  1  -0.00715804  0.82278154  0.86668985  1
  In  In42  1  0.33375034  0.16500685  0.38384657  1
  In  In43  1  0.31483099  0.17034453  0.86670149  1
  In  In44  1  0.32869504  0.49367866  0.37227170  1
  In  In45  1  0.33794222  0.49007409  0.87573695  1
  In  In46  1  0.31453296  0.83191359  0.37325626  1
  In  In47  1  0.33259920  0.84206538  0.87555117  1
  In  In48  1  0.66530118  0.16105775  0.38617400  1
  In  In49  1  0.66453156  0.16813545  0.87136940  1
  In  In50  1  0.66981642  0.51815982  0.36597046  1
  In  In51  1  0.66031203  0.51303844  0.87574365  1
  In  In52  1  0.68235005  0.82872128  0.37667940  1
  In  In53  1  0.69373874  0.82997629  0.87879401  1
  In  In54  1  0.15367756  0.01014932  0.13056489  1
  In  In55  1  0.15453617  -0.00678465  0.61648959  1
  In  In56  1  0.16556923  0.32686309  0.12169122  1
  In  In57  1  0.16104269  0.32721113  0.63133397  1
  In  In58  1  0.16438575  0.65119599  0.12155988  1
  In  In59  1  0.13573815  0.64295932  0.60071473  1
  In  In60  1  0.49260341  -0.02031638  0.13440410  1
  In  In61  1  0.48874913  0.00877177  0.62568552  1
  In  In62  1  0.48690521  0.33679200  0.12074669  1
  In  In63  1  0.49526149  0.32001050  0.63365282  1
  In  In64  1  0.51122168  0.66476436  0.12586046  1
  In  In65  1  0.51151900  0.66950623  0.63367729  1
  In  In66  1  0.86077292  -0.00758139  0.12453823  1
  In  In67  1  0.84668712  0.01350696  0.61363835  1
  In  In68  1  0.83988523  0.35329490  0.12136566  1
  In  In69  1  0.84349171  0.34635125  0.61870955  1
  In  In70  1  0.83833492  0.66426813  0.12653545  1
  In  In71  1  0.84188936  0.66271066  0.62039697  1
  In  In72  1  0.67255167  -0.00153458  0.74236482  1
  In  In73  1  0.16180789  0.83111923  0.00363401  1
  In  In74  1  0.66899787  0.33919066  0.24480892  1
  In  In75  1  0.32497996  0.66741242  0.25245870  1
  In  In76  1  0.67043228  0.34018090  0.74557591  1
  In  In77  1  0.49396832  0.17212623  -0.00581922  1
  In  In78  1  0.32850806  0.00425427  0.74696455  1
  In  In79  1  0.50839107  0.82283147  0.01138401  1
  In  In80  1  0.49842194  0.83761295  0.50595355  1
  In  In81  1  0.50054811  0.49296296  0.49740923  1
  In  In82  1  0.32746362  0.33071376  0.25337557  1
  In  In83  1  0.84805197  0.16903328  -0.00566773  1
  In  In84  1  0.32658699  0.66875709  0.74867341  1
  In  In85  1  0.67043579  -0.00649245  0.26020256  1
  Cu  Cu86  1  0.66457499  0.00072237  0.50063727  1
  Cu  Cu87  1  0.66233652  0.33993862  -0.00512955  1
  Cu  Cu88  1  0.83679014  0.50848231  0.75072933  1
  Cu  Cu89  1  0.84367718  0.82715200  0.74729997  1
  Cu  Cu90  1  0.83503058  0.82790418  0.25113095  1
  Cu  Cu91  1  0.83767678  0.50426412  0.25013626  1
  Cu  Cu92  1  0.84572820  0.16884921  0.25461646  1
  Cu  Cu93  1  0.15761274  0.50014017  0.74996994  1
  Cu  Cu94  1  -0.00009446  0.33030809  0.50586401  1
  Cu  Cu95  1  0.33213426  0.33667821  -0.00622392  1
  Cu  Cu96  1  0.15804887  0.82878032  0.74206587  1
  Cu  Cu97  1  0.67570052  0.66395678  0.49899777  1
  Cu  Cu98  1  0.15737058  0.83425325  0.25387595  1
  Cu  Cu99  1  0.51216783  0.82959369  0.75718483  1
  Cu  Cu100  1  0.50761232  0.50715559  0.23987412  1
  Cu  Cu101  1  0.67071885  0.66701526  -0.00180424  1
  Cu  Cu102  1  0.83441974  0.16542482  0.74504112  1
  Cu  Cu103  1  0.66471990  0.33307485  0.50425996  1
  Cu  Cu104  1  0.00783532  0.33383527  -0.00244839  1
  Cu  Cu105  1  0.33150854  0.66476915  0.50164139  1
  Cu  Cu106  1  0.49807543  0.15928350  0.25890613  1
  Cu  Cu107  1  0.15841488  0.50337406  0.25485667  1
  Cu  Cu108  1  -0.00150741  0.00221301  0.49661185  1
  Cu  Cu109  1  0.32802224  0.00435989  0.50237549  1
  Cu  Cu110  1  0.32801800  0.65968138  -0.00435776  1
  Cu  Cu111  1  0.33200844  0.32990454  0.50370113  1
  Cu  Cu112  1  0.33193605  0.00573914  0.00648184  1
  Cu  Cu113  1  0.16392216  0.16553985  0.25385640  1
  Cu  Cu114  1  0.67685159  -0.00101305  0.00594793  1
  Se  Se115  1  0.08859185  0.08802578  0.05152662  1
  Se  Se116  1  0.07830598  0.08660765  0.55209754  1
  Se  Se117  1  0.08409615  0.41676506  0.05842554  1
  Se  Se118  1  0.08411625  0.41253128  0.55967880  1
  Se  Se119  1  0.07242957  0.73864263  0.05945560  1
  Se  Se120  1  0.08740060  0.75830376  0.54479057  1
  Se  Se121  1  0.41803804  0.08156713  0.06610312  1
  Se  Se122  1  0.41327656  0.08838954  0.55364951  1
  Se  Se123  1  0.42056715  0.41803842  0.04410826  1
  Se  Se124  1  0.41089453  0.41248307  0.56299136  1
  Se  Se125  1  0.40266393  0.73822413  0.06168941  1
  Se  Se126  1  0.41170071  0.73991003  0.56371201  1
  Se  Se127  1  0.75708896  0.08246870  0.06121542  1
  Se  Se128  1  0.74756924  0.08718659  0.55188900  1
  Se  Se129  1  0.75169265  0.41700623  0.04660301  1
  Se  Se130  1  0.75281840  0.41934593  0.54812848  1
  Se  Se131  1  0.75338338  0.74704341  0.05477428  1
  Se  Se132  1  0.75529490  0.74882949  0.55268169  1
  Se  Se133  1  0.25255214  0.25275276  0.04980450  1
  Se  Se134  1  0.24579738  0.25114185  0.55719595  1
  Se  Se135  1  0.24321679  0.57625774  0.04673038  1
  Se  Se136  1  0.25062208  0.57615922  0.55091903  1
  Se  Se137  1  0.25575527  0.91945246  0.06363219  1
  Se  Se138  1  0.24781344  0.91462471  0.55108204  1
  Se  Se139  1  0.59066767  0.25609034  0.05762479  1
  Se  Se140  1  0.57715129  0.25406113  0.55552889  1
  Se  Se141  1  0.58208635  0.58471227  0.04950349  1
  Se  Se142  1  0.58851747  0.58742958  0.55601783  1
  Se  Se143  1  0.59725464  0.91903457  0.06681148  1
  Se  Se144  1  0.59152012  0.92313824  0.56825277  1
  Se  Se145  1  0.92759015  0.25634579  0.06264386  1
  Se  Se146  1  0.91360850  0.24615538  0.55659283  1
  Se  Se147  1  0.89437674  0.55641423  0.06419554  1
  Se  Se148  1  0.91937053  0.57507964  0.55397989  1
  Se  Se149  1  0.93200907  0.92512234  0.04471639  1
  Se  Se150  1  0.91549058  0.91586344  0.54900557  1
  Se  Se151  1  0.08403303  0.24628643  0.45290984  1
  Se  Se152  1  0.08449560  0.24960614  0.94033268  1
  Se  Se153  1  0.09588346  0.56363559  0.44774179  1
  Se  Se154  1  0.07614806  0.58928428  0.95350381  1
  Se  Se155  1  0.07934105  0.91868159  0.44168900  1
  Se  Se156  1  0.08327557  0.91536173  0.93332256  1
  Se  Se157  1  0.41903717  0.24941762  0.45097706  1
  Se  Se158  1  0.41111266  0.26030084  0.92976555  1
  Se  Se159  1  0.41224036  0.59061376  0.43946013  1
  Se  Se160  1  0.41604664  0.57949810  0.94445723  1
  Se  Se161  1  0.40834641  0.92121032  0.44189045  1
  Se  Se162  1  0.41515163  0.92087261  0.95296874  1
  Se  Se163  1  0.74736224  0.24789052  0.45046310  1
  Se  Se164  1  0.74468932  0.25638615  0.93906282  1
  Se  Se165  1  0.75369028  0.58120474  0.44222719  1
  Se  Se166  1  0.75222945  0.58364449  0.94332861  1
  Se  Se167  1  0.74826362  0.91607853  0.44989334  1
  Se  Se168  1  0.75983496  0.91398350  0.95460188  1
  Se  Se169  1  0.24379019  0.08395726  0.44732607  1
  Se  Se170  1  0.25561157  0.08786080  0.94802534  1
  Se  Se171  1  0.25642368  0.41640157  0.44754846  1
  Se  Se172  1  0.24527995  0.41988397  0.94424784  1
  Se  Se173  1  0.25026901  0.75204668  0.45135107  1
  Se  Se174  1  0.25392218  0.74556456  0.93757919  1
  Se  Se175  1  0.57618771  0.08382903  0.45333722  1
  Se  Se176  1  0.59355799  0.07307374  0.94583734  1
  Se  Se177  1  0.59454604  0.41074651  0.43332540  1
  Se  Se178  1  0.57958816  0.41874563  0.93886341  1
  Se  Se179  1  0.58597620  0.74390550  0.44532190  1
  Se  Se180  1  0.58763390  0.74497792  0.93586554  1
  Se  Se181  1  0.91362916  0.08732623  0.44542954  1
  Se  Se182  1  0.93195672  0.08737313  0.92796301  1
  Se  Se183  1  0.91998974  0.41385461  0.44804708  1
  Se  Se184  1  0.91869109  0.41556385  0.94937805  1
  Se  Se185  1  0.91467095  0.75452780  0.44289530  1
  Se  Se186  1  0.90836282  0.76235083  0.94407406  1
  Se  Se187  1  0.23859341  0.24779628  0.31707573  1
  Se  Se188  1  0.23567075  0.24758105  0.79692826  1
  Se  Se189  1  0.23718997  0.58315207  0.31567519  1
  Se  Se190  1  0.23933780  0.58053590  0.81179538  1
  Se  Se191  1  0.24310062  0.91842866  0.30267359  1
  Se  Se192  1  0.23974088  0.90666120  0.80307197  1
  Se  Se193  1  0.58198419  0.24527014  0.30918070  1
  Se  Se194  1  0.57808867  0.24633647  0.80303918  1
  Se  Se195  1  0.58833920  0.59274553  0.29180300  1
  Se  Se196  1  0.58468132  0.57479976  0.79277661  1
  Se  Se197  1  0.57722609  0.90594269  0.31769607  1
  Se  Se198  1  0.58767662  0.91436737  0.81572355  1
  Se  Se199  1  0.92434161  0.25506604  0.30771405  1
  Se  Se200  1  0.91626033  0.25167169  0.79675563  1
  Se  Se201  1  0.92115181  0.58522172  0.30472454  1
  Se  Se202  1  0.92185432  0.58444808  0.80836451  1
  Se  Se203  1  0.91335531  0.92000721  0.30008909  1
  Se  Se204  1  0.91885875  0.91828743  0.79994708  1
  Se  Se205  1  0.07827669  0.08264093  0.30473788  1
  Se  Se206  1  0.09193128  0.07529276  0.79625962  1
  Se  Se207  1  0.08030039  0.41417737  0.30673521  1
  Se  Se208  1  0.07729380  0.41932504  0.80748367  1
  Se  Se209  1  0.08100053  0.74723059  0.30896368  1
  Se  Se210  1  0.07812158  0.74435095  0.79661965  1
  Se  Se211  1  0.40807085  0.08284463  0.30865704  1
  Se  Se212  1  0.42227078  0.09134315  0.80811717  1
  Se  Se213  1  0.42978043  0.42687515  0.30147918  1
  Se  Se214  1  0.40707439  0.42423341  0.79250159  1
  Se  Se215  1  0.41771605  0.75530393  0.31178661  1
  Se  Se216  1  0.42315917  0.75411426  0.81411972  1
  Se  Se217  1  0.75951024  0.09163281  0.31330947  1
  Se  Se218  1  0.75921075  0.08572448  0.80923518  1
  Se  Se219  1  0.75900851  0.41998108  0.31037440  1
  Se  Se220  1  0.75987784  0.42309588  0.81123935  1
  Se  Se221  1  0.74987003  0.74497204  0.30205605  1
  Se  Se222  1  0.75654349  0.74849605  0.80125987  1
  Se  Se223  1  0.24767516  0.08316741  0.19950930  1
  Se  Se224  1  0.23915394  0.08521406  0.68355048  1
  Se  Se225  1  0.24403686  0.42745001  0.19377881  1
  Se  Se226  1  0.24259617  0.41488658  0.70116475  1
  Se  Se227  1  0.23678830  0.75670854  0.18868743  1
  Se  Se228  1  0.23801595  0.74873371  0.68229863  1
  Se  Se229  1  0.58045933  0.08481977  0.19574343  1
  Se  Se230  1  0.57303424  0.09173590  0.69648744  1
  Se  Se231  1  0.58163332  0.42342702  0.17931048  1
  Se  Se232  1  0.57849270  0.42717598  0.68524495  1
  Se  Se233  1  0.55575115  0.76881287  0.19474198  1
  Se  Se234  1  0.59402042  0.74538805  0.70557113  1
  Se  Se235  1  0.92190535  0.08197206  0.19878109  1
  Se  Se236  1  0.91852295  0.07955285  0.69572449  1
  Se  Se237  1  0.91965397  0.41564210  0.20104494  1
  Se  Se238  1  0.91431431  0.41692688  0.69973469  1
  Se  Se239  1  0.91899626  0.75034954  0.19390706  1
  Se  Se240  1  0.92385497  0.74621841  0.68995932  1
  Se  Se241  1  0.08715559  0.25327573  0.19782512  1
  Se  Se242  1  0.06826009  0.25774008  0.70022369  1
  Se  Se243  1  0.08055951  0.58794875  0.19882503  1
  Se  Se244  1  0.08098565  0.58606677  0.69363250  1
  Se  Se245  1  0.07933356  0.91556683  0.19429609  1
  Se  Se246  1  0.07708553  0.91597174  0.69083947  1
  Se  Se247  1  0.42304169  0.24032569  0.19441621  1
  Se  Se248  1  0.41035215  0.24748898  0.70368464  1
  Se  Se249  1  0.41145734  0.57685873  0.18552638  1
  Se  Se250  1  0.41911295  0.57926355  0.69019216  1
  Se  Se251  1  0.40934972  0.92194497  0.21183278  1
  Se  Se252  1  0.42822818  0.90540522  0.69713356  1
  Se  Se253  1  0.76588823  0.24567984  0.19152176  1
  Se  Se254  1  0.75444272  0.24542546  0.68518970  1
  Se  Se255  1  0.74952271  0.58510827  0.19765404  1
  Se  Se256  1  0.75421265  0.58853888  0.69480623  1
  Se  Se257  1  0.75597093  0.91173177  0.18884289  1
  Se  Se258  1  0.76483703  0.90985611  0.68533817  1
