# generated using pymatgen
data_In86Cu29Se144
_symmetry_space_group_name_H-M   'P 1'
_cell_length_a   17.58351512
_cell_length_b   17.58173526
_cell_length_c   23.44672613
_cell_angle_alpha   90.01371677
_cell_angle_beta   89.97723598
_cell_angle_gamma   89.98126886
_symmetry_Int_Tables_number   1
_chemical_formula_structural   In86Cu29Se144
_chemical_formula_sum   'In86 Cu29 Se144'
_cell_volume   7248.52391329
_cell_formula_units_Z   1
loop_
 _symmetry_equiv_pos_site_id
 _symmetry_equiv_pos_as_xyz
  1  'x, y, z'
loop_
 _atom_site_type_symbol
 _atom_site_label
 _atom_site_symmetry_multiplicity
 _atom_site_fract_x
 _atom_site_fract_y
 _atom_site_fract_z
 _atom_site_occupancy
  In  In0  1  -0.01369687  0.17446484  0.13996631  1
  In  In1  1  0.01479469  0.17400570  0.60534823  1
  In  In2  1  -0.00302934  0.48674832  0.12905863  1
  In  In3  1  -0.00046398  0.50104277  0.62289593  1
  In  In4  1  0.00834907  0.82979791  0.12756130  1
  In  In5  1  -0.01952223  0.82849242  0.63190813  1
  In  In6  1  0.33594889  0.15977885  0.12801853  1
  In  In7  1  0.33455239  0.19175270  0.62541763  1
  In  In8  1  0.31808689  0.49922311  0.12733105  1
  In  In9  1  0.32494441  0.48008694  0.61575530  1
  In  In10  1  0.33179060  0.85169414  0.12570671  1
  In  In11  1  0.32526333  0.83432200  0.62707716  1
  In  In12  1  0.69624676  0.21200432  0.08965687  1
  In  In13  1  0.67192923  0.16131674  0.63641539  1
  In  In14  1  0.71187268  0.46188466  0.16359422  1
  In  In15  1  0.66010772  0.48820226  0.61515240  1
  In  In16  1  0.66016710  0.82481174  0.12608752  1
  In  In17  1  0.69139919  0.84237076  0.63186913  1
  In  In18  1  0.16482479  0.00427584  0.36940959  1
  In  In19  1  0.14298617  -0.00141860  0.88495605  1
  In  In20  1  0.16484708  0.32938506  0.37427584  1
  In  In21  1  0.17466385  0.34259878  0.86921540  1
  In  In22  1  0.15156284  0.66069849  0.37188092  1
  In  In23  1  0.15439577  0.67287334  0.88343303  1
  In  In24  1  0.49655975  0.01560714  0.37209164  1
  In  In25  1  0.51889158  0.00805533  0.86938751  1
  In  In26  1  0.50903283  0.34474349  0.36766997  1
  In  In27  1  0.49918314  0.32765682  0.87114121  1
  In  In28  1  0.49544562  0.64120687  0.37626960  1
  In  In29  1  0.50259805  0.67385094  0.87820473  1
  In  In30  1  0.84943177  0.01144217  0.36761599  1
  In  In31  1  0.84172491  0.02339875  0.88025067  1
  In  In32  1  0.83670123  0.33587120  0.36793034  1
  In  In33  1  0.83240028  0.33052375  0.87321233  1
  In  In34  1  0.82216461  0.65045374  0.35628015  1
  In  In35  1  0.83038944  0.64639971  0.87745470  1
  In  In36  1  -0.00477903  0.17380145  0.37428709  1
  In  In37  1  -0.02098400  0.16980190  0.87909080  1
  In  In38  1  -0.00422735  0.50225978  0.37320471  1
  In  In39  1  -0.00233923  0.49684971  0.87351928  1
  In  In40  1  -0.00238977  0.82739049  0.36544407  1
  In  In41  1  0.00970872  0.83812140  0.88070103  1
  In  In42  1  0.32781756  0.15738200  0.36259274  1
  In  In43  1  0.32964023  0.18552597  0.87340624  1
  In  In44  1  0.33740953  0.48588667  0.37815714  1
  In  In45  1  0.33479249  0.48515894  0.87659823  1
  In  In46  1  0.32210369  0.83935940  0.37139024  1
  In  In47  1  0.32648014  0.82506554  0.88011852  1
  In  In48  1  0.67137566  0.18147934  0.37171689  1
  In  In49  1  0.67317974  0.17410976  0.87658789  1
  In  In50  1  0.67163002  0.49433246  0.37239774  1
  In  In51  1  0.68139970  0.48975988  0.88165105  1
  In  In52  1  0.68288001  0.83004309  0.37647672  1
  In  In53  1  0.65605088  0.83273460  0.87662010  1
  In  In54  1  0.17020505  0.00097983  0.12750725  1
  In  In55  1  0.15052991  0.01280475  0.62077816  1
  In  In56  1  0.15288464  0.34123866  0.13302495  1
  In  In57  1  0.16039122  0.33519719  0.62106980  1
  In  In58  1  0.14990794  0.65270009  0.11697046  1
  In  In59  1  0.16268584  0.64874217  0.62062746  1
  In  In60  1  0.48765147  0.00937572  0.12431134  1
  In  In61  1  0.51533217  0.03204120  0.62354154  1
  In  In62  1  0.50981021  0.32345553  0.12734205  1
  In  In63  1  0.49488216  0.32938414  0.63150413  1
  In  In64  1  0.51022999  0.66832018  0.12668114  1
  In  In65  1  0.51533013  0.65259407  0.62464850  1
  In  In66  1  0.83336181  0.01943621  0.12821015  1
  In  In67  1  0.83055506  0.00428860  0.62601871  1
  In  In68  1  0.84323428  0.33036787  0.13116683  1
  In  In69  1  0.83644922  0.33535599  0.62203213  1
  In  In70  1  0.85981748  0.63661135  0.14925351  1
  In  In71  1  0.84472497  0.66812691  0.62718387  1
  In  In72  1  0.50375617  0.49943990  -0.00255032  1
  In  In73  1  0.49852293  0.17931937  0.50004784  1
  In  In74  1  0.16222758  0.82750204  0.48910080  1
  In  In75  1  0.50210293  0.82783151  0.50789161  1
  In  In76  1  0.49435388  0.83809927  -0.00051316  1
  In  In77  1  0.33388186  0.65666424  0.75886320  1
  In  In78  1  0.65786567  0.00674951  0.24644608  1
  In  In79  1  0.67064815  0.66051976  0.75601031  1
  In  In80  1  0.33078254  0.67186832  0.24777177  1
  In  In81  1  0.16145143  0.17280822  0.00453413  1
  In  In82  1  0.83921664  0.83217982  0.50377880  1
  In  In83  1  0.33200264  0.00161447  0.75276360  1
  In  In84  1  -0.00900376  0.00202505  0.75321375  1
  In  In85  1  0.83365013  0.83324121  0.00409453  1
  Cu  Cu86  1  0.67589799  0.00869387  0.50618328  1
  Cu  Cu87  1  0.33118623  0.33767438  -0.00025570  1
  Cu  Cu88  1  0.15672588  0.49776156  0.74420840  1
  Cu  Cu89  1  0.49926309  0.83483842  0.25095824  1
  Cu  Cu90  1  0.66622415  0.65434157  0.49384884  1
  Cu  Cu91  1  0.32677873  0.00176959  0.49228279  1
  Cu  Cu92  1  0.83406606  0.17520491  0.75018338  1
  Cu  Cu93  1  0.16098979  0.82757295  0.75444555  1
  Cu  Cu94  1  0.49818562  0.49222413  0.75044397  1
  Cu  Cu95  1  0.66714392  0.00991599  -0.00148313  1
  Cu  Cu96  1  -0.00676648  0.65635020  0.00662457  1
  Cu  Cu97  1  -0.00407578  0.66186412  0.49799447  1
  Cu  Cu98  1  0.16471615  0.49354253  0.24973802  1
  Cu  Cu99  1  0.83601170  0.49262206  0.74973063  1
  Cu  Cu100  1  0.33543933  0.64912304  0.50087350  1
  Cu  Cu101  1  0.32165251  0.66827570  0.00361509  1
  Cu  Cu102  1  0.50348040  0.49926639  0.25258138  1
  Cu  Cu103  1  0.67845779  0.65346468  0.01250022  1
  Cu  Cu104  1  0.17063953  0.83959493  0.24694062  1
  Cu  Cu105  1  0.32878664  0.33135365  0.49679325  1
  Cu  Cu106  1  0.16320684  0.16793373  0.25011902  1
  Cu  Cu107  1  0.83177482  0.83146488  0.24740694  1
  Cu  Cu108  1  0.32923386  0.00551113  0.00112938  1
  Cu  Cu109  1  0.67677431  0.33512510  0.49629461  1
  Cu  Cu110  1  -0.00489154  0.33861820  0.00097088  1
  Cu  Cu111  1  0.16299491  0.17522101  0.74635062  1
  Cu  Cu112  1  0.50653577  0.84740205  0.74460088  1
  Cu  Cu113  1  0.49928419  0.16744132  0.24435871  1
  Cu  Cu114  1  -0.00246709  0.33989005  0.49397262  1
  Se  Se115  1  0.07597436  0.08803782  0.06848569  1
  Se  Se116  1  0.08400519  0.07862772  0.53853725  1
  Se  Se117  1  0.08357063  0.41697725  0.05362168  1
  Se  Se118  1  0.08119580  0.42024792  0.55163379  1
  Se  Se119  1  0.07792038  0.74709223  0.05067676  1
  Se  Se120  1  0.07270421  0.74640878  0.55898615  1
  Se  Se121  1  0.41486742  0.08969485  0.04899894  1
  Se  Se122  1  0.40588139  0.08183208  0.55595503  1
  Se  Se123  1  0.41199766  0.41562531  0.06236552  1
  Se  Se124  1  0.42091617  0.40416648  0.55279859  1
  Se  Se125  1  0.40712353  0.74495040  0.06221090  1
  Se  Se126  1  0.40668089  0.73449481  0.56391490  1
  Se  Se127  1  0.75807443  0.08775346  0.04832809  1
  Se  Se128  1  0.75543055  0.09431149  0.55837544  1
  Se  Se129  1  0.74746772  0.40789560  0.06594154  1
  Se  Se130  1  0.75778063  0.42056872  0.54995219  1
  Se  Se131  1  0.75589862  0.73917741  0.06902868  1
  Se  Se132  1  0.73970918  0.73925347  0.55709688  1
  Se  Se133  1  0.25268530  0.26042153  0.06437876  1
  Se  Se134  1  0.24439435  0.25027542  0.55109677  1
  Se  Se135  1  0.24361835  0.57659231  0.05166697  1
  Se  Se136  1  0.24466823  0.57097891  0.55089118  1
  Se  Se137  1  0.24725228  0.91990793  0.05171418  1
  Se  Se138  1  0.24967463  0.92065636  0.55439692  1
  Se  Se139  1  0.56633227  0.24375439  0.04536796  1
  Se  Se140  1  0.59740266  0.25671316  0.56007006  1
  Se  Se141  1  0.59193889  0.57510965  0.06657108  1
  Se  Se142  1  0.57843769  0.57382435  0.54580876  1
  Se  Se143  1  0.58900419  0.92592977  0.05749708  1
  Se  Se144  1  0.59485123  0.92413806  0.56316665  1
  Se  Se145  1  0.92236117  0.24981448  0.05718781  1
  Se  Se146  1  0.91715568  0.25510529  0.54915737  1
  Se  Se147  1  0.91363274  0.57195125  0.05929946  1
  Se  Se148  1  0.91211222  0.58224955  0.55349527  1
  Se  Se149  1  0.91869014  0.92258064  0.06611350  1
  Se  Se150  1  0.92929863  0.92807567  0.55760676  1
  Se  Se151  1  0.08197380  0.25162595  0.44604262  1
  Se  Se152  1  0.07740215  0.26003860  0.93761357  1
  Se  Se153  1  0.08291108  0.57967976  0.44706325  1
  Se  Se154  1  0.07719653  0.57941653  0.94624623  1
  Se  Se155  1  0.07084944  0.92046117  0.43620196  1
  Se  Se156  1  0.07886442  0.91316083  0.95871495  1
  Se  Se157  1  0.40914962  0.25617285  0.43186052  1
  Se  Se158  1  0.41447907  0.25583614  0.94671005  1
  Se  Se159  1  0.41994417  0.56556181  0.45058577  1
  Se  Se160  1  0.40609509  0.59445711  0.94151249  1
  Se  Se161  1  0.41578044  0.91945049  0.44233801  1
  Se  Se162  1  0.40982667  0.92830286  0.93618076  1
  Se  Se163  1  0.75775565  0.25167157  0.44259520  1
  Se  Se164  1  0.77464826  0.23252046  0.94460937  1
  Se  Se165  1  0.75572803  0.58047975  0.44032202  1
  Se  Se166  1  0.75671440  0.57154909  0.95491490  1
  Se  Se167  1  0.75119558  0.92796763  0.44384013  1
  Se  Se168  1  0.74323015  0.92271102  0.94048134  1
  Se  Se169  1  0.24750125  0.08689315  0.43953909  1
  Se  Se170  1  0.24999260  0.08357351  0.93764979  1
  Se  Se171  1  0.24428825  0.41529520  0.44547610  1
  Se  Se172  1  0.24472649  0.41968971  0.94919580  1
  Se  Se173  1  0.26147784  0.73340083  0.43886074  1
  Se  Se174  1  0.24121770  0.75454531  0.95133579  1
  Se  Se175  1  0.59160765  0.08210501  0.44374843  1
  Se  Se176  1  0.58376341  0.09133002  0.94494298  1
  Se  Se177  1  0.58776951  0.41513058  0.44468826  1
  Se  Se178  1  0.59238766  0.40307253  0.94442204  1
  Se  Se179  1  0.58742386  0.74265304  0.43844757  1
  Se  Se180  1  0.59548477  0.73678276  0.95506622  1
  Se  Se181  1  0.91326657  0.09067374  0.44465734  1
  Se  Se182  1  0.94815992  0.06210782  0.94949986  1
  Se  Se183  1  0.91182519  0.42142610  0.44207642  1
  Se  Se184  1  0.91255186  0.41711224  0.94293413  1
  Se  Se185  1  0.91532164  0.74058553  0.43632289  1
  Se  Se186  1  0.91840602  0.73866889  0.94214519  1
  Se  Se187  1  0.24899109  0.25136191  0.30158615  1
  Se  Se188  1  0.25001431  0.25618289  0.79729033  1
  Se  Se189  1  0.24733771  0.57678764  0.30775994  1
  Se  Se190  1  0.23578819  0.57114954  0.81325936  1
  Se  Se191  1  0.25300431  0.92422360  0.29942055  1
  Se  Se192  1  0.23713667  0.91291064  0.81314681  1
  Se  Se193  1  0.57971014  0.24814612  0.30199760  1
  Se  Se194  1  0.59531071  0.25854082  0.80697994  1
  Se  Se195  1  0.58769974  0.58275549  0.30394893  1
  Se  Se196  1  0.57415444  0.57155105  0.81519401  1
  Se  Se197  1  0.57923177  0.91114196  0.31553912  1
  Se  Se198  1  0.59427779  0.92072816  0.80021893  1
  Se  Se199  1  0.93173391  0.26525958  0.30099527  1
  Se  Se200  1  0.92194257  0.25585032  0.80087293  1
  Se  Se201  1  0.93358042  0.59604977  0.29991578  1
  Se  Se202  1  0.91545994  0.58016637  0.80194773  1
  Se  Se203  1  0.91490812  0.91444369  0.30054336  1
  Se  Se204  1  0.90799986  0.91253596  0.81730881  1
  Se  Se205  1  0.07870421  0.08680004  0.30496507  1
  Se  Se206  1  0.08647175  0.09484741  0.80921591  1
  Se  Se207  1  0.08263935  0.41679492  0.30781830  1
  Se  Se208  1  0.07968279  0.41415400  0.80288359  1
  Se  Se209  1  0.08984601  0.75182956  0.29898063  1
  Se  Se210  1  0.07555591  0.74729968  0.80730388  1
  Se  Se211  1  0.41667250  0.07944366  0.29401796  1
  Se  Se212  1  0.41926641  0.09239751  0.81161590  1
  Se  Se213  1  0.41407946  0.41572908  0.29999588  1
  Se  Se214  1  0.41226107  0.41022702  0.80230163  1
  Se  Se215  1  0.42361182  0.75388714  0.31453730  1
  Se  Se216  1  0.42662786  0.76432127  0.80445386  1
  Se  Se217  1  0.75327831  0.09237389  0.30389785  1
  Se  Se218  1  0.75617609  0.08876239  0.80544842  1
  Se  Se219  1  0.74802208  0.41442049  0.29937806  1
  Se  Se220  1  0.74898900  0.41342435  0.80235674  1
  Se  Se221  1  0.74415223  0.74980910  0.29706006  1
  Se  Se222  1  0.75565336  0.75293438  0.81633885  1
  Se  Se223  1  0.24874190  0.08475170  0.19792347  1
  Se  Se224  1  0.24245123  0.09003263  0.68886485  1
  Se  Se225  1  0.25145369  0.41105198  0.19963420  1
  Se  Se226  1  0.24406062  0.41483030  0.69402066  1
  Se  Se227  1  0.24168725  0.75402398  0.18302872  1
  Se  Se228  1  0.24279149  0.74722636  0.69566963  1
  Se  Se229  1  0.58219809  0.09690782  0.17988024  1
  Se  Se230  1  0.58922982  0.08338533  0.70771079  1
  Se  Se231  1  0.58074428  0.41092647  0.19993889  1
  Se  Se232  1  0.58331502  0.41700620  0.69303134  1
  Se  Se233  1  0.58191965  0.74966362  0.20158472  1
  Se  Se234  1  0.58411592  0.75500579  0.69073337  1
  Se  Se235  1  0.91406778  0.08040116  0.20645609  1
  Se  Se236  1  0.91856700  0.09857114  0.68791621  1
  Se  Se237  1  0.90689929  0.42402773  0.20317615  1
  Se  Se238  1  0.92079236  0.41545174  0.69265477  1
  Se  Se239  1  0.92296854  0.75242740  0.19835047  1
  Se  Se240  1  0.90313003  0.75334529  0.70442965  1
  Se  Se241  1  0.07807143  0.25499432  0.20312215  1
  Se  Se242  1  0.07727189  0.24894248  0.68871922  1
  Se  Se243  1  0.08212805  0.57644760  0.19542718  1
  Se  Se244  1  0.07629770  0.58834374  0.69645421  1
  Se  Se245  1  0.08416133  0.92029690  0.19555938  1
  Se  Se246  1  0.08692231  0.91149145  0.69212648  1
  Se  Se247  1  0.41376561  0.25127544  0.19356597  1
  Se  Se248  1  0.43376541  0.22981242  0.69868231  1
  Se  Se249  1  0.42207507  0.57744995  0.19130734  1
  Se  Se250  1  0.41844833  0.57298829  0.68912738  1
  Se  Se251  1  0.42041638  0.91959457  0.19729614  1
  Se  Se252  1  0.42301280  0.92114230  0.68383384  1
  Se  Se253  1  0.74282762  0.24774064  0.18865829  1
  Se  Se254  1  0.75244586  0.25795738  0.69479695  1
  Se  Se255  1  0.73155389  0.60131908  0.19383489  1
  Se  Se256  1  0.75249213  0.57317838  0.68890124  1
  Se  Se257  1  0.75042198  0.91300623  0.18866481  1
  Se  Se258  1  0.76687196  0.92080596  0.70298964  1
