# generated using pymatgen
data_In86Cu29Se144
_symmetry_space_group_name_H-M   'P 1'
_cell_length_a   17.58335692
_cell_length_b   17.58295557
_cell_length_c   23.43885286
_cell_angle_alpha   89.99288159
_cell_angle_beta   89.97153275
_cell_angle_gamma   90.01439347
_symmetry_Int_Tables_number   1
_chemical_formula_structural   In86Cu29Se144
_chemical_formula_sum   'In86 Cu29 Se144'
_cell_volume   7246.52763211
_cell_formula_units_Z   1
loop_
 _symmetry_equiv_pos_site_id
 _symmetry_equiv_pos_as_xyz
  1  'x, y, z'
loop_
 _atom_site_type_symbol
 _atom_site_label
 _atom_site_symmetry_multiplicity
 _atom_site_fract_x
 _atom_site_fract_y
 _atom_site_fract_z
 _atom_site_occupancy
  In  In0  1  0.00089592  0.16480517  0.12171762  1
  In  In1  1  0.00034039  0.16707777  0.62015706  1
  In  In2  1  0.00526827  0.48779152  0.12637502  1
  In  In3  1  0.00788340  0.50371316  0.62175042  1
  In  In4  1  0.00960100  0.84525175  0.12086062  1
  In  In5  1  -0.01050561  0.84118457  0.63093201  1
  In  In6  1  0.32943186  0.18477635  0.12052429  1
  In  In7  1  0.31963046  0.17858947  0.64280846  1
  In  In8  1  0.33753027  0.50061585  0.12044727  1
  In  In9  1  0.31610415  0.49761439  0.62098814  1
  In  In10  1  0.33343262  0.82596787  0.11899085  1
  In  In11  1  0.34076841  0.84130011  0.62790614  1
  In  In12  1  0.67952362  0.16875714  0.12477369  1
  In  In13  1  0.67940297  0.16409473  0.62192708  1
  In  In14  1  0.65645964  0.50503928  0.12942321  1
  In  In15  1  0.68356038  0.50418162  0.61847977  1
  In  In16  1  0.66981968  0.83919526  0.10726654  1
  In  In17  1  0.66155508  0.82453819  0.61726239  1
  In  In18  1  0.16572027  0.02200742  0.37447595  1
  In  In19  1  0.16104381  -0.00101450  0.86883891  1
  In  In20  1  0.16530328  0.32621051  0.38102379  1
  In  In21  1  0.18349153  0.31669073  0.89112339  1
  In  In22  1  0.16579808  0.65284506  0.37274848  1
  In  In23  1  0.16121269  0.67052092  0.88153543  1
  In  In24  1  0.49917281  -0.01842565  0.37671531  1
  In  In25  1  0.48474459  0.00238833  0.87724692  1
  In  In26  1  0.49908202  0.34061755  0.36437937  1
  In  In27  1  0.49326157  0.34727770  0.88145405  1
  In  In28  1  0.50494397  0.68026461  0.37390664  1
  In  In29  1  0.50374458  0.65970105  0.87625490  1
  In  In30  1  0.84092605  -0.01181954  0.37818145  1
  In  In31  1  0.84196275  -0.01382104  0.88082745  1
  In  In32  1  0.81705583  0.34614544  0.39729176  1
  In  In33  1  0.82290560  0.32341006  0.87806083  1
  In  In34  1  0.83286596  0.65665824  0.38821650  1
  In  In35  1  0.84457514  0.67957709  0.86370151  1
  In  In36  1  0.00595611  0.16539941  0.38092200  1
  In  In37  1  0.01345972  0.14995024  0.87594163  1
  In  In38  1  -0.00233283  0.49137379  0.38776585  1
  In  In39  1  0.00205719  0.51266906  0.87331176  1
  In  In40  1  -0.01265328  0.83320996  0.37506760  1
  In  In41  1  -0.00012321  0.83444103  0.87188269  1
  In  In42  1  0.31728493  0.17390997  0.37422328  1
  In  In43  1  0.31687710  0.15993911  0.86370731  1
  In  In44  1  0.32171863  0.49332390  0.36717271  1
  In  In45  1  0.33575541  0.49012117  0.88370803  1
  In  In46  1  0.34787360  0.83313854  0.37376986  1
  In  In47  1  0.31936205  0.84009769  0.88386249  1
  In  In48  1  0.67103793  0.18240212  0.37345493  1
  In  In49  1  0.67144240  0.16617019  0.88142318  1
  In  In50  1  0.67793455  0.48819347  0.37791767  1
  In  In51  1  0.65329098  0.50307698  0.87485900  1
  In  In52  1  0.66912078  0.81869918  0.38912601  1
  In  In53  1  0.68010532  0.82674523  0.88205743  1
  In  In54  1  0.16217180  -0.00517438  0.11850973  1
  In  In55  1  0.15010430  0.01683539  0.64734335  1
  In  In56  1  0.18554552  0.34742892  0.10244909  1
  In  In57  1  0.16765477  0.33718657  0.62010636  1
  In  In58  1  0.17726452  0.68040221  0.11861965  1
  In  In59  1  0.16325843  0.64716118  0.62552544  1
  In  In60  1  0.51267338  -0.00661178  0.11705002  1
  In  In61  1  0.50061528  -0.00504192  0.62932354  1
  In  In62  1  0.48291789  0.34929816  0.13359329  1
  In  In63  1  0.49494157  0.32495917  0.62591460  1
  In  In64  1  0.49972698  0.65666634  0.11653252  1
  In  In65  1  0.49595297  0.68293517  0.62718992  1
  In  In66  1  0.84656097  0.01438113  0.11600502  1
  In  In67  1  0.84561048  0.00448511  0.61746066  1
  In  In68  1  0.84352570  0.32212800  0.13156630  1
  In  In69  1  0.85695903  0.34920090  0.59273687  1
  In  In70  1  0.82103876  0.66907592  0.12704885  1
  In  In71  1  0.83188903  0.67085519  0.62616946  1
  In  In72  1  0.49676741  0.16693646  0.00132945  1
  In  In73  1  -0.00036306  0.32687681  0.25537379  1
  In  In74  1  0.33332542  0.00624695  0.25073610  1
  In  In75  1  0.16908302  0.83639643  0.50758003  1
  In  In76  1  0.66778898  -0.00079733  0.74979128  1
  In  In77  1  0.66990313  -0.00060420  0.24058691  1
  In  In78  1  0.83469011  0.50069961  0.00443745  1
  In  In79  1  0.00523485  0.33440554  0.74515523  1
  In  In80  1  0.32970249  0.66809821  0.74927830  1
  In  In81  1  0.66560588  0.66251715  0.25496504  1
  In  In82  1  0.00057614  0.66357118  0.25970228  1
  In  In83  1  0.50620851  0.16162027  0.50057576  1
  In  In84  1  0.50502839  0.50782646  0.49203993  1
  In  In85  1  0.66755837  0.33366629  0.74204429  1
  Cu  Cu86  1  0.00694779  0.00009714  0.50409968  1
  Cu  Cu87  1  0.83051764  0.50645105  0.74672482  1
  Cu  Cu88  1  0.49462457  0.17469983  0.25191736  1
  Cu  Cu89  1  0.83277984  0.83263767  0.74969239  1
  Cu  Cu90  1  0.67055491  0.66549785  -0.00351489  1
  Cu  Cu91  1  0.67044975  -0.00419534  0.50297705  1
  Cu  Cu92  1  0.17244966  0.50064191  0.24473461  1
  Cu  Cu93  1  -0.00377397  0.66269333  0.50272325  1
  Cu  Cu94  1  0.33302002  0.00595762  0.50154698  1
  Cu  Cu95  1  0.49600728  0.17493257  0.75608399  1
  Cu  Cu96  1  0.66726319  0.32905160  0.00345671  1
  Cu  Cu97  1  0.84096958  0.16518979  0.74527260  1
  Cu  Cu98  1  0.00047666  -0.00161713  -0.00460517  1
  Cu  Cu99  1  0.17123706  0.83859526  0.24302897  1
  Cu  Cu100  1  0.49805374  0.50152707  0.75344211  1
  Cu  Cu101  1  0.50347302  0.82633680  0.24619981  1
  Cu  Cu102  1  0.16150110  0.17671471  0.24875230  1
  Cu  Cu103  1  0.33134537  0.33282917  0.49888260  1
  Cu  Cu104  1  0.16588338  0.49361546  0.75010288  1
  Cu  Cu105  1  0.32753756  -0.00355683  -0.00364017  1
  Cu  Cu106  1  0.16316803  0.82852812  0.75724091  1
  Cu  Cu107  1  0.32965629  0.66560862  0.50286877  1
  Cu  Cu108  1  -0.00340549  0.32781923  0.00146504  1
  Cu  Cu109  1  0.33777272  0.66254509  -0.00181091  1
  Cu  Cu110  1  0.50032610  0.83400100  0.75225750  1
  Cu  Cu111  1  0.49206455  0.49948694  0.24538549  1
  Cu  Cu112  1  -0.00257924  0.67378912  -0.00342366  1
  Cu  Cu113  1  0.83882555  0.83578032  0.25012693  1
  Cu  Cu114  1  0.83705254  0.16650838  0.25073825  1
  Se  Se115  1  0.08211870  0.08181872  0.05185850  1
  Se  Se116  1  0.09150713  0.08028950  0.55790090  1
  Se  Se117  1  0.07882284  0.41944129  0.04682666  1
  Se  Se118  1  0.07493847  0.40871573  0.55482559  1
  Se  Se119  1  0.08289639  0.75368763  0.05324354  1
  Se  Se120  1  0.07693259  0.74299725  0.56318054  1
  Se  Se121  1  0.40518879  0.07438549  0.06178640  1
  Se  Se122  1  0.41150487  0.08506744  0.56491902  1
  Se  Se123  1  0.41567903  0.41442563  0.05095928  1
  Se  Se124  1  0.41405057  0.41532452  0.55525688  1
  Se  Se125  1  0.42116072  0.74766184  0.05133742  1
  Se  Se126  1  0.40853605  0.75255115  0.55479632  1
  Se  Se127  1  0.73033747  0.06411167  0.05981036  1
  Se  Se128  1  0.75492662  0.08194612  0.55066468  1
  Se  Se129  1  0.74691264  0.40938367  0.06567008  1
  Se  Se130  1  0.74023503  0.41080272  0.54676572  1
  Se  Se131  1  0.75650359  0.74766668  0.04816126  1
  Se  Se132  1  0.75894880  0.75666664  0.55409010  1
  Se  Se133  1  0.24292241  0.23886679  0.04283152  1
  Se  Se134  1  0.25575753  0.24828407  0.55746780  1
  Se  Se135  1  0.25092556  0.58544818  0.05440547  1
  Se  Se136  1  0.24256518  0.57896352  0.54692546  1
  Se  Se137  1  0.24911136  0.91179302  0.05396424  1
  Se  Se138  1  0.25125735  0.93247521  0.56639263  1
  Se  Se139  1  0.58229441  0.25644687  0.06587983  1
  Se  Se140  1  0.59326224  0.25721267  0.55798723  1
  Se  Se141  1  0.58939600  0.57879768  0.04885003  1
  Se  Se142  1  0.58356963  0.59286790  0.56220340  1
  Se  Se143  1  0.57112886  0.90436010  0.04327691  1
  Se  Se144  1  0.58077732  0.91997238  0.55604052  1
  Se  Se145  1  0.91249346  0.24500344  0.05351613  1
  Se  Se146  1  0.91430229  0.23256893  0.54554140  1
  Se  Se147  1  0.92584639  0.59261907  0.06383951  1
  Se  Se148  1  0.91340974  0.58200726  0.55873828  1
  Se  Se149  1  0.91779928  0.91650693  0.05202574  1
  Se  Se150  1  0.92023143  0.91252502  0.54930266  1
  Se  Se151  1  0.08487879  0.24815440  0.45029355  1
  Se  Se152  1  0.07846241  0.24427286  0.94693629  1
  Se  Se153  1  0.08221066  0.58449565  0.44726036  1
  Se  Se154  1  0.08028936  0.58404091  0.95015102  1
  Se  Se155  1  0.08403430  0.92104435  0.43870413  1
  Se  Se156  1  0.08421150  0.91485000  0.94145949  1
  Se  Se157  1  0.41570694  0.25468649  0.43990853  1
  Se  Se158  1  0.40808891  0.24760216  0.93583907  1
  Se  Se159  1  0.40530191  0.59059784  0.43514393  1
  Se  Se160  1  0.42135550  0.57873852  0.94572100  1
  Se  Se161  1  0.41263097  0.91680779  0.45181451  1
  Se  Se162  1  0.41579904  0.91316994  0.94867167  1
  Se  Se163  1  0.75575804  0.23435292  0.45272318  1
  Se  Se164  1  0.75182052  0.24399447  0.95459668  1
  Se  Se165  1  0.72227994  0.59729579  0.44330639  1
  Se  Se166  1  0.75320828  0.58709672  0.93551448  1
  Se  Se167  1  0.75223400  0.91278789  0.44709279  1
  Se  Se168  1  0.74675584  0.92205606  0.94853876  1
  Se  Se169  1  0.24974631  0.08976496  0.44984105  1
  Se  Se170  1  0.24718816  0.07840118  0.94014494  1
  Se  Se171  1  0.24952470  0.41683949  0.44465292  1
  Se  Se172  1  0.23557223  0.42882732  0.94951187  1
  Se  Se173  1  0.25243096  0.74771069  0.43946634  1
  Se  Se174  1  0.24836548  0.74655791  0.95083486  1
  Se  Se175  1  0.59276783  0.07155380  0.43590781  1
  Se  Se176  1  0.58631613  0.07450304  0.94301359  1
  Se  Se177  1  0.58692934  0.40129738  0.44374183  1
  Se  Se178  1  0.58812596  0.41511636  0.94948215  1
  Se  Se179  1  0.56753158  0.75741984  0.45316500  1
  Se  Se180  1  0.58498201  0.74630563  0.94315888  1
  Se  Se181  1  0.92245327  0.07499095  0.44416834  1
  Se  Se182  1  0.91612991  0.08372084  0.94383806  1
  Se  Se183  1  0.91692625  0.41505915  0.45895114  1
  Se  Se184  1  0.91898376  0.41008934  0.93920181  1
  Se  Se185  1  0.91709563  0.74835259  0.44802418  1
  Se  Se186  1  0.91364277  0.75501245  0.94328236  1
  Se  Se187  1  0.24631936  0.25876613  0.30146706  1
  Se  Se188  1  0.24737411  0.26040225  0.80238638  1
  Se  Se189  1  0.25236727  0.58802989  0.29768361  1
  Se  Se190  1  0.24476983  0.57699174  0.81126863  1
  Se  Se191  1  0.24516687  0.91551498  0.31258173  1
  Se  Se192  1  0.25045800  0.91314437  0.80372827  1
  Se  Se193  1  0.58501436  0.25383247  0.30130214  1
  Se  Se194  1  0.58226649  0.25090865  0.81338685  1
  Se  Se195  1  0.57277041  0.57167614  0.31195452  1
  Se  Se196  1  0.58438072  0.58678411  0.79957314  1
  Se  Se197  1  0.58836940  0.90374597  0.30559850  1
  Se  Se198  1  0.57965623  0.91370326  0.81414916  1
  Se  Se199  1  0.90678858  0.24658977  0.31825453  1
  Se  Se200  1  0.91486486  0.24650276  0.80957199  1
  Se  Se201  1  0.90963193  0.57061817  0.31415431  1
  Se  Se202  1  0.91875611  0.58383968  0.79964898  1
  Se  Se203  1  0.92284432  0.92073327  0.29984162  1
  Se  Se204  1  0.91680310  0.91734717  0.80130218  1
  Se  Se205  1  0.08053028  0.09046323  0.30050109  1
  Se  Se206  1  0.08596112  0.08260882  0.79619234  1
  Se  Se207  1  0.08991429  0.42655415  0.30881404  1
  Se  Se208  1  0.08864518  0.41682945  0.81490018  1
  Se  Se209  1  0.09448404  0.76187020  0.31057295  1
  Se  Se210  1  0.07984699  0.74212857  0.80608590  1
  Se  Se211  1  0.42494430  0.09009583  0.31602884  1
  Se  Se212  1  0.41521406  0.08338710  0.80218426  1
  Se  Se213  1  0.40806984  0.41496929  0.29822274  1
  Se  Se214  1  0.41420060  0.41880038  0.80485217  1
  Se  Se215  1  0.41679001  0.74731833  0.29939674  1
  Se  Se216  1  0.41693733  0.75599662  0.81265020  1
  Se  Se217  1  0.75441383  0.08358543  0.30870601  1
  Se  Se218  1  0.75898141  0.08994473  0.80822653  1
  Se  Se219  1  0.75514510  0.40638513  0.30854878  1
  Se  Se220  1  0.75470624  0.42379069  0.80838767  1
  Se  Se221  1  0.76130187  0.75462204  0.31048964  1
  Se  Se222  1  0.74504692  0.75071895  0.80023330  1
  Se  Se223  1  0.24304270  0.09331902  0.18956345  1
  Se  Se224  1  0.26865887  0.06537647  0.70036700  1
  Se  Se225  1  0.24983172  0.41627079  0.18788254  1
  Se  Se226  1  0.24941284  0.41305271  0.69567006  1
  Se  Se227  1  0.25561281  0.75226151  0.19638621  1
  Se  Se228  1  0.23829636  0.75503424  0.68717462  1
  Se  Se229  1  0.57148362  0.09329091  0.19099981  1
  Se  Se230  1  0.57815732  0.09860249  0.69375989  1
  Se  Se231  1  0.58311101  0.41659326  0.19881391  1
  Se  Se232  1  0.57631517  0.42767400  0.68619667  1
  Se  Se233  1  0.58769946  0.75240566  0.18504871  1
  Se  Se234  1  0.58415133  0.75468347  0.69771761  1
  Se  Se235  1  0.92040925  0.08605099  0.19554282  1
  Se  Se236  1  0.92308000  0.08150157  0.69231979  1
  Se  Se237  1  0.91063317  0.42472261  0.19871455  1
  Se  Se238  1  0.90620876  0.41976114  0.68786574  1
  Se  Se239  1  0.91747439  0.75151229  0.19117776  1
  Se  Se240  1  0.91770886  0.74751055  0.69822951  1
  Se  Se241  1  0.09093706  0.25836787  0.18268405  1
  Se  Se242  1  0.09492061  0.24041943  0.69105424  1
  Se  Se243  1  0.08877555  0.58334439  0.18934628  1
  Se  Se244  1  0.08015804  0.57902097  0.70132332  1
  Se  Se245  1  0.08438160  0.92319971  0.19709292  1
  Se  Se246  1  0.07935854  0.91075035  0.70226798  1
  Se  Se247  1  0.40823307  0.25365248  0.19865307  1
  Se  Se248  1  0.41429875  0.26037454  0.70362444  1
  Se  Se249  1  0.41580928  0.58753154  0.19154347  1
  Se  Se250  1  0.41710729  0.57654334  0.68746245  1
  Se  Se251  1  0.42502680  0.91543704  0.19166326  1
  Se  Se252  1  0.41749878  0.91988950  0.70242878  1
  Se  Se253  1  0.75158767  0.24990668  0.20019483  1
  Se  Se254  1  0.76707079  0.25089915  0.68620350  1
  Se  Se255  1  0.75928277  0.57135791  0.19847820  1
  Se  Se256  1  0.74547344  0.58861158  0.69587736  1
  Se  Se257  1  0.76050633  0.90762574  0.18416852  1
  Se  Se258  1  0.75616007  0.91396064  0.68613742  1
