# generated using pymatgen
data_In86Cu29Se144
_symmetry_space_group_name_H-M   'P 1'
_cell_length_a   17.61402408
_cell_length_b   17.60897239
_cell_length_c   23.47361946
_cell_angle_alpha   90.01372677
_cell_angle_beta   90.01454906
_cell_angle_gamma   90.00205095
_symmetry_Int_Tables_number   1
_chemical_formula_structural   In86Cu29Se144
_chemical_formula_sum   'In86 Cu29 Se144'
_cell_volume   7280.69153309
_cell_formula_units_Z   1
loop_
 _symmetry_equiv_pos_site_id
 _symmetry_equiv_pos_as_xyz
  1  'x, y, z'
loop_
 _atom_site_type_symbol
 _atom_site_label
 _atom_site_symmetry_multiplicity
 _atom_site_fract_x
 _atom_site_fract_y
 _atom_site_fract_z
 _atom_site_occupancy
  In  In0  1  0.00631075  0.17933702  0.12514904  1
  In  In1  1  -0.00046822  0.18615972  0.62598473  1
  In  In2  1  -0.00449255  0.50551633  0.13010264  1
  In  In3  1  -0.00930171  0.49409546  0.61342533  1
  In  In4  1  -0.01570927  0.82445710  0.12759481  1
  In  In5  1  -0.00247815  0.82604557  0.61460115  1
  In  In6  1  0.32615404  0.17248302  0.13402303  1
  In  In7  1  0.32562796  0.16014931  0.62753557  1
  In  In8  1  0.32243521  0.50749869  0.13718650  1
  In  In9  1  0.34424219  0.51058407  0.60975326  1
  In  In10  1  0.34613330  0.82130139  0.12977514  1
  In  In11  1  0.33033270  0.83411780  0.62696117  1
  In  In12  1  0.67483330  0.17288002  0.12360703  1
  In  In13  1  0.68019633  0.15886142  0.62917732  1
  In  In14  1  0.66554656  0.50255642  0.13120859  1
  In  In15  1  0.66957859  0.49957047  0.62425985  1
  In  In16  1  0.65048581  0.82577918  0.11163846  1
  In  In17  1  0.67179258  0.83098168  0.62969294  1
  In  In18  1  0.16946588  -0.01356589  0.37727994  1
  In  In19  1  0.16996955  -0.01525087  0.87263830  1
  In  In20  1  0.18315996  0.36812412  0.35024011  1
  In  In21  1  0.16345590  0.34911550  0.87878180  1
  In  In22  1  0.16919407  0.65996258  0.36844770  1
  In  In23  1  0.15947073  0.65021371  0.87444863  1
  In  In24  1  0.50017138  0.00723626  0.37744746  1
  In  In25  1  0.49569008  -0.00584672  0.86956791  1
  In  In26  1  0.50721083  0.33577456  0.37191887  1
  In  In27  1  0.49867186  0.32598605  0.87529647  1
  In  In28  1  0.48469250  0.65004035  0.36623941  1
  In  In29  1  0.51309863  0.67855531  0.87013341  1
  In  In30  1  0.83187647  0.00079057  0.39410737  1
  In  In31  1  0.82302231  -0.00566897  0.86399236  1
  In  In32  1  0.83236972  0.33965522  0.36990672  1
  In  In33  1  0.84026255  0.34264687  0.86759311  1
  In  In34  1  0.83156736  0.66249999  0.37309222  1
  In  In35  1  0.80462509  0.65786571  0.87229150  1
  In  In36  1  -0.01237193  0.17709770  0.38080142  1
  In  In37  1  -0.01456712  0.17503258  0.87410513  1
  In  In38  1  -0.00256042  0.50369094  0.36548998  1
  In  In39  1  0.00291644  0.49287802  0.87911548  1
  In  In40  1  0.00627719  0.82390556  0.38410089  1
  In  In41  1  -0.00477364  0.83272079  0.87402711  1
  In  In42  1  0.33920879  0.16958429  0.37123921  1
  In  In43  1  0.34107323  0.16322731  0.87272733  1
  In  In44  1  0.33109629  0.49764023  0.37547537  1
  In  In45  1  0.31704882  0.50186960  0.87808854  1
  In  In46  1  0.32358158  0.81953969  0.36677120  1
  In  In47  1  0.34121853  0.83508419  0.86884053  1
  In  In48  1  0.67017420  0.17523743  0.37926744  1
  In  In49  1  0.66867849  0.17193806  0.86449046  1
  In  In50  1  0.66871947  0.49822745  0.37132021  1
  In  In51  1  0.67720432  0.50762331  0.86876904  1
  In  In52  1  0.68146697  0.82426132  0.38593581  1
  In  In53  1  0.65653477  0.82274841  0.86640004  1
  In  In54  1  0.16745027  0.01372145  0.12768898  1
  In  In55  1  0.18144119  -0.00272977  0.62527434  1
  In  In56  1  0.13341006  0.37614502  0.16700412  1
  In  In57  1  0.15841609  0.33513964  0.62107461  1
  In  In58  1  0.17300054  0.65537035  0.13661411  1
  In  In59  1  0.17233424  0.67163386  0.61592135  1
  In  In60  1  0.50009551  -0.01615522  0.12153171  1
  In  In61  1  0.50520630  -0.00146967  0.63329018  1
  In  In62  1  0.49368874  0.33469607  0.13460345  1
  In  In63  1  0.50240287  0.35500252  0.61865621  1
  In  In64  1  0.49935494  0.66985732  0.12549568  1
  In  In65  1  0.50763622  0.65883096  0.62852630  1
  In  In66  1  0.82511926  0.00022946  0.12387005  1
  In  In67  1  0.81391565  -0.01291257  0.60450051  1
  In  In68  1  0.80553344  0.37265582  0.16584264  1
  In  In69  1  0.83522031  0.33604907  0.62071825  1
  In  In70  1  0.85452809  0.64501840  0.15182537  1
  In  In71  1  0.82746918  0.66283231  0.61722375  1
  In  In72  1  0.00331594  -0.00429437  0.25240372  1
  In  In73  1  0.16039813  0.17619287  0.49860525  1
  In  In74  1  0.50103126  0.82910678  0.50703608  1
  In  In75  1  0.49750843  0.16473968  -0.00711329  1
  In  In76  1  -0.00439847  0.66349131  0.74160190  1
  In  In77  1  0.82071718  0.81657230  -0.00976937  1
  In  In78  1  0.00017691  0.00845696  0.74857075  1
  In  In79  1  0.17005935  0.17529394  0.00088249  1
  In  In80  1  0.51034328  0.16967316  0.49689951  1
  In  In81  1  0.17578789  0.82088152  0.01199050  1
  In  In82  1  0.66149503  -0.00342670  0.24825037  1
  In  In83  1  0.33462910  0.33436078  0.74884986  1
  In  In84  1  0.50550445  0.50668853  0.00169284  1
  In  In85  1  0.83540285  0.17246748  0.00517350  1
  Cu  Cu86  1  0.00446120  0.34364797  0.49110616  1
  Cu  Cu87  1  0.16715869  0.16604788  0.74674836  1
  Cu  Cu88  1  -0.00008398  0.66444940  0.49182726  1
  Cu  Cu89  1  0.32540493  0.66139389  0.49073948  1
  Cu  Cu90  1  0.83286132  0.49841780  0.74283253  1
  Cu  Cu91  1  -0.00532495  0.65218966  0.00429239  1
  Cu  Cu92  1  0.17185490  0.83577591  0.25235692  1
  Cu  Cu93  1  0.66196929  0.65855184  0.50046739  1
  Cu  Cu94  1  -0.00464804  0.34352403  0.01031233  1
  Cu  Cu95  1  0.32111314  0.34204412  0.01096794  1
  Cu  Cu96  1  0.49930661  0.50040966  0.25167817  1
  Cu  Cu97  1  -0.00535831  -0.00579265  -0.00295454  1
  Cu  Cu98  1  0.83297506  0.83080476  0.25910914  1
  Cu  Cu99  1  0.33647235  0.66607276  0.00423844  1
  Cu  Cu100  1  0.50071936  0.50460817  0.74585625  1
  Cu  Cu101  1  0.17189086  0.16099763  0.25663694  1
  Cu  Cu102  1  0.67207350  0.33860098  0.00558677  1
  Cu  Cu103  1  0.00531829  -0.00040821  0.49984093  1
  Cu  Cu104  1  0.49638635  0.83208944  0.74820943  1
  Cu  Cu105  1  0.83134124  0.16501325  0.25209931  1
  Cu  Cu106  1  0.67481282  0.33958584  0.49781116  1
  Cu  Cu107  1  0.83729884  0.17467946  0.74506414  1
  Cu  Cu108  1  0.49609786  0.16447365  0.25292613  1
  Cu  Cu109  1  0.17156476  0.83085552  0.74596478  1
  Cu  Cu110  1  0.16802852  0.50018699  0.75024857  1
  Cu  Cu111  1  0.33872500  -0.00439534  -0.00145035  1
  Cu  Cu112  1  0.33323119  -0.00688853  0.50175214  1
  Cu  Cu113  1  0.50393558  0.83240580  0.24942203  1
  Cu  Cu114  1  0.50270138  0.16823647  0.74891846  1
  Se  Se115  1  0.07167865  0.07831556  0.05303875  1
  Se  Se116  1  0.08114306  0.08047209  0.56374997  1
  Se  Se117  1  0.08376270  0.41707249  0.06678593  1
  Se  Se118  1  0.08760447  0.42100374  0.54896996  1
  Se  Se119  1  0.07244478  0.73704726  0.06215871  1
  Se  Se120  1  0.08302593  0.74717799  0.54743484  1
  Se  Se121  1  0.40828819  0.08334311  0.05994606  1
  Se  Se122  1  0.41451141  0.07756611  0.55761698  1
  Se  Se123  1  0.41302632  0.41851919  0.06176383  1
  Se  Se124  1  0.41090604  0.41141055  0.54608464  1
  Se  Se125  1  0.42247672  0.75154070  0.05119752  1
  Se  Se126  1  0.40579147  0.73574406  0.55764597  1
  Se  Se127  1  0.73730707  0.07495601  0.05139254  1
  Se  Se128  1  0.76346821  0.10263783  0.54930608  1
  Se  Se129  1  0.75161413  0.41423132  0.06677533  1
  Se  Se130  1  0.75570879  0.42338673  0.55294297  1
  Se  Se131  1  0.76287247  0.73989173  0.07447022  1
  Se  Se132  1  0.74077603  0.74806037  0.55288124  1
  Se  Se133  1  0.24277127  0.26301977  0.07011234  1
  Se  Se134  1  0.25978458  0.25645936  0.55824071  1
  Se  Se135  1  0.25211572  0.58576341  0.05847921  1
  Se  Se136  1  0.24283559  0.57915724  0.54697466  1
  Se  Se137  1  0.25850226  0.92455376  0.06388755  1
  Se  Se138  1  0.24838642  0.90944897  0.55226075  1
  Se  Se139  1  0.58368599  0.25765257  0.05683414  1
  Se  Se140  1  0.59450746  0.25993376  0.56019348  1
  Se  Se141  1  0.59776318  0.59558392  0.05718948  1
  Se  Se142  1  0.57900710  0.57552641  0.55446812  1
  Se  Se143  1  0.58557224  0.92290362  0.04686244  1
  Se  Se144  1  0.59024882  0.92533936  0.55871678  1
  Se  Se145  1  0.91351020  0.26516648  0.06800635  1
  Se  Se146  1  0.92497208  0.26028164  0.54926820  1
  Se  Se147  1  0.90629456  0.57903413  0.06005866  1
  Se  Se148  1  0.91493088  0.58589565  0.54872246  1
  Se  Se149  1  0.91286858  0.91586432  0.05443116  1
  Se  Se150  1  0.91876770  0.91432741  0.54853430  1
  Se  Se151  1  0.08826054  0.26823905  0.43007873  1
  Se  Se152  1  0.06862860  0.26104178  0.94587458  1
  Se  Se153  1  0.08201567  0.58113899  0.43726756  1
  Se  Se154  1  0.08421757  0.57557882  0.95023372  1
  Se  Se155  1  0.08751585  0.91371504  0.44973384  1
  Se  Se156  1  0.08227898  0.91186379  0.94826085  1
  Se  Se157  1  0.41351359  0.25661944  0.44369196  1
  Se  Se158  1  0.39685493  0.26364565  0.94727769  1
  Se  Se159  1  0.41682346  0.57765360  0.44728210  1
  Se  Se160  1  0.41239390  0.58931009  0.93851790  1
  Se  Se161  1  0.41240416  0.91410378  0.43977005  1
  Se  Se162  1  0.41818201  0.91378995  0.94314680  1
  Se  Se163  1  0.75682649  0.25510749  0.44451894  1
  Se  Se164  1  0.74614598  0.25814755  0.94115964  1
  Se  Se165  1  0.74769258  0.58155908  0.44328385  1
  Se  Se166  1  0.75412514  0.57041053  0.94992906  1
  Se  Se167  1  0.74683137  0.91532860  0.45505851  1
  Se  Se168  1  0.74081198  0.92020895  0.93777572  1
  Se  Se169  1  0.25559557  0.08015812  0.44390744  1
  Se  Se170  1  0.25493862  0.07446206  0.94205595  1
  Se  Se171  1  0.24520122  0.41483506  0.44199580  1
  Se  Se172  1  0.24231427  0.42327113  0.95325092  1
  Se  Se173  1  0.24347785  0.74882682  0.44222032  1
  Se  Se174  1  0.25485981  0.74054672  0.93889324  1
  Se  Se175  1  0.60035886  0.07146552  0.44551321  1
  Se  Se176  1  0.59056858  0.08040982  0.93425446  1
  Se  Se177  1  0.58676076  0.41636290  0.44323308  1
  Se  Se178  1  0.58856931  0.41016011  0.94162257  1
  Se  Se179  1  0.57949656  0.73717078  0.44012306  1
  Se  Se180  1  0.59746514  0.74073280  0.94616538  1
  Se  Se181  1  0.92175382  0.08803315  0.45316806  1
  Se  Se182  1  0.91479258  0.07398286  0.93871574  1
  Se  Se183  1  0.91655334  0.42250470  0.43791415  1
  Se  Se184  1  0.91331096  0.41593092  0.94695132  1
  Se  Se185  1  0.90956405  0.74834241  0.44550800  1
  Se  Se186  1  0.92464764  0.73207548  0.93740443  1
  Se  Se187  1  0.25195495  0.25004748  0.30538235  1
  Se  Se188  1  0.24156220  0.24682357  0.81305320  1
  Se  Se189  1  0.26395499  0.58811525  0.30367344  1
  Se  Se190  1  0.25013691  0.58513397  0.80167094  1
  Se  Se191  1  0.25504872  0.92129333  0.30226023  1
  Se  Se192  1  0.25347084  0.91537940  0.80026752  1
  Se  Se193  1  0.58424210  0.24282409  0.30547763  1
  Se  Se194  1  0.58113874  0.25634426  0.80126687  1
  Se  Se195  1  0.58517965  0.58332033  0.30287909  1
  Se  Se196  1  0.58410410  0.58299096  0.80376020  1
  Se  Se197  1  0.58079954  0.90698846  0.31537481  1
  Se  Se198  1  0.58096243  0.91572774  0.80081375  1
  Se  Se199  1  0.91439756  0.24936034  0.30273798  1
  Se  Se200  1  0.92163619  0.25734544  0.79803039  1
  Se  Se201  1  0.91573897  0.59080326  0.30001126  1
  Se  Se202  1  0.91163156  0.57715721  0.80829929  1
  Se  Se203  1  0.91011077  0.91618208  0.31687117  1
  Se  Se204  1  0.91244250  0.90710979  0.79978215  1
  Se  Se205  1  0.08554147  0.08720623  0.31666447  1
  Se  Se206  1  0.09127476  0.09305239  0.81620048  1
  Se  Se207  1  0.06638210  0.41119639  0.29154673  1
  Se  Se208  1  0.08249987  0.41797014  0.80277339  1
  Se  Se209  1  0.08693718  0.75644307  0.30713655  1
  Se  Se210  1  0.08830894  0.75445541  0.80603006  1
  Se  Se211  1  0.41578086  0.07793764  0.30470983  1
  Se  Se212  1  0.41765558  0.08480377  0.80128541  1
  Se  Se213  1  0.41891035  0.41595938  0.30641729  1
  Se  Se214  1  0.42170208  0.42697224  0.81085334  1
  Se  Se215  1  0.41717097  0.74839138  0.30033377  1
  Se  Se216  1  0.41663188  0.74494117  0.80189839  1
  Se  Se217  1  0.75581996  0.07979436  0.31117787  1
  Se  Se218  1  0.75510439  0.09059884  0.79846866  1
  Se  Se219  1  0.74739077  0.41536212  0.29879413  1
  Se  Se220  1  0.74955848  0.41601128  0.79971697  1
  Se  Se221  1  0.74447548  0.74741906  0.30517346  1
  Se  Se222  1  0.76389573  0.76292574  0.80495917  1
  Se  Se223  1  0.25283056  0.07858796  0.20149674  1
  Se  Se224  1  0.25199838  0.07897058  0.70152052  1
  Se  Se225  1  0.26781705  0.40368029  0.20293604  1
  Se  Se226  1  0.24884458  0.42353453  0.68687701  1
  Se  Se227  1  0.25200035  0.75194784  0.19642905  1
  Se  Se228  1  0.25052919  0.74374691  0.69319643  1
  Se  Se229  1  0.57473520  0.09011585  0.18635436  1
  Se  Se230  1  0.58823300  0.08560473  0.69692300  1
  Se  Se231  1  0.58124912  0.41621199  0.19755688  1
  Se  Se232  1  0.58465598  0.41923397  0.69603550  1
  Se  Se233  1  0.58677586  0.75124795  0.19386492  1
  Se  Se234  1  0.58219903  0.75048765  0.69472078  1
  Se  Se235  1  0.91200302  0.08646287  0.19057192  1
  Se  Se236  1  0.91207514  0.09080361  0.68406811  1
  Se  Se237  1  0.93973446  0.40133753  0.20167009  1
  Se  Se238  1  0.92019043  0.41712447  0.69173707  1
  Se  Se239  1  0.92416711  0.75127102  0.21043494  1
  Se  Se240  1  0.90622927  0.75778819  0.68806169  1
  Se  Se241  1  0.08878532  0.24084579  0.20108355  1
  Se  Se242  1  0.08773453  0.25520045  0.69827891  1
  Se  Se243  1  0.07922552  0.58505645  0.20019784  1
  Se  Se244  1  0.08910636  0.57553449  0.68492803  1
  Se  Se245  1  0.08972116  0.90743514  0.18657131  1
  Se  Se246  1  0.08612276  0.91022212  0.68915964  1
  Se  Se247  1  0.41326581  0.24992277  0.20179497  1
  Se  Se248  1  0.42425346  0.24688132  0.68635774  1
  Se  Se249  1  0.42041531  0.58639882  0.19519582  1
  Se  Se250  1  0.41255463  0.58146289  0.69253150  1
  Se  Se251  1  0.41888686  0.91544697  0.19735841  1
  Se  Se252  1  0.41413232  0.91668473  0.69483324  1
  Se  Se253  1  0.74307256  0.24649600  0.20291324  1
  Se  Se254  1  0.75159955  0.25704401  0.69257553  1
  Se  Se255  1  0.75757130  0.56318946  0.20630630  1
  Se  Se256  1  0.75046119  0.58584193  0.69322429  1
  Se  Se257  1  0.75615854  0.90592996  0.19327204  1
  Se  Se258  1  0.74782643  0.92832565  0.69063997  1
