# generated using pymatgen
data_In86Cu29Se144
_symmetry_space_group_name_H-M   'P 1'
_cell_length_a   17.58143609
_cell_length_b   17.58141531
_cell_length_c   23.44778735
_cell_angle_alpha   89.99317631
_cell_angle_beta   89.97463941
_cell_angle_gamma   90.00862344
_symmetry_Int_Tables_number   1
_chemical_formula_structural   In86Cu29Se144
_chemical_formula_sum   'In86 Cu29 Se144'
_cell_volume   7247.86333113
_cell_formula_units_Z   1
loop_
 _symmetry_equiv_pos_site_id
 _symmetry_equiv_pos_as_xyz
  1  'x, y, z'
loop_
 _atom_site_type_symbol
 _atom_site_label
 _atom_site_symmetry_multiplicity
 _atom_site_fract_x
 _atom_site_fract_y
 _atom_site_fract_z
 _atom_site_occupancy
  In  In0  1  0.00668360  0.17149094  0.13250303  1
  In  In1  1  -0.00350835  0.17346333  0.62183849  1
  In  In2  1  -0.01127183  0.51287340  0.13825748  1
  In  In3  1  -0.01373907  0.51689775  0.62307673  1
  In  In4  1  -0.00915006  0.82161980  0.11928783  1
  In  In5  1  -0.00152816  0.83743458  0.60814909  1
  In  In6  1  0.34855968  0.16408074  0.12033815  1
  In  In7  1  0.33235470  0.13051593  0.62236425  1
  In  In8  1  0.34293460  0.49103940  0.13025716  1
  In  In9  1  0.33087921  0.50030591  0.62635945  1
  In  In10  1  0.32151371  0.82255986  0.10096730  1
  In  In11  1  0.33327985  0.84905526  0.62496461  1
  In  In12  1  0.65696353  0.17362644  0.13169238  1
  In  In13  1  0.66465069  0.16936994  0.62348340  1
  In  In14  1  0.66559299  0.49903102  0.12463960  1
  In  In15  1  0.66940598  0.49907055  0.62867909  1
  In  In16  1  0.66680134  0.82895051  0.12741137  1
  In  In17  1  0.67416852  0.82982201  0.63615396  1
  In  In18  1  0.15449749  -0.01009380  0.38361362  1
  In  In19  1  0.17257107  -0.01778206  0.86645531  1
  In  In20  1  0.17471286  0.33998962  0.36491721  1
  In  In21  1  0.16974410  0.32092767  0.87843393  1
  In  In22  1  0.16908686  0.67649894  0.36601221  1
  In  In23  1  0.18096264  0.68582376  0.87314864  1
  In  In24  1  0.51188451  -0.00601003  0.37592465  1
  In  In25  1  0.50105715  -0.00546460  0.87895442  1
  In  In26  1  0.49653775  0.32788454  0.36697178  1
  In  In27  1  0.50772798  0.32643825  0.88460025  1
  In  In28  1  0.50253228  0.67108829  0.36330458  1
  In  In29  1  0.50633131  0.66259819  0.88977581  1
  In  In30  1  0.82596345  0.00941118  0.38764877  1
  In  In31  1  0.82209448  0.00159931  0.87206364  1
  In  In32  1  0.82906112  0.33171644  0.37401001  1
  In  In33  1  0.82715595  0.35119298  0.88033434  1
  In  In34  1  0.82498719  0.66156945  0.37259943  1
  In  In35  1  0.82175913  0.67538241  0.88534468  1
  In  In36  1  -0.01114628  0.16613701  0.38040901  1
  In  In37  1  0.00550975  0.16278672  0.87252541  1
  In  In38  1  -0.01692660  0.48968263  0.36571863  1
  In  In39  1  -0.00806139  0.49264089  0.88199428  1
  In  In40  1  0.00369361  0.83088260  0.38006498  1
  In  In41  1  0.00439187  0.82518905  0.87895932  1
  In  In42  1  0.33079506  0.17632363  0.37609799  1
  In  In43  1  0.34790841  0.16647203  0.87597293  1
  In  In44  1  0.33706256  0.50504238  0.36229015  1
  In  In45  1  0.34675521  0.51942656  0.88574128  1
  In  In46  1  0.33712895  0.82727050  0.37159440  1
  In  In47  1  0.32575165  0.84280591  0.90022008  1
  In  In48  1  0.66492046  0.16590567  0.37533993  1
  In  In49  1  0.64991745  0.15831579  0.86399186  1
  In  In50  1  0.68196067  0.51099299  0.36584604  1
  In  In51  1  0.66631768  0.50282249  0.87977892  1
  In  In52  1  0.66739728  0.83521081  0.36862274  1
  In  In53  1  0.66965795  0.83517157  0.87628403  1
  In  In54  1  0.18122110  -0.01331968  0.12064507  1
  In  In55  1  0.18323901  -0.01025773  0.63038708  1
  In  In56  1  0.16263419  0.33992867  0.13722592  1
  In  In57  1  0.15997950  0.32166345  0.62300982  1
  In  In58  1  0.15924744  0.67507380  0.13114194  1
  In  In59  1  0.15440624  0.67082179  0.62327828  1
  In  In60  1  0.49968557  0.00397791  0.11456802  1
  In  In61  1  0.49112054  0.01129058  0.62963498  1
  In  In62  1  0.50291856  0.33249679  0.12430006  1
  In  In63  1  0.51786270  0.33289818  0.62767440  1
  In  In64  1  0.49957359  0.66978484  0.12229183  1
  In  In65  1  0.50707508  0.68372529  0.62817674  1
  In  In66  1  0.83109007  -0.01959830  0.12471697  1
  In  In67  1  0.82045721  -0.01264236  0.61520201  1
  In  In68  1  0.81805348  0.34310511  0.13733859  1
  In  In69  1  0.82258445  0.32450016  0.61223262  1
  In  In70  1  0.83281590  0.66606367  0.12825677  1
  In  In71  1  0.81933591  0.66609171  0.61213808  1
  In  In72  1  0.33737781  0.00155347  0.24318808  1
  In  In73  1  -0.00320172  0.00170044  0.25810459  1
  In  In74  1  0.50229101  0.83758937  0.49415427  1
  In  In75  1  0.16207070  0.15778431  0.50000333  1
  In  In76  1  0.16739947  0.16102586  -0.00001448  1
  In  In77  1  0.15961588  0.50116082  0.48772788  1
  In  In78  1  -0.00731806  0.32737612  0.74143096  1
  In  In79  1  0.51072417  0.50329540  0.49911336  1
  In  In80  1  0.34541175  0.67531134  0.75721530  1
  In  In81  1  0.16695917  0.50914547  0.00221169  1
  In  In82  1  0.34437684  0.32351776  0.76090440  1
  In  In83  1  0.82767904  0.16716532  -0.00053068  1
  In  In84  1  -0.00175285  -0.00063630  0.73549745  1
  In  In85  1  -0.00535955  0.66959805  0.75352873  1
  Cu  Cu86  1  0.50125245  0.16606281  0.74887902  1
  Cu  Cu87  1  0.50457983  0.16663531  0.24728369  1
  Cu  Cu88  1  0.50411847  0.49724075  0.24370655  1
  Cu  Cu89  1  0.34336820  0.32549039  0.49844206  1
  Cu  Cu90  1  0.16501337  0.83654236  0.24526267  1
  Cu  Cu91  1  0.82431603  0.17510300  0.74709120  1
  Cu  Cu92  1  0.83689073  0.83187319  0.74918443  1
  Cu  Cu93  1  0.66442481  0.33325167  0.00518249  1
  Cu  Cu94  1  0.49841135  0.83031123  0.24317896  1
  Cu  Cu95  1  0.33611210  0.33618847  0.00391483  1
  Cu  Cu96  1  0.32617291  0.67037406  0.49237145  1
  Cu  Cu97  1  0.17074836  0.48703024  0.75418377  1
  Cu  Cu98  1  0.51152212  0.50563346  0.75553880  1
  Cu  Cu99  1  0.82175113  0.50308746  0.75034176  1
  Cu  Cu100  1  0.00290964  -0.00969800  -0.00086479  1
  Cu  Cu101  1  0.65935226  0.00334702  0.50189215  1
  Cu  Cu102  1  0.50838059  0.83996574  0.75652307  1
  Cu  Cu103  1  -0.01104331  0.66792034  0.49496080  1
  Cu  Cu104  1  0.66790948  0.33180717  0.49618446  1
  Cu  Cu105  1  0.16919783  0.17596101  0.25195576  1
  Cu  Cu106  1  -0.00404896  0.33762776  0.49698697  1
  Cu  Cu107  1  -0.01143840  0.34162541  0.00970985  1
  Cu  Cu108  1  0.16891612  0.50823423  0.24863663  1
  Cu  Cu109  1  0.00074724  0.66651466  0.00547791  1
  Cu  Cu110  1  0.83250342  0.49782903  0.24943447  1
  Cu  Cu111  1  0.66813921  -0.00134396  -0.00377221  1
  Cu  Cu112  1  0.83075830  0.16421778  0.25686965  1
  Cu  Cu113  1  0.82820488  0.82763897  0.25093562  1
  Cu  Cu114  1  0.67364488  0.66404239  0.00720972  1
  Se  Se115  1  0.07488071  0.07268364  0.06212152  1
  Se  Se116  1  0.08014038  0.07219602  0.56767871  1
  Se  Se117  1  0.07707767  0.41893588  0.06392080  1
  Se  Se118  1  0.07551619  0.41614171  0.55924526  1
  Se  Se119  1  0.08778092  0.75237835  0.05234283  1
  Se  Se120  1  0.08082222  0.74392614  0.54630856  1
  Se  Se121  1  0.40509954  0.07427082  0.04711516  1
  Se  Se122  1  0.42424177  0.08274759  0.54680784  1
  Se  Se123  1  0.42225350  0.41788809  0.05426308  1
  Se  Se124  1  0.41438179  0.41314290  0.55932654  1
  Se  Se125  1  0.44164948  0.77073153  0.05202329  1
  Se  Se126  1  0.40858391  0.74516649  0.55521196  1
  Se  Se127  1  0.74451467  0.07700292  0.06275815  1
  Se  Se128  1  0.74650906  0.08642494  0.55348885  1
  Se  Se129  1  0.75089930  0.41479124  0.05554947  1
  Se  Se130  1  0.74335446  0.42026118  0.55194638  1
  Se  Se131  1  0.75582154  0.75180206  0.05765426  1
  Se  Se132  1  0.75158588  0.77042482  0.55427956  1
  Se  Se133  1  0.24809350  0.25957125  0.06149421  1
  Se  Se134  1  0.25813281  0.24953864  0.55813191  1
  Se  Se135  1  0.25429904  0.58737064  0.06936500  1
  Se  Se136  1  0.25137764  0.58666026  0.55434229  1
  Se  Se137  1  0.25218039  0.92358976  0.03961466  1
  Se  Se138  1  0.24949848  0.91483993  0.55058746  1
  Se  Se139  1  0.58135149  0.24550997  0.05329721  1
  Se  Se140  1  0.58304326  0.25126637  0.55057143  1
  Se  Se141  1  0.58426672  0.58254114  0.05609068  1
  Se  Se142  1  0.59130705  0.59798532  0.56047972  1
  Se  Se143  1  0.59176998  0.91737312  0.05591515  1
  Se  Se144  1  0.58474313  0.92037170  0.56469431  1
  Se  Se145  1  0.91487397  0.25279112  0.06620877  1
  Se  Se146  1  0.91682716  0.24814420  0.54812812  1
  Se  Se147  1  0.91764013  0.58342155  0.05758057  1
  Se  Se148  1  0.90655595  0.58196114  0.54591077  1
  Se  Se149  1  0.91510920  0.91116304  0.05057771  1
  Se  Se150  1  0.90928555  0.91687558  0.54648863  1
  Se  Se151  1  0.08564272  0.26271129  0.43931363  1
  Se  Se152  1  0.06764424  0.25946346  0.94971774  1
  Se  Se153  1  0.06982768  0.59114532  0.43040867  1
  Se  Se154  1  0.07878062  0.59554985  0.93512076  1
  Se  Se155  1  0.07201283  0.91775604  0.45401916  1
  Se  Se156  1  0.08725553  0.91412974  0.94197866  1
  Se  Se157  1  0.42551777  0.24534911  0.44393791  1
  Se  Se158  1  0.41663753  0.24948258  0.95120398  1
  Se  Se159  1  0.41257873  0.58979981  0.43884992  1
  Se  Se160  1  0.41960576  0.58982860  0.96215978  1
  Se  Se161  1  0.40574980  0.92649968  0.43937740  1
  Se  Se162  1  0.44233295  0.89797194  0.95156056  1
  Se  Se163  1  0.75123669  0.24603711  0.44470568  1
  Se  Se164  1  0.73864776  0.25375048  0.93736755  1
  Se  Se165  1  0.74964186  0.58012442  0.44686665  1
  Se  Se166  1  0.75370040  0.57827089  0.95128388  1
  Se  Se167  1  0.73730164  0.91787346  0.44517865  1
  Se  Se168  1  0.75651343  0.91668077  0.94679836  1
  Se  Se169  1  0.25674068  0.07479987  0.43930433  1
  Se  Se170  1  0.25270568  0.07756564  0.93465652  1
  Se  Se171  1  0.26556997  0.41203693  0.44089613  1
  Se  Se172  1  0.25555086  0.41241307  0.94141977  1
  Se  Se173  1  0.24496245  0.75618373  0.44123728  1
  Se  Se174  1  0.26713314  0.72802934  0.95395055  1
  Se  Se175  1  0.57907318  0.08568768  0.44603666  1
  Se  Se176  1  0.58429702  0.08471809  0.94562308  1
  Se  Se177  1  0.59016486  0.41261839  0.43374253  1
  Se  Se178  1  0.58366014  0.41847582  0.94944266  1
  Se  Se179  1  0.58895109  0.74042278  0.43983303  1
  Se  Se180  1  0.59778264  0.74845389  0.94920920  1
  Se  Se181  1  0.93021783  0.07195134  0.44991346  1
  Se  Se182  1  0.92521128  0.07691942  0.94243019  1
  Se  Se183  1  0.90980727  0.41764322  0.44478107  1
  Se  Se184  1  0.90675394  0.42468627  0.95608545  1
  Se  Se185  1  0.90788215  0.74978483  0.43942584  1
  Se  Se186  1  0.91854525  0.74952222  0.94834709  1
  Se  Se187  1  0.26095078  0.25614046  0.29929899  1
  Se  Se188  1  0.24190902  0.23254248  0.80732318  1
  Se  Se189  1  0.25371043  0.59300137  0.29940133  1
  Se  Se190  1  0.24791692  0.57629575  0.80918428  1
  Se  Se191  1  0.24237326  0.91742874  0.30608675  1
  Se  Se192  1  0.26409893  0.89694681  0.80963747  1
  Se  Se193  1  0.58733488  0.24872457  0.30192662  1
  Se  Se194  1  0.57743091  0.25750420  0.80118075  1
  Se  Se195  1  0.58340765  0.58048258  0.30071007  1
  Se  Se196  1  0.58630580  0.59123032  0.81188155  1
  Se  Se197  1  0.57893760  0.91334521  0.29913992  1
  Se  Se198  1  0.59290079  0.92409204  0.80731375  1
  Se  Se199  1  0.91721492  0.24797769  0.30641719  1
  Se  Se200  1  0.90593105  0.24588299  0.81286084  1
  Se  Se201  1  0.91336127  0.58646787  0.30040001  1
  Se  Se202  1  0.90694945  0.57579222  0.81233981  1
  Se  Se203  1  0.90397915  0.91138694  0.31309664  1
  Se  Se204  1  0.91755042  0.91300046  0.80835177  1
  Se  Se205  1  0.09424571  0.09370285  0.31238156  1
  Se  Se206  1  0.08807501  0.08051802  0.80459024  1
  Se  Se207  1  0.08683441  0.42336322  0.30284978  1
  Se  Se208  1  0.08444050  0.41248388  0.81126667  1
  Se  Se209  1  0.07944357  0.75807892  0.30094736  1
  Se  Se210  1  0.09516794  0.76209009  0.80018996  1
  Se  Se211  1  0.42308186  0.08757743  0.30905528  1
  Se  Se212  1  0.42359041  0.08146733  0.80632254  1
  Se  Se213  1  0.41882884  0.41647927  0.29905647  1
  Se  Se214  1  0.42454871  0.42853065  0.81438493  1
  Se  Se215  1  0.41273534  0.74979131  0.29741096  1
  Se  Se216  1  0.43095183  0.76132888  0.82046163  1
  Se  Se217  1  0.74877559  0.07854635  0.30815662  1
  Se  Se218  1  0.74831178  0.08602879  0.80100272  1
  Se  Se219  1  0.74914760  0.41165969  0.30080244  1
  Se  Se220  1  0.74325342  0.41769341  0.80540444  1
  Se  Se221  1  0.74248129  0.74386180  0.30121001  1
  Se  Se222  1  0.75385763  0.75131330  0.80556249  1
  Se  Se223  1  0.24052530  0.09399527  0.18818909  1
  Se  Se224  1  0.24969602  0.07843152  0.70249350  1
  Se  Se225  1  0.25238614  0.41929935  0.20079478  1
  Se  Se226  1  0.24805729  0.40884898  0.69320671  1
  Se  Se227  1  0.25349136  0.76190053  0.18908346  1
  Se  Se228  1  0.25113211  0.74745418  0.68786013  1
  Se  Se229  1  0.57835821  0.07663270  0.19265336  1
  Se  Se230  1  0.58602602  0.08515450  0.69487727  1
  Se  Se231  1  0.58795411  0.41100637  0.19443710  1
  Se  Se232  1  0.58784164  0.41868328  0.70044196  1
  Se  Se233  1  0.58538860  0.74433303  0.19625254  1
  Se  Se234  1  0.58747530  0.75035553  0.70513424  1
  Se  Se235  1  0.90686639  0.08611955  0.19080003  1
  Se  Se236  1  0.90153488  0.09390896  0.68668608  1
  Se  Se237  1  0.92024860  0.41092672  0.20045951  1
  Se  Se238  1  0.90393129  0.42580823  0.68803219  1
  Se  Se239  1  0.91706227  0.74965853  0.19790868  1
  Se  Se240  1  0.91294958  0.75406115  0.68437970  1
  Se  Se241  1  0.07753023  0.25664889  0.20416415  1
  Se  Se242  1  0.09408705  0.23192134  0.69836697  1
  Se  Se243  1  0.08070104  0.59209158  0.20163394  1
  Se  Se244  1  0.09018935  0.57159348  0.69698242  1
  Se  Se245  1  0.08177194  0.91672400  0.18830060  1
  Se  Se246  1  0.08743140  0.89758153  0.68832115  1
  Se  Se247  1  0.41872146  0.24801993  0.19388147  1
  Se  Se248  1  0.41951020  0.24327316  0.68482518  1
  Se  Se249  1  0.42056104  0.58451635  0.19385977  1
  Se  Se250  1  0.42769058  0.57825431  0.69186291  1
  Se  Se251  1  0.41674817  0.90751973  0.18144862  1
  Se  Se252  1  0.42248344  0.91464755  0.69787726  1
  Se  Se253  1  0.74712769  0.24553078  0.20116882  1
  Se  Se254  1  0.74458096  0.25943125  0.69250278  1
  Se  Se255  1  0.74993978  0.57990779  0.19452298  1
  Se  Se256  1  0.74963963  0.59104147  0.69306885  1
  Se  Se257  1  0.74669210  0.91473728  0.19966055  1
  Se  Se258  1  0.75384655  0.92223281  0.70110522  1
