# generated using pymatgen
data_In86Cu29Se144
_symmetry_space_group_name_H-M   'P 1'
_cell_length_a   17.58433047
_cell_length_b   17.57979184
_cell_length_c   23.43486584
_cell_angle_alpha   89.97411268
_cell_angle_beta   90.02960843
_cell_angle_gamma   90.03017434
_symmetry_Int_Tables_number   1
_chemical_formula_structural   In86Cu29Se144
_chemical_formula_sum   'In86 Cu29 Se144'
_cell_volume   7244.39086976
_cell_formula_units_Z   1
loop_
 _symmetry_equiv_pos_site_id
 _symmetry_equiv_pos_as_xyz
  1  'x, y, z'
loop_
 _atom_site_type_symbol
 _atom_site_label
 _atom_site_symmetry_multiplicity
 _atom_site_fract_x
 _atom_site_fract_y
 _atom_site_fract_z
 _atom_site_occupancy
  In  In0  1  -0.00457336  0.16047274  0.12246851  1
  In  In1  1  -0.00412066  0.15625496  0.61296291  1
  In  In2  1  0.00263605  0.51702540  0.11391372  1
  In  In3  1  0.01353759  0.49767703  0.62916736  1
  In  In4  1  0.00985502  0.82812054  0.13372434  1
  In  In5  1  0.00327586  0.83025491  0.62560392  1
  In  In6  1  0.32656062  0.17881956  0.11765242  1
  In  In7  1  0.31990243  0.17483503  0.63149130  1
  In  In8  1  0.33544418  0.50445223  0.09390111  1
  In  In9  1  0.33116519  0.49772493  0.62808042  1
  In  In10  1  0.32440918  0.82098461  0.10909060  1
  In  In11  1  0.33059014  0.84911746  0.63273583  1
  In  In12  1  0.67649452  0.15075144  0.13987496  1
  In  In13  1  0.67264302  0.15637870  0.61793119  1
  In  In14  1  0.66965563  0.49844783  0.12743910  1
  In  In15  1  0.65839768  0.51450296  0.62023936  1
  In  In16  1  0.66162730  0.84029597  0.13309642  1
  In  In17  1  0.68408091  0.82298477  0.61776900  1
  In  In18  1  0.15264190  0.00564451  0.38972894  1
  In  In19  1  0.16251199  -0.00071936  0.87205416  1
  In  In20  1  0.16415685  0.33483442  0.37984568  1
  In  In21  1  0.17762969  0.32752584  0.88821206  1
  In  In22  1  0.15491337  0.67905641  0.38467262  1
  In  In23  1  0.15324037  0.67488394  0.89113301  1
  In  In24  1  0.50146741  -0.00847810  0.36898658  1
  In  In25  1  0.48179660  0.00651825  0.87609290  1
  In  In26  1  0.51525592  0.33649826  0.37124003  1
  In  In27  1  0.48405434  0.35373751  0.88059782  1
  In  In28  1  0.49631085  0.65354493  0.37200841  1
  In  In29  1  0.49495821  0.65793828  0.89084165  1
  In  In30  1  0.83840102  -0.00181949  0.37868268  1
  In  In31  1  0.85157326  -0.00421057  0.87494008  1
  In  In32  1  0.81985972  0.33258957  0.37242872  1
  In  In33  1  0.83513315  0.33133338  0.88474016  1
  In  In34  1  0.84160360  0.67408226  0.36381155  1
  In  In35  1  0.83387293  0.65761899  0.87868149  1
  In  In36  1  0.00680926  0.15341647  0.38431279  1
  In  In37  1  0.00836150  0.15909442  0.87966657  1
  In  In38  1  0.00182220  0.51171708  0.37175624  1
  In  In39  1  -0.00425285  0.50972968  0.88556941  1
  In  In40  1  -0.00124173  0.83298412  0.37549211  1
  In  In41  1  0.00454992  0.84103355  0.86780244  1
  In  In42  1  0.32558446  0.15912908  0.37765781  1
  In  In43  1  0.31811310  0.15971232  0.86666731  1
  In  In44  1  0.32997273  0.50559435  0.38151765  1
  In  In45  1  0.33824391  0.48954896  0.88586540  1
  In  In46  1  0.32769589  0.82370590  0.37826495  1
  In  In47  1  0.31882583  0.83910166  0.88802633  1
  In  In48  1  0.67348421  0.17922243  0.36599814  1
  In  In49  1  0.66977666  0.17541003  0.87938034  1
  In  In50  1  0.66058227  0.49010658  0.36465082  1
  In  In51  1  0.66072586  0.50330853  0.88713249  1
  In  In52  1  0.67491547  0.84206266  0.36326886  1
  In  In53  1  0.66828944  0.81974595  0.88103621  1
  In  In54  1  0.15822711  -0.01019505  0.12050873  1
  In  In55  1  0.16163251  0.00132717  0.62339889  1
  In  In56  1  0.17549427  0.33501215  0.10943101  1
  In  In57  1  0.17364231  0.34288318  0.62222108  1
  In  In58  1  0.15119430  0.66420156  0.10750611  1
  In  In59  1  0.15744839  0.65623860  0.62548081  1
  In  In60  1  0.51364185  -0.00018215  0.12706428  1
  In  In61  1  0.49599423  -0.00839984  0.62774674  1
  In  In62  1  0.49848839  0.34250814  0.12356612  1
  In  In63  1  0.48492525  0.33983784  0.63096433  1
  In  In64  1  0.50369806  0.67370418  0.11756475  1
  In  In65  1  0.50943065  0.65886090  0.62290276  1
  In  In66  1  0.83328457  0.00851845  0.13406953  1
  In  In67  1  0.85373714  0.00489962  0.60424299  1
  In  In68  1  0.82719919  0.32588294  0.12259776  1
  In  In69  1  0.84530493  0.32956688  0.62213743  1
  In  In70  1  0.84439960  0.65671275  0.13073835  1
  In  In71  1  0.83824085  0.69667512  0.61482231  1
  In  In72  1  0.33241190  0.66666163  0.76185656  1
  In  In73  1  0.50032929  0.17254766  0.49577887  1
  In  In74  1  0.83434669  0.49984050  0.49389204  1
  In  In75  1  0.33778587  -0.00153108  0.24926078  1
  In  In76  1  0.33103702  0.66538637  0.23788794  1
  In  In77  1  0.50129459  0.16754692  0.00325618  1
  In  In78  1  0.49882595  0.82874437  0.50073351  1
  In  In79  1  0.00838082  0.32947267  0.75386702  1
  In  In80  1  0.00026096  0.33348339  0.24250895  1
  In  In81  1  0.66806955  0.66638546  0.75224122  1
  In  In82  1  0.83796476  0.83203767  0.00392966  1
  In  In83  1  0.66148930  0.33577850  0.75371813  1
  In  In84  1  0.66461894  -0.00135617  0.74587813  1
  In  In85  1  0.33471668  0.33891491  0.23424421  1
  Cu  Cu86  1  0.49725060  0.83491577  0.75438275  1
  Cu  Cu87  1  0.48700113  0.17360520  0.75246198  1
  Cu  Cu88  1  0.15853562  0.83689940  0.25389022  1
  Cu  Cu89  1  0.67286583  0.32994859  0.00460785  1
  Cu  Cu90  1  0.66502507  0.33625818  0.49445728  1
  Cu  Cu91  1  0.83677592  0.15932574  0.74464490  1
  Cu  Cu92  1  0.32494247  0.00436818  0.50570165  1
  Cu  Cu93  1  0.67106167  -0.00007772  0.00975050  1
  Cu  Cu94  1  0.32809977  0.66281526  0.50509711  1
  Cu  Cu95  1  0.84819573  0.83706612  0.74383010  1
  Cu  Cu96  1  0.00330315  0.00333853  -0.00074205  1
  Cu  Cu97  1  -0.00252985  0.33817089  0.00186792  1
  Cu  Cu98  1  0.00325031  0.32625679  0.50012300  1
  Cu  Cu99  1  0.67457262  -0.00172225  0.49223758  1
  Cu  Cu100  1  0.84207824  0.16209335  0.25355181  1
  Cu  Cu101  1  0.66563433  0.66357162  0.00742675  1
  Cu  Cu102  1  0.16542586  0.83483361  0.75221382  1
  Cu  Cu103  1  0.00363752  0.66389309  0.49894349  1
  Cu  Cu104  1  0.83229357  0.50166081  0.24964077  1
  Cu  Cu105  1  0.33230887  0.34194147  0.50352951  1
  Cu  Cu106  1  0.16748912  0.16462740  0.25319922  1
  Cu  Cu107  1  0.83315771  0.83647783  0.24994799  1
  Cu  Cu108  1  0.50467517  0.83177870  0.24333142  1
  Cu  Cu109  1  0.16846782  0.50040240  0.75496814  1
  Cu  Cu110  1  0.50073711  0.49917232  0.24572956  1
  Cu  Cu111  1  0.16734650  0.51243005  0.24190976  1
  Cu  Cu112  1  0.16361487  0.16232994  0.74992769  1
  Cu  Cu113  1  0.83274541  0.50863446  0.75470645  1
  Cu  Cu114  1  0.32721262  -0.00149110  -0.00372888  1
  Se  Se115  1  0.08647366  0.08582951  0.05448788  1
  Se  Se116  1  0.07677024  0.07019790  0.54855182  1
  Se  Se117  1  0.08243660  0.42150194  0.05298684  1
  Se  Se118  1  0.08102116  0.41519322  0.55325474  1
  Se  Se119  1  0.08231739  0.76879084  0.05000544  1
  Se  Se120  1  0.08569245  0.74586022  0.55582185  1
  Se  Se121  1  0.40922941  0.07284150  0.06078122  1
  Se  Se122  1  0.41398091  0.08230620  0.56065518  1
  Se  Se123  1  0.40309002  0.38984369  0.04881487  1
  Se  Se124  1  0.41866644  0.42317060  0.55501682  1
  Se  Se125  1  0.42655214  0.75697045  0.04831369  1
  Se  Se126  1  0.40663809  0.74511421  0.56648436  1
  Se  Se127  1  0.75417690  0.08561142  0.05880937  1
  Se  Se128  1  0.75516431  0.08492460  0.54553687  1
  Se  Se129  1  0.75334003  0.41850598  0.05592999  1
  Se  Se130  1  0.74476108  0.41187444  0.56038424  1
  Se  Se131  1  0.74545793  0.74712655  0.06542251  1
  Se  Se132  1  0.72869358  0.72295288  0.54542098  1
  Se  Se133  1  0.24793086  0.24566159  0.04139965  1
  Se  Se134  1  0.25056814  0.25337409  0.55353830  1
  Se  Se135  1  0.26722752  0.61873939  0.04722246  1
  Se  Se136  1  0.24672741  0.57776638  0.55887219  1
  Se  Se137  1  0.24292217  0.91467121  0.04901932  1
  Se  Se138  1  0.24777055  0.91418846  0.55671709  1
  Se  Se139  1  0.59506523  0.24877728  0.06648099  1
  Se  Se140  1  0.58731200  0.26026212  0.56244071  1
  Se  Se141  1  0.58235164  0.57626381  0.05734875  1
  Se  Se142  1  0.58685511  0.59224891  0.54515189  1
  Se  Se143  1  0.58450656  0.91358263  0.05453547  1
  Se  Se144  1  0.59427918  0.92372678  0.55739421  1
  Se  Se145  1  0.91834715  0.25009674  0.05593738  1
  Se  Se146  1  0.91285092  0.24617388  0.54825148  1
  Se  Se147  1  0.91179833  0.59134688  0.04701554  1
  Se  Se148  1  0.92202072  0.58462564  0.56132609  1
  Se  Se149  1  0.92304654  0.92618711  0.06320511  1
  Se  Se150  1  0.89265366  0.87820421  0.55933574  1
  Se  Se151  1  0.08893684  0.24557345  0.44693477  1
  Se  Se152  1  0.07776937  0.25191042  0.94774446  1
  Se  Se153  1  0.08621118  0.57682348  0.44825829  1
  Se  Se154  1  0.08133420  0.58124063  0.95706736  1
  Se  Se155  1  0.09772898  0.89330938  0.44502037  1
  Se  Se156  1  0.08148317  0.91723202  0.94380712  1
  Se  Se157  1  0.40775412  0.26356948  0.43685624  1
  Se  Se158  1  0.41103889  0.24335039  0.93538609  1
  Se  Se159  1  0.41492360  0.58650410  0.44952222  1
  Se  Se160  1  0.43117551  0.55946261  0.95522668  1
  Se  Se161  1  0.40656503  0.92618013  0.44413048  1
  Se  Se162  1  0.41813820  0.91700659  0.94873596  1
  Se  Se163  1  0.74879222  0.24896570  0.44693015  1
  Se  Se164  1  0.75482819  0.24431188  0.95235449  1
  Se  Se165  1  0.74965411  0.58248930  0.42757242  1
  Se  Se166  1  0.74980305  0.58459920  0.95103541  1
  Se  Se167  1  0.75301787  0.90779294  0.44297112  1
  Se  Se168  1  0.74691750  0.92372284  0.94173380  1
  Se  Se169  1  0.24443256  0.08966659  0.45211827  1
  Se  Se170  1  0.24437777  0.08220382  0.94313067  1
  Se  Se171  1  0.24646107  0.41991735  0.44649544  1
  Se  Se172  1  0.24183958  0.42473853  0.95444102  1
  Se  Se173  1  0.24883255  0.75051350  0.45288382  1
  Se  Se174  1  0.26694925  0.72920242  0.94988671  1
  Se  Se175  1  0.58757337  0.07787057  0.43755497  1
  Se  Se176  1  0.59101486  0.07374761  0.94215344  1
  Se  Se177  1  0.58180393  0.42246854  0.44556817  1
  Se  Se178  1  0.58558435  0.40805731  0.95036225  1
  Se  Se179  1  0.58219856  0.75205649  0.42954667  1
  Se  Se180  1  0.58427728  0.74633089  0.95153777  1
  Se  Se181  1  0.92221925  0.07327959  0.45092782  1
  Se  Se182  1  0.91538977  0.08488376  0.94825239  1
  Se  Se183  1  0.92617828  0.40649567  0.43571228  1
  Se  Se184  1  0.91196816  0.42084658  0.94994356  1
  Se  Se185  1  0.91814876  0.74238965  0.44340305  1
  Se  Se186  1  0.92372817  0.74885344  0.93821496  1
  Se  Se187  1  0.24852722  0.25212429  0.30472185  1
  Se  Se188  1  0.23940728  0.25330957  0.80315119  1
  Se  Se189  1  0.24381718  0.58658217  0.30889574  1
  Se  Se190  1  0.24143338  0.57942871  0.82094787  1
  Se  Se191  1  0.24542604  0.91374355  0.31175331  1
  Se  Se192  1  0.25124163  0.91445102  0.80723723  1
  Se  Se193  1  0.58032466  0.24988531  0.29946580  1
  Se  Se194  1  0.56942630  0.24660174  0.81423056  1
  Se  Se195  1  0.58181777  0.58327984  0.29931461  1
  Se  Se196  1  0.57618634  0.57933090  0.81126091  1
  Se  Se197  1  0.58373115  0.91926338  0.29605805  1
  Se  Se198  1  0.58181037  0.91181939  0.81478678  1
  Se  Se199  1  0.92019899  0.24698568  0.31264061  1
  Se  Se200  1  0.90914451  0.24239908  0.80866436  1
  Se  Se201  1  0.92178709  0.58393055  0.29740846  1
  Se  Se202  1  0.92087978  0.58631097  0.80683753  1
  Se  Se203  1  0.91746734  0.91626518  0.30600313  1
  Se  Se204  1  0.92567225  0.92535958  0.79650516  1
  Se  Se205  1  0.08714515  0.08158914  0.30766260  1
  Se  Se206  1  0.07764283  0.08068436  0.80179110  1
  Se  Se207  1  0.09342477  0.42469557  0.30175317  1
  Se  Se208  1  0.08779612  0.42169781  0.81774478  1
  Se  Se209  1  0.07964195  0.74616774  0.30444361  1
  Se  Se210  1  0.08787009  0.74767308  0.80736052  1
  Se  Se211  1  0.42374566  0.09468016  0.30839671  1
  Se  Se212  1  0.40789404  0.08080031  0.79956032  1
  Se  Se213  1  0.41508419  0.42480252  0.30651838  1
  Se  Se214  1  0.40992856  0.42272576  0.80263564  1
  Se  Se215  1  0.41966429  0.75538646  0.30326363  1
  Se  Se216  1  0.42465678  0.75692328  0.81973705  1
  Se  Se217  1  0.75603509  0.08316391  0.30904612  1
  Se  Se218  1  0.75384563  0.08711088  0.80881727  1
  Se  Se219  1  0.74930416  0.41223397  0.29649473  1
  Se  Se220  1  0.75515721  0.42535250  0.81297907  1
  Se  Se221  1  0.74829542  0.74794380  0.29711013  1
  Se  Se222  1  0.76505166  0.76086516  0.80585810  1
  Se  Se223  1  0.24682706  0.08789828  0.18902031  1
  Se  Se224  1  0.24720411  0.07902634  0.69549324  1
  Se  Se225  1  0.24607951  0.43634154  0.17921526  1
  Se  Se226  1  0.24901187  0.41764223  0.69966299  1
  Se  Se227  1  0.23504871  0.75882396  0.18882864  1
  Se  Se228  1  0.24584580  0.75143527  0.69376245  1
  Se  Se229  1  0.57863236  0.08070743  0.20316071  1
  Se  Se230  1  0.57164604  0.09760185  0.69194382  1
  Se  Se231  1  0.58493442  0.41354970  0.19597233  1
  Se  Se232  1  0.57769728  0.42950457  0.69382461  1
  Se  Se233  1  0.58547248  0.74178588  0.19527422  1
  Se  Se234  1  0.57927133  0.76232626  0.69150193  1
  Se  Se235  1  0.92815371  0.08111881  0.20153737  1
  Se  Se236  1  0.91697392  0.07904851  0.68802384  1
  Se  Se237  1  0.91327856  0.42674380  0.18493843  1
  Se  Se238  1  0.91107734  0.42219378  0.69719572  1
  Se  Se239  1  0.91605379  0.75179016  0.19723534  1
  Se  Se240  1  0.92429237  0.74147307  0.69700170  1
  Se  Se241  1  0.09780532  0.24731280  0.18685260  1
  Se  Se242  1  0.08699206  0.24193268  0.68475570  1
  Se  Se243  1  0.08146968  0.59291552  0.18968271  1
  Se  Se244  1  0.08213664  0.58223384  0.70390791  1
  Se  Se245  1  0.07960338  0.92517576  0.20112611  1
  Se  Se246  1  0.08374999  0.91514467  0.69450048  1
  Se  Se247  1  0.42628106  0.23778616  0.18939789  1
  Se  Se248  1  0.40520057  0.25687467  0.69910245  1
  Se  Se249  1  0.41831704  0.57058832  0.18111227  1
  Se  Se250  1  0.42229791  0.58400127  0.69575861  1
  Se  Se251  1  0.41567138  0.90395157  0.18409685  1
  Se  Se252  1  0.41589639  0.92275271  0.70470478  1
  Se  Se253  1  0.75837702  0.24575318  0.20033608  1
  Se  Se254  1  0.75387240  0.24454379  0.69136896  1
  Se  Se255  1  0.74847976  0.58541880  0.19678398  1
  Se  Se256  1  0.75979795  0.58405961  0.68708828  1
  Se  Se257  1  0.74914489  0.92195631  0.19872017  1
  Se  Se258  1  0.75993280  0.91447907  0.68723103  1
