# generated using pymatgen
data_In86Cu29Se144
_symmetry_space_group_name_H-M   'P 1'
_cell_length_a   17.58928487
_cell_length_b   17.58008021
_cell_length_c   23.44269790
_cell_angle_alpha   90.00524228
_cell_angle_beta   90.02025648
_cell_angle_gamma   90.02105728
_symmetry_Int_Tables_number   1
_chemical_formula_structural   In86Cu29Se144
_chemical_formula_sum   'In86 Cu29 Se144'
_cell_volume   7248.97442416
_cell_formula_units_Z   1
loop_
 _symmetry_equiv_pos_site_id
 _symmetry_equiv_pos_as_xyz
  1  'x, y, z'
loop_
 _atom_site_type_symbol
 _atom_site_label
 _atom_site_symmetry_multiplicity
 _atom_site_fract_x
 _atom_site_fract_y
 _atom_site_fract_z
 _atom_site_occupancy
  In  In0  1  0.00344441  0.19052474  0.12709996  1
  In  In1  1  0.00300396  0.20123912  0.61653367  1
  In  In2  1  0.00509886  0.49750125  0.12314999  1
  In  In3  1  -0.00009157  0.49669941  0.61742708  1
  In  In4  1  -0.00315790  0.81994093  0.12881647  1
  In  In5  1  -0.00441827  0.81794516  0.62397597  1
  In  In6  1  0.34811297  0.16659466  0.14398793  1
  In  In7  1  0.33043466  0.17100081  0.62972908  1
  In  In8  1  0.32192451  0.50869340  0.12984196  1
  In  In9  1  0.33064004  0.50225866  0.62645341  1
  In  In10  1  0.34519456  0.81974602  0.12759602  1
  In  In11  1  0.33590728  0.82705085  0.62762553  1
  In  In12  1  0.66441160  0.16014969  0.12427876  1
  In  In13  1  0.68011361  0.17471124  0.62084086  1
  In  In14  1  0.68071930  0.49176291  0.12159876  1
  In  In15  1  0.66274431  0.49992137  0.62836551  1
  In  In16  1  0.66328370  0.84573003  0.12544358  1
  In  In17  1  0.65441197  0.82738662  0.62113868  1
  In  In18  1  0.17964446  -0.00929627  0.37454925  1
  In  In19  1  0.17241879  -0.01091692  0.87284889  1
  In  In20  1  0.16993532  0.34155388  0.37694871  1
  In  In21  1  0.17818747  0.35322143  0.85924724  1
  In  In22  1  0.16073788  0.65439823  0.36981621  1
  In  In23  1  0.15907769  0.64651771  0.85586709  1
  In  In24  1  0.48375205  -0.01522313  0.36557650  1
  In  In25  1  0.48625302  -0.00255871  0.87476782  1
  In  In26  1  0.49936189  0.34367025  0.37802489  1
  In  In27  1  0.50623615  0.33326801  0.86601340  1
  In  In28  1  0.49471167  0.67722781  0.38449070  1
  In  In29  1  0.50184126  0.67189276  0.87216469  1
  In  In30  1  0.83568596  0.01609962  0.37049547  1
  In  In31  1  0.84031696  0.00926185  0.87621336  1
  In  In32  1  0.84368929  0.33895628  0.38744778  1
  In  In33  1  0.83282848  0.33458143  0.87236150  1
  In  In34  1  0.84226595  0.64836801  0.38086174  1
  In  In35  1  0.82156010  0.65260167  0.86742000  1
  In  In36  1  -0.01112566  0.17737278  0.38005177  1
  In  In37  1  -0.01594649  0.17834295  0.87851025  1
  In  In38  1  0.00671331  0.50099024  0.37991680  1
  In  In39  1  0.00079230  0.49317774  0.86747444  1
  In  In40  1  0.01327378  0.82355984  0.37640511  1
  In  In41  1  0.00940312  0.82351959  0.87263889  1
  In  In42  1  0.33602097  0.16422406  0.36955613  1
  In  In43  1  0.33772361  0.16638536  0.86924806  1
  In  In44  1  0.33016092  0.50289258  0.37701348  1
  In  In45  1  0.32636197  0.49841409  0.86858528  1
  In  In46  1  0.34643031  0.83836147  0.37076559  1
  In  In47  1  0.33598233  0.83437344  0.86902479  1
  In  In48  1  0.67900151  0.17053933  0.37165707  1
  In  In49  1  0.67339987  0.17848259  0.87309081  1
  In  In50  1  0.66610242  0.49037200  0.38582595  1
  In  In51  1  0.67002728  0.50244313  0.87280659  1
  In  In52  1  0.65061511  0.83109509  0.37513638  1
  In  In53  1  0.66486131  0.81803169  0.87486776  1
  In  In54  1  0.17667184  0.01102516  0.13008817  1
  In  In55  1  0.17326237  0.00490717  0.62648787  1
  In  In56  1  0.16144888  0.33964493  0.13192889  1
  In  In57  1  0.14172400  0.37615825  0.66384778  1
  In  In58  1  0.18055906  0.64903613  0.12868685  1
  In  In59  1  0.17131228  0.65262809  0.63291487  1
  In  In60  1  0.50783553  -0.00441645  0.12982646  1
  In  In61  1  0.49423988  -0.01366618  0.61634534  1
  In  In62  1  0.49930668  0.32479913  0.12717919  1
  In  In63  1  0.48359572  0.34970010  0.63523703  1
  In  In64  1  0.47372730  0.66610729  0.11656373  1
  In  In65  1  0.49700907  0.66612153  0.62590793  1
  In  In66  1  0.81531838  0.00359521  0.13141817  1
  In  In67  1  0.82774190  0.01236249  0.62019299  1
  In  In68  1  0.84206419  0.35172167  0.11091668  1
  In  In69  1  0.83172537  0.33644847  0.62274473  1
  In  In70  1  0.84862930  0.65947162  0.12568574  1
  In  In71  1  0.85280747  0.63253588  0.63154121  1
  In  In72  1  0.16743738  0.17636609  0.49600685  1
  In  In73  1  0.66552233  0.33002637  0.24748151  1
  In  In74  1  0.16629426  0.17677667  0.00486854  1
  In  In75  1  0.50475543  0.16716202  0.00731571  1
  In  In76  1  0.50212934  0.50149144  -0.00754502  1
  In  In77  1  0.16586252  0.82389685  -0.00481188  1
  In  In78  1  0.66367508  -0.00268767  0.73749660  1
  In  In79  1  0.50123200  0.16805528  0.49549524  1
  In  In80  1  0.17254945  0.82343644  0.50749707  1
  In  In81  1  0.00278764  0.00196721  0.75413660  1
  In  In82  1  0.00537397  0.00082727  0.25483267  1
  In  In83  1  0.82983485  0.82966551  0.00089964  1
  In  In84  1  0.66233153  0.66923059  0.25621179  1
  In  In85  1  0.82849904  0.82614917  0.49743203  1
  Cu  Cu86  1  0.49170676  0.50274810  0.25364357  1
  Cu  Cu87  1  0.66137739  0.33708237  0.50339605  1
  Cu  Cu88  1  0.50030414  0.50508973  0.75103138  1
  Cu  Cu89  1  0.16582106  0.49905042  0.25251727  1
  Cu  Cu90  1  0.32378759  0.34195719  0.50808421  1
  Cu  Cu91  1  0.16975292  0.17272335  0.25380074  1
  Cu  Cu92  1  0.83201158  0.49586571  0.74852263  1
  Cu  Cu93  1  0.16992019  0.82851376  0.75017051  1
  Cu  Cu94  1  0.50120843  0.16378719  0.74972061  1
  Cu  Cu95  1  0.33476310  0.66635247  0.50213225  1
  Cu  Cu96  1  0.83216352  0.82876138  0.24846965  1
  Cu  Cu97  1  0.00396399  0.34243548  -0.00395431  1
  Cu  Cu98  1  0.00010607  0.65285617  -0.00470120  1
  Cu  Cu99  1  0.83684486  0.17469654  0.25080752  1
  Cu  Cu100  1  0.83438282  0.81934476  0.74732780  1
  Cu  Cu101  1  0.83773267  0.17466009  0.74576249  1
  Cu  Cu102  1  0.33221842  -0.00764100  -0.00056093  1
  Cu  Cu103  1  0.84543569  0.49653046  0.25193038  1
  Cu  Cu104  1  0.66158452  0.66584703  -0.00287551  1
  Cu  Cu105  1  -0.00163653  0.00574384  0.49995316  1
  Cu  Cu106  1  0.66395885  0.66400952  0.50694444  1
  Cu  Cu107  1  0.66420718  0.00301500  0.49789930  1
  Cu  Cu108  1  0.49786922  0.83104218  0.74558725  1
  Cu  Cu109  1  0.17040673  0.16749125  0.74929930  1
  Cu  Cu110  1  0.49745645  0.83210545  0.24898392  1
  Cu  Cu111  1  0.33169767  0.33769639  0.00011018  1
  Cu  Cu112  1  -0.00982464  0.00485960  0.00432563  1
  Cu  Cu113  1  0.66357584  0.00214672  0.00370059  1
  Cu  Cu114  1  0.17258913  0.82757178  0.25307006  1
  Se  Se115  1  0.07501807  0.08044299  0.06289042  1
  Se  Se116  1  0.07682212  0.08439433  0.56177783  1
  Se  Se117  1  0.09115155  0.41709250  0.05366838  1
  Se  Se118  1  0.08959772  0.40210236  0.56396581  1
  Se  Se119  1  0.07615002  0.73570849  0.05725873  1
  Se  Se120  1  0.07694848  0.73157341  0.55702703  1
  Se  Se121  1  0.40675156  0.07790645  0.06059065  1
  Se  Se122  1  0.40878029  0.08272039  0.55636809  1
  Se  Se123  1  0.41577503  0.41468276  0.05984511  1
  Se  Se124  1  0.41617528  0.42300114  0.55413181  1
  Se  Se125  1  0.40817150  0.75155618  0.04289869  1
  Se  Se126  1  0.41754472  0.75137658  0.55438906  1
  Se  Se127  1  0.75048392  0.08420435  0.05304128  1
  Se  Se128  1  0.74884510  0.08849120  0.54643239  1
  Se  Se129  1  0.75057084  0.42182413  0.04278062  1
  Se  Se130  1  0.74457504  0.42008870  0.55673832  1
  Se  Se131  1  0.74256085  0.74014313  0.06430749  1
  Se  Se132  1  0.75229154  0.73725139  0.56664759  1
  Se  Se133  1  0.26346209  0.25439395  0.06688015  1
  Se  Se134  1  0.24553936  0.26051332  0.56667125  1
  Se  Se135  1  0.25484491  0.58218430  0.04937328  1
  Se  Se136  1  0.25024523  0.58414762  0.55433830  1
  Se  Se137  1  0.24825084  0.91777013  0.05964747  1
  Se  Se138  1  0.25933991  0.92498835  0.55683879  1
  Se  Se139  1  0.59858904  0.26391248  0.05559559  1
  Se  Se140  1  0.57908721  0.25887204  0.56350031  1
  Se  Se141  1  0.58702384  0.58756732  0.06360591  1
  Se  Se142  1  0.57850632  0.58073801  0.55781911  1
  Se  Se143  1  0.57871689  0.91649251  0.05166827  1
  Se  Se144  1  0.58551975  0.91437779  0.54808148  1
  Se  Se145  1  0.92293821  0.25578147  0.04979486  1
  Se  Se146  1  0.89638547  0.24259940  0.55035671  1
  Se  Se147  1  0.91583423  0.57446978  0.05192471  1
  Se  Se148  1  0.90682365  0.56269057  0.54387807  1
  Se  Se149  1  0.91754629  0.92021975  0.06517721  1
  Se  Se150  1  0.92057701  0.92094415  0.55864052  1
  Se  Se151  1  0.06991491  0.26793345  0.44621972  1
  Se  Se152  1  0.08595479  0.26248307  0.93596413  1
  Se  Se153  1  0.09519776  0.57873818  0.44818114  1
  Se  Se154  1  0.08420888  0.57813159  0.93701665  1
  Se  Se155  1  0.08111210  0.92297124  0.44659501  1
  Se  Se156  1  0.07065712  0.92586927  0.94458848  1
  Se  Se157  1  0.40209580  0.26123596  0.44529649  1
  Se  Se158  1  0.41410768  0.25555144  0.94328885  1
  Se  Se159  1  0.41713785  0.58281209  0.44673750  1
  Se  Se160  1  0.40811543  0.58942901  0.93775233  1
  Se  Se161  1  0.42105363  0.91224034  0.44782224  1
  Se  Se162  1  0.41463758  0.91088520  0.94586444  1
  Se  Se163  1  0.74466497  0.25862583  0.44502439  1
  Se  Se164  1  0.76667636  0.23855018  0.94221166  1
  Se  Se165  1  0.74362996  0.58540634  0.44746739  1
  Se  Se166  1  0.74754644  0.58299319  0.94766386  1
  Se  Se167  1  0.74663197  0.92411164  0.43637783  1
  Se  Se168  1  0.74264513  0.92356503  0.93884308  1
  Se  Se169  1  0.25847255  0.07774602  0.44508681  1
  Se  Se170  1  0.25351585  0.07940170  0.94385305  1
  Se  Se171  1  0.24569376  0.42469649  0.44919770  1
  Se  Se172  1  0.25021042  0.41705881  0.94365819  1
  Se  Se173  1  0.25726738  0.74471724  0.43627920  1
  Se  Se174  1  0.24469548  0.74007267  0.92642147  1
  Se  Se175  1  0.58696121  0.07886677  0.43259320  1
  Se  Se176  1  0.58708041  0.07882337  0.93715277  1
  Se  Se177  1  0.57349299  0.41996005  0.45455705  1
  Se  Se178  1  0.59275165  0.40481041  0.94116287  1
  Se  Se179  1  0.58488186  0.75167789  0.45360204  1
  Se  Se180  1  0.57840539  0.75192039  0.94887566  1
  Se  Se181  1  0.91356870  0.08679686  0.44763747  1
  Se  Se182  1  0.91235465  0.09027617  0.95050079  1
  Se  Se183  1  0.90397009  0.44394477  0.45065453  1
  Se  Se184  1  0.91664589  0.41948798  0.94101588  1
  Se  Se185  1  0.92981837  0.73950190  0.44656799  1
  Se  Se186  1  0.91958355  0.74045937  0.93990195  1
  Se  Se187  1  0.25104812  0.25501695  0.30939569  1
  Se  Se188  1  0.25464070  0.25004688  0.80324818  1
  Se  Se189  1  0.25343325  0.58372548  0.30157867  1
  Se  Se190  1  0.25405040  0.57589688  0.79124544  1
  Se  Se191  1  0.25660151  0.91466748  0.30069696  1
  Se  Se192  1  0.25238831  0.91730812  0.79883431  1
  Se  Se193  1  0.57525716  0.24638974  0.31105194  1
  Se  Se194  1  0.58771208  0.24654325  0.79952934  1
  Se  Se195  1  0.57719100  0.57507036  0.31543916  1
  Se  Se196  1  0.58473200  0.58564790  0.80653736  1
  Se  Se197  1  0.58393500  0.91535441  0.29984265  1
  Se  Se198  1  0.57980667  0.91208161  0.80652906  1
  Se  Se199  1  0.91296075  0.25925571  0.30766783  1
  Se  Se200  1  0.92029651  0.25759470  0.79962255  1
  Se  Se201  1  0.92524807  0.58220945  0.30505473  1
  Se  Se202  1  0.91539640  0.58110355  0.80199748  1
  Se  Se203  1  0.91322566  0.90712566  0.31206941  1
  Se  Se204  1  0.90755310  0.90538752  0.80845576  1
  Se  Se205  1  0.09114211  0.09258288  0.31743067  1
  Se  Se206  1  0.09025189  0.09354920  0.81627493  1
  Se  Se207  1  0.08218521  0.41691018  0.30674288  1
  Se  Se208  1  0.08252849  0.41866118  0.79234058  1
  Se  Se209  1  0.08406107  0.74536148  0.30062221  1
  Se  Se210  1  0.07955031  0.74624545  0.79664766  1
  Se  Se211  1  0.41697552  0.08328052  0.30201653  1
  Se  Se212  1  0.41637794  0.07994362  0.80044012  1
  Se  Se213  1  0.41267007  0.41708840  0.30764246  1
  Se  Se214  1  0.41979567  0.41811240  0.80480904  1
  Se  Se215  1  0.41940656  0.74441450  0.30325572  1
  Se  Se216  1  0.41611181  0.74839059  0.80109456  1
  Se  Se217  1  0.75128987  0.08659823  0.29675276  1
  Se  Se218  1  0.75726807  0.08466006  0.79926021  1
  Se  Se219  1  0.75488029  0.42115897  0.30846184  1
  Se  Se220  1  0.74751695  0.41538116  0.80369096  1
  Se  Se221  1  0.75847631  0.75293451  0.31685913  1
  Se  Se222  1  0.74482947  0.74493044  0.80107922  1
  Se  Se223  1  0.25293962  0.08543205  0.20480090  1
  Se  Se224  1  0.25238039  0.08155339  0.69915045  1
  Se  Se225  1  0.25145315  0.41661476  0.19885133  1
  Se  Se226  1  0.27653660  0.40209114  0.69813572  1
  Se  Se227  1  0.25137193  0.74684106  0.19343400  1
  Se  Se228  1  0.25185719  0.74607067  0.69536360  1
  Se  Se229  1  0.57233860  0.09692125  0.19322700  1
  Se  Se230  1  0.57477728  0.09019246  0.68015917  1
  Se  Se231  1  0.57777508  0.43060288  0.19181418  1
  Se  Se232  1  0.58269276  0.41705027  0.70039330  1
  Se  Se233  1  0.57587502  0.75037874  0.18715148  1
  Se  Se234  1  0.58387473  0.74715322  0.69642723  1
  Se  Se235  1  0.91644901  0.08965799  0.19100310  1
  Se  Se236  1  0.91996002  0.09161608  0.68817326  1
  Se  Se237  1  0.92050495  0.41339058  0.19233620  1
  Se  Se238  1  0.91524991  0.41753507  0.69141201  1
  Se  Se239  1  0.91744570  0.74306842  0.20160808  1
  Se  Se240  1  0.91852461  0.73755873  0.69500071  1
  Se  Se241  1  0.08337966  0.25596312  0.20441915  1
  Se  Se242  1  0.08071879  0.24953235  0.70243186  1
  Se  Se243  1  0.08341871  0.58111073  0.19500752  1
  Se  Se244  1  0.07345680  0.57916357  0.69229475  1
  Se  Se245  1  0.09175334  0.90892496  0.19101748  1
  Se  Se246  1  0.08680420  0.90823463  0.68939733  1
  Se  Se247  1  0.41916306  0.26352509  0.20549742  1
  Se  Se248  1  0.41627265  0.24867132  0.69901325  1
  Se  Se249  1  0.41284781  0.58686749  0.19747408  1
  Se  Se250  1  0.41525094  0.58530579  0.69622506  1
  Se  Se251  1  0.41563445  0.91568007  0.19346101  1
  Se  Se252  1  0.41595970  0.91803303  0.69458361  1
  Se  Se253  1  0.76081607  0.25054429  0.18417335  1
  Se  Se254  1  0.74843752  0.25579489  0.69656880  1
  Se  Se255  1  0.75658855  0.57799412  0.19771080  1
  Se  Se256  1  0.74639559  0.58277801  0.69846609  1
  Se  Se257  1  0.74573839  0.91436809  0.20218696  1
  Se  Se258  1  0.76236381  0.90556295  0.68570316  1
