# generated using pymatgen
data_In86Cu29Se144
_symmetry_space_group_name_H-M   'P 1'
_cell_length_a   17.56951786
_cell_length_b   17.56817770
_cell_length_c   23.43607984
_cell_angle_alpha   90.00384541
_cell_angle_beta   89.99773882
_cell_angle_gamma   90.00123651
_symmetry_Int_Tables_number   1
_chemical_formula_structural   In86Cu29Se144
_chemical_formula_sum   'In86 Cu29 Se144'
_cell_volume   7233.88377882
_cell_formula_units_Z   1
loop_
 _symmetry_equiv_pos_site_id
 _symmetry_equiv_pos_as_xyz
  1  'x, y, z'
loop_
 _atom_site_type_symbol
 _atom_site_label
 _atom_site_symmetry_multiplicity
 _atom_site_fract_x
 _atom_site_fract_y
 _atom_site_fract_z
 _atom_site_occupancy
  In  In0  1  0.01150580  0.17474063  0.12051471  1
  In  In1  1  0.00195754  0.16692630  0.62133888  1
  In  In2  1  -0.00274262  0.49824523  0.12387257  1
  In  In3  1  -0.00456136  0.50605647  0.63187268  1
  In  In4  1  -0.00887261  0.83656241  0.12816068  1
  In  In5  1  -0.01959061  0.84135668  0.63748784  1
  In  In6  1  0.34123886  0.17313083  0.11406996  1
  In  In7  1  0.32950216  0.16956336  0.62605611  1
  In  In8  1  0.33320031  0.50694200  0.10957411  1
  In  In9  1  0.33965784  0.49158240  0.63709158  1
  In  In10  1  0.33398629  0.82456383  0.12283682  1
  In  In11  1  0.32863050  0.83883599  0.63727395  1
  In  In12  1  0.65313394  0.17861591  0.13862142  1
  In  In13  1  0.66822681  0.16432640  0.61422826  1
  In  In14  1  0.67077562  0.49632909  0.12755411  1
  In  In15  1  0.66468496  0.49416110  0.61465362  1
  In  In16  1  0.66174793  0.82493953  0.14894968  1
  In  In17  1  0.67640422  0.82434454  0.61688367  1
  In  In18  1  0.17197100  0.00660357  0.37897315  1
  In  In19  1  0.17210477  0.00823048  0.86385021  1
  In  In20  1  0.15469734  0.33546387  0.37365967  1
  In  In21  1  0.16293274  0.33281938  0.87390541  1
  In  In22  1  0.15360477  0.67916493  0.36938178  1
  In  In23  1  0.16475956  0.65977617  0.87477299  1
  In  In24  1  0.51331713  0.00481224  0.37375297  1
  In  In25  1  0.49493134  0.01350402  0.87330470  1
  In  In26  1  0.50700874  0.32689304  0.37817442  1
  In  In27  1  0.48448504  0.35234848  0.89089241  1
  In  In28  1  0.50283788  0.65362747  0.37231470  1
  In  In29  1  0.48923508  0.65395074  0.88046805  1
  In  In30  1  0.82889762  0.01163794  0.38702786  1
  In  In31  1  0.84082385  -0.00728830  0.86449187  1
  In  In32  1  0.83496331  0.33374850  0.37485490  1
  In  In33  1  0.84399348  0.33229496  0.87427578  1
  In  In34  1  0.83160933  0.66362061  0.37336226  1
  In  In35  1  0.83155224  0.66109630  0.87117213  1
  In  In36  1  -0.01220464  0.17555860  0.39014890  1
  In  In37  1  0.00905387  0.17924552  0.86244937  1
  In  In38  1  -0.01105608  0.48999025  0.36541285  1
  In  In39  1  -0.00000316  0.50007870  0.87488278  1
  In  In40  1  0.00435900  0.81587512  0.37280352  1
  In  In41  1  -0.00299518  0.83704136  0.85839517  1
  In  In42  1  0.33175212  0.17368802  0.38742419  1
  In  In43  1  0.32786151  0.16920454  0.87212502  1
  In  In44  1  0.34626488  0.50621760  0.37753610  1
  In  In45  1  0.33229164  0.49762531  0.87718059  1
  In  In46  1  0.32507070  0.83655526  0.37865950  1
  In  In47  1  0.32763834  0.82567252  0.86790826  1
  In  In48  1  0.67009367  0.16840647  0.37500951  1
  In  In49  1  0.65771719  0.16768024  0.88238570  1
  In  In50  1  0.66623408  0.49926411  0.36975757  1
  In  In51  1  0.66658089  0.49856532  0.89275214  1
  In  In52  1  0.67084946  0.84593653  0.36409451  1
  In  In53  1  0.67418566  0.82124855  0.87513385  1
  In  In54  1  0.15872688  0.01206658  0.11833311  1
  In  In55  1  0.14983472  0.01353439  0.62863333  1
  In  In56  1  0.16534369  0.33106750  0.11936447  1
  In  In57  1  0.17478131  0.32486493  0.63388263  1
  In  In58  1  0.17194280  0.64951755  0.12349190  1
  In  In59  1  0.16262772  0.67212203  0.63652666  1
  In  In60  1  0.49890901  0.00817375  0.12904748  1
  In  In61  1  0.48848945  0.00492817  0.62742601  1
  In  In62  1  0.53669807  0.35427681  0.09861268  1
  In  In63  1  0.49566927  0.32757482  0.61976298  1
  In  In64  1  0.50919957  0.65845271  0.13153364  1
  In  In65  1  0.50302424  0.65470584  0.62710282  1
  In  In66  1  0.82838964  -0.00904503  0.12970254  1
  In  In67  1  0.84860830  0.00414307  0.60858428  1
  In  In68  1  0.81334328  0.35171396  0.13809116  1
  In  In69  1  0.83794430  0.34224367  0.61861020  1
  In  In70  1  0.84230784  0.65487503  0.13254218  1
  In  In71  1  0.84602388  0.67142234  0.61248681  1
  In  In72  1  0.66607264  0.33190428  0.75708739  1
  In  In73  1  0.15905255  0.83645444  0.50470438  1
  In  In74  1  0.83098927  0.17616098  0.00109777  1
  In  In75  1  0.83263511  0.83059994  0.00131467  1
  In  In76  1  0.33507466  -0.00416351  0.25413648  1
  In  In77  1  0.34186960  0.33541585  0.24264441  1
  In  In78  1  0.16802934  0.49713589  0.50361962  1
  In  In79  1  -0.00265840  0.00252931  0.25201736  1
  In  In80  1  0.50198083  0.83559358  0.49564628  1
  In  In81  1  0.67434537  0.66804701  0.75037140  1
  In  In82  1  0.49761731  0.83180428  0.01189612  1
  In  In83  1  0.33298444  0.66506706  0.24588128  1
  In  In84  1  0.66889909  -0.00077571  0.74110180  1
  In  In85  1  0.16646115  0.82806885  -0.00872792  1
  Cu  Cu86  1  0.00182595  0.66161078  -0.00005133  1
  Cu  Cu87  1  0.66927524  0.00267221  0.49429074  1
  Cu  Cu88  1  0.33805984  0.66253544  0.50572825  1
  Cu  Cu89  1  -0.00076498  0.34074026  -0.00193090  1
  Cu  Cu90  1  0.17223515  0.82742937  0.75060284  1
  Cu  Cu91  1  0.33096587  0.01499351  0.50614930  1
  Cu  Cu92  1  0.67125088  0.33354806  0.49317435  1
  Cu  Cu93  1  0.32383815  0.32401551  -0.00553362  1
  Cu  Cu94  1  0.83613829  0.16477897  0.74460939  1
  Cu  Cu95  1  0.83225734  0.83142452  0.25405320  1
  Cu  Cu96  1  0.66443901  0.00513705  0.00314723  1
  Cu  Cu97  1  0.67230173  0.66025251  0.49529100  1
  Cu  Cu98  1  0.49601412  0.49808500  0.75502174  1
  Cu  Cu99  1  0.83936448  0.50337155  0.74740822  1
  Cu  Cu100  1  0.16716856  0.16926186  0.24690191  1
  Cu  Cu101  1  0.49848544  0.83532519  0.75471494  1
  Cu  Cu102  1  0.33175038  0.00142899  -0.00611595  1
  Cu  Cu103  1  0.16612476  0.49710819  0.75651954  1
  Cu  Cu104  1  0.66825715  0.66379661  0.00905913  1
  Cu  Cu105  1  0.16372388  0.16426870  0.74730915  1
  Cu  Cu106  1  -0.00624118  0.65765752  0.49798878  1
  Cu  Cu107  1  0.16035993  0.50244099  0.24808233  1
  Cu  Cu108  1  0.83508852  0.16645469  0.25897875  1
  Cu  Cu109  1  0.50876193  0.16892559  0.25106411  1
  Cu  Cu110  1  0.83311301  0.50169280  0.25127915  1
  Cu  Cu111  1  0.00021173  0.32936577  0.50014574  1
  Cu  Cu112  1  0.48533046  0.17592001  0.75146402  1
  Cu  Cu113  1  0.33762437  0.33698804  0.50866544  1
  Cu  Cu114  1  0.00447953  0.01371718  -0.00881133  1
  Se  Se115  1  0.08691647  0.09513815  0.04508571  1
  Se  Se116  1  0.07627263  0.08020704  0.54943271  1
  Se  Se117  1  0.08443758  0.42020469  0.05407601  1
  Se  Se118  1  0.07900873  0.40860141  0.56403138  1
  Se  Se119  1  0.07546027  0.74839364  0.05959267  1
  Se  Se120  1  0.07476575  0.73673286  0.55874935  1
  Se  Se121  1  0.41783617  0.07601799  0.05207077  1
  Se  Se122  1  0.42139782  0.09388207  0.55574951  1
  Se  Se123  1  0.40417989  0.39625546  0.05939174  1
  Se  Se124  1  0.41945076  0.42577813  0.55735073  1
  Se  Se125  1  0.40886937  0.72869831  0.05832369  1
  Se  Se126  1  0.41296300  0.75157333  0.56312234  1
  Se  Se127  1  0.74715002  0.08160153  0.06345423  1
  Se  Se128  1  0.75432175  0.08516852  0.54740877  1
  Se  Se129  1  0.75208133  0.41861918  0.05389288  1
  Se  Se130  1  0.75298606  0.41818916  0.54735080  1
  Se  Se131  1  0.74362114  0.74910562  0.06799175  1
  Se  Se132  1  0.75544121  0.74732167  0.54488085  1
  Se  Se133  1  0.24160638  0.24157417  0.05084478  1
  Se  Se134  1  0.24856053  0.25256496  0.55458454  1
  Se  Se135  1  0.24216265  0.58084317  0.04372083  1
  Se  Se136  1  0.25431693  0.58786140  0.56622011  1
  Se  Se137  1  0.25382943  0.92142597  0.05627958  1
  Se  Se138  1  0.25539517  0.92458189  0.56183409  1
  Se  Se139  1  0.58301519  0.23060497  0.05112647  1
  Se  Se140  1  0.58693160  0.25465056  0.55148282  1
  Se  Se141  1  0.58353462  0.57889184  0.05772011  1
  Se  Se142  1  0.58380722  0.58545017  0.55108274  1
  Se  Se143  1  0.59706488  0.91797920  0.06648550  1
  Se  Se144  1  0.58918777  0.92652802  0.55994493  1
  Se  Se145  1  0.91866198  0.26509118  0.06259518  1
  Se  Se146  1  0.91381416  0.24917363  0.55370168  1
  Se  Se147  1  0.91452106  0.58226253  0.05320316  1
  Se  Se148  1  0.91555295  0.56880568  0.55059872  1
  Se  Se149  1  0.92623715  0.93211230  0.05221495  1
  Se  Se150  1  0.91644461  0.89934867  0.54985008  1
  Se  Se151  1  0.09023327  0.25077942  0.44911612  1
  Se  Se152  1  0.07675452  0.25167673  0.94422070  1
  Se  Se153  1  0.07987976  0.58275421  0.43798984  1
  Se  Se154  1  0.08464260  0.57941264  0.94618409  1
  Se  Se155  1  0.07486214  0.92090428  0.43771569  1
  Se  Se156  1  0.07605620  0.92242740  0.93468739  1
  Se  Se157  1  0.41975051  0.25480261  0.45129241  1
  Se  Se158  1  0.41376228  0.24326151  0.94471921  1
  Se  Se159  1  0.42325352  0.58444786  0.45133804  1
  Se  Se160  1  0.42949707  0.55879737  0.94883369  1
  Se  Se161  1  0.40621469  0.93208554  0.44308669  1
  Se  Se162  1  0.41312331  0.91500071  0.93983433  1
  Se  Se163  1  0.75621935  0.24710083  0.44448722  1
  Se  Se164  1  0.73957787  0.26540185  0.94161604  1
  Se  Se165  1  0.75351129  0.57578065  0.44161229  1
  Se  Se166  1  0.75451139  0.59160577  0.94927005  1
  Se  Se167  1  0.74783515  0.91197431  0.44440217  1
  Se  Se168  1  0.74375470  0.92688331  0.94106221  1
  Se  Se169  1  0.24324816  0.09151779  0.45173285  1
  Se  Se170  1  0.24605473  0.08245375  0.94164095  1
  Se  Se171  1  0.25976146  0.41075413  0.44012505  1
  Se  Se172  1  0.24531283  0.41387817  0.94392484  1
  Se  Se173  1  0.25227950  0.73889846  0.44700379  1
  Se  Se174  1  0.26414582  0.73517820  0.94424446  1
  Se  Se175  1  0.58355923  0.08913307  0.44671858  1
  Se  Se176  1  0.57741570  0.08185154  0.94972949  1
  Se  Se177  1  0.58529026  0.41842728  0.44332272  1
  Se  Se178  1  0.58379557  0.41481652  0.95676841  1
  Se  Se179  1  0.59134685  0.74526418  0.43763712  1
  Se  Se180  1  0.58895289  0.74383782  0.94696702  1
  Se  Se181  1  0.92634419  0.07486313  0.45406105  1
  Se  Se182  1  0.91587210  0.08684082  0.93390377  1
  Se  Se183  1  0.92052658  0.41507130  0.44535505  1
  Se  Se184  1  0.91296145  0.42121782  0.94541599  1
  Se  Se185  1  0.91640521  0.74543821  0.44382582  1
  Se  Se186  1  0.92694028  0.74795709  0.93911038  1
  Se  Se187  1  0.24971919  0.24849345  0.30711975  1
  Se  Se188  1  0.24400784  0.24954477  0.80271034  1
  Se  Se189  1  0.24169309  0.57662169  0.31196062  1
  Se  Se190  1  0.25234708  0.58146112  0.80644101  1
  Se  Se191  1  0.23386449  0.90732715  0.30574056  1
  Se  Se192  1  0.25355268  0.91634927  0.80112865  1
  Se  Se193  1  0.59005504  0.25322634  0.30464735  1
  Se  Se194  1  0.56775952  0.24872205  0.81455704  1
  Se  Se195  1  0.58629399  0.58387083  0.30002158  1
  Se  Se196  1  0.58627531  0.57480929  0.81066914  1
  Se  Se197  1  0.56769563  0.91089712  0.30196567  1
  Se  Se198  1  0.58403348  0.91275225  0.81265221  1
  Se  Se199  1  0.92286638  0.24928443  0.30767778  1
  Se  Se200  1  0.91422720  0.25381802  0.79720985  1
  Se  Se201  1  0.91871557  0.58756359  0.30125098  1
  Se  Se202  1  0.92010483  0.58600339  0.80352343  1
  Se  Se203  1  0.91063694  0.91386884  0.31457791  1
  Se  Se204  1  0.91962022  0.92219213  0.79029426  1
  Se  Se205  1  0.08699346  0.09444258  0.31078594  1
  Se  Se206  1  0.07663099  0.07948182  0.79764831  1
  Se  Se207  1  0.08062766  0.41300933  0.29870729  1
  Se  Se208  1  0.07759679  0.41375619  0.80477297  1
  Se  Se209  1  0.08069559  0.75190240  0.29253743  1
  Se  Se210  1  0.08760539  0.74614102  0.80440335  1
  Se  Se211  1  0.41831024  0.09715627  0.31026797  1
  Se  Se212  1  0.40852341  0.08269574  0.80126076  1
  Se  Se213  1  0.42777782  0.42221648  0.30788632  1
  Se  Se214  1  0.41317369  0.41218991  0.80554145  1
  Se  Se215  1  0.41453879  0.75455911  0.31387940  1
  Se  Se216  1  0.42365023  0.74513878  0.80809471  1
  Se  Se217  1  0.75146694  0.07956431  0.30747368  1
  Se  Se218  1  0.75061160  0.09396497  0.80795943  1
  Se  Se219  1  0.75283935  0.41394198  0.30396787  1
  Se  Se220  1  0.75497240  0.43032780  0.81067013  1
  Se  Se221  1  0.74722480  0.74675303  0.30434218  1
  Se  Se222  1  0.76925390  0.76537998  0.79993430  1
  Se  Se223  1  0.25033899  0.08973103  0.18994543  1
  Se  Se224  1  0.24894524  0.08188926  0.69340381  1
  Se  Se225  1  0.24574641  0.42695615  0.18871749  1
  Se  Se226  1  0.24990329  0.41399678  0.70233819  1
  Se  Se227  1  0.23704718  0.75589743  0.19064533  1
  Se  Se228  1  0.25972396  0.74185165  0.70249668  1
  Se  Se229  1  0.58698614  0.07550483  0.20228856  1
  Se  Se230  1  0.57467974  0.09988374  0.69372164  1
  Se  Se231  1  0.58780360  0.40711291  0.19197077  1
  Se  Se232  1  0.57919796  0.42149362  0.69342716  1
  Se  Se233  1  0.57167520  0.74221096  0.20778200  1
  Se  Se234  1  0.57909227  0.75962206  0.69169338  1
  Se  Se235  1  0.91119694  0.09418927  0.18811421  1
  Se  Se236  1  0.91543836  0.08172743  0.68900350  1
  Se  Se237  1  0.91865776  0.41767882  0.19813668  1
  Se  Se238  1  0.91683477  0.41220707  0.69652607  1
  Se  Se239  1  0.91543953  0.75210843  0.19743145  1
  Se  Se240  1  0.92543924  0.72824579  0.69391874  1
  Se  Se241  1  0.08520006  0.25475667  0.19538342  1
  Se  Se242  1  0.07849572  0.24852914  0.69578122  1
  Se  Se243  1  0.07821384  0.58541475  0.19369962  1
  Se  Se244  1  0.08457172  0.58042409  0.70050712  1
  Se  Se245  1  0.09116830  0.91750737  0.18927652  1
  Se  Se246  1  0.09118065  0.90648572  0.69193063  1
  Se  Se247  1  0.43116928  0.24402239  0.18594099  1
  Se  Se248  1  0.40901962  0.25965386  0.69389804  1
  Se  Se249  1  0.41815163  0.56533915  0.19272445  1
  Se  Se250  1  0.41809554  0.58638116  0.70124154  1
  Se  Se251  1  0.42159062  0.90505655  0.19153715  1
  Se  Se252  1  0.41837381  0.92116411  0.70127884  1
  Se  Se253  1  0.75153268  0.24803388  0.20261870  1
  Se  Se254  1  0.75105583  0.24612166  0.68924726  1
  Se  Se255  1  0.74764347  0.58429025  0.19842070  1
  Se  Se256  1  0.75437916  0.57612673  0.68521919  1
  Se  Se257  1  0.74881247  0.91930297  0.20474952  1
  Se  Se258  1  0.75948636  0.91244460  0.68283323  1
