# generated using pymatgen
data_In86Cu29Se144
_symmetry_space_group_name_H-M   'P 1'
_cell_length_a   17.57113407
_cell_length_b   17.57365887
_cell_length_c   23.42561206
_cell_angle_alpha   90.00769110
_cell_angle_beta   89.97761213
_cell_angle_gamma   90.01630942
_symmetry_Int_Tables_number   1
_chemical_formula_structural   In86Cu29Se144
_chemical_formula_sum   'In86 Cu29 Se144'
_cell_volume   7233.57313205
_cell_formula_units_Z   1
loop_
 _symmetry_equiv_pos_site_id
 _symmetry_equiv_pos_as_xyz
  1  'x, y, z'
loop_
 _atom_site_type_symbol
 _atom_site_label
 _atom_site_symmetry_multiplicity
 _atom_site_fract_x
 _atom_site_fract_y
 _atom_site_fract_z
 _atom_site_occupancy
  In  In0  1  0.00835100  0.17056911  0.11600343  1
  In  In1  1  -0.01059374  0.17789170  0.62660241  1
  In  In2  1  -0.00885703  0.50814043  0.12976464  1
  In  In3  1  -0.00321924  0.51032553  0.62489002  1
  In  In4  1  -0.00221094  0.82483292  0.11512347  1
  In  In5  1  -0.00241390  0.81957664  0.62886926  1
  In  In6  1  0.33472658  0.16269500  0.12349957  1
  In  In7  1  0.33225298  0.16814107  0.63661752  1
  In  In8  1  0.32953076  0.50352501  0.13141942  1
  In  In9  1  0.30877177  0.52022340  0.65427575  1
  In  In10  1  0.33382537  0.83798409  0.12444089  1
  In  In11  1  0.32967509  0.83349438  0.62270724  1
  In  In12  1  0.67754641  0.16849249  0.11259934  1
  In  In13  1  0.67883384  0.16822686  0.62609394  1
  In  In14  1  0.66830063  0.48938916  0.12648873  1
  In  In15  1  0.66769959  0.48625175  0.62825365  1
  In  In16  1  0.66801292  0.83712170  0.11256945  1
  In  In17  1  0.65911709  0.84910197  0.62387350  1
  In  In18  1  0.16451706  -0.01694434  0.37487748  1
  In  In19  1  0.17706734  -0.02168364  0.89547226  1
  In  In20  1  0.16670526  0.33502513  0.36453672  1
  In  In21  1  0.16530222  0.32336930  0.87651161  1
  In  In22  1  0.17595119  0.67440322  0.36675409  1
  In  In23  1  0.17904288  0.68349198  0.85807884  1
  In  In24  1  0.48440989  -0.01058927  0.36129884  1
  In  In25  1  0.49385913  0.00927389  0.88615615  1
  In  In26  1  0.49951161  0.32733783  0.36397703  1
  In  In27  1  0.49364367  0.32299892  0.87389296  1
  In  In28  1  0.49519339  0.68307946  0.37519227  1
  In  In29  1  0.49466495  0.68061487  0.87519222  1
  In  In30  1  0.84698200  0.00478094  0.37288507  1
  In  In31  1  0.83160429  0.00124940  0.89901277  1
  In  In32  1  0.83108871  0.33287018  0.36962815  1
  In  In33  1  0.83360015  0.33900740  0.87881007  1
  In  In34  1  0.82723368  0.65540426  0.37253472  1
  In  In35  1  0.84116546  0.66157769  0.87919310  1
  In  In36  1  -0.01617163  0.16457657  0.37126351  1
  In  In37  1  0.00382266  0.15773457  0.89911744  1
  In  In38  1  -0.00587059  0.49304840  0.36742127  1
  In  In39  1  -0.01364378  0.50513189  0.86916692  1
  In  In40  1  0.01470288  0.84088718  0.37071331  1
  In  In41  1  0.01002736  0.82150487  0.88764121  1
  In  In42  1  0.33759444  0.16869150  0.36561266  1
  In  In43  1  0.33446088  0.16045363  0.87922188  1
  In  In44  1  0.33218848  0.49949378  0.36742786  1
  In  In45  1  0.32800242  0.50307628  0.86349840  1
  In  In46  1  0.33311831  0.83062381  0.37057139  1
  In  In47  1  0.32687891  0.83963574  0.87223085  1
  In  In48  1  0.66656535  0.17758298  0.36906543  1
  In  In49  1  0.66031619  0.17099677  0.88585452  1
  In  In50  1  0.68122035  0.50146286  0.37584814  1
  In  In51  1  0.69049484  0.49147093  0.87252352  1
  In  In52  1  0.66294543  0.82120343  0.37309243  1
  In  In53  1  0.65815849  0.84942870  0.89836588  1
  In  In54  1  0.17261944  0.01036433  0.11419186  1
  In  In55  1  0.18288945  -0.00334629  0.63104308  1
  In  In56  1  0.17335796  0.32455805  0.12969006  1
  In  In57  1  0.16695706  0.34520596  0.63239049  1
  In  In58  1  0.15707004  0.67411170  0.12874559  1
  In  In59  1  0.15447419  0.68076533  0.63487831  1
  In  In60  1  0.48537219  -0.01968659  0.11273503  1
  In  In61  1  0.49633212  -0.01133296  0.62190724  1
  In  In62  1  0.51088925  0.32325941  0.13008681  1
  In  In63  1  0.49650194  0.33789998  0.63321815  1
  In  In64  1  0.48544716  0.67684320  0.12949934  1
  In  In65  1  0.48413305  0.67255695  0.62617874  1
  In  In66  1  0.83755634  -0.00468538  0.10504936  1
  In  In67  1  0.82110694  0.01120219  0.62563772  1
  In  In68  1  0.83157728  0.33654327  0.12440012  1
  In  In69  1  0.82573567  0.32908072  0.62124094  1
  In  In70  1  0.85085201  0.67690722  0.11802068  1
  In  In71  1  0.84631010  0.66534396  0.62867411  1
  In  In72  1  0.16049741  0.16143581  0.50082341  1
  In  In73  1  0.16438229  0.49958271  -0.00800791  1
  In  In74  1  0.66581639  0.66511029  0.25130047  1
  In  In75  1  0.50582444  0.16501885  0.49584460  1
  In  In76  1  0.49985267  0.49992780  0.50560858  1
  In  In77  1  0.66754289  0.66605256  0.75720779  1
  In  In78  1  0.66152916  0.00708178  0.75797803  1
  In  In79  1  0.00228518  0.33550216  0.75372605  1
  In  In80  1  0.50030700  0.50214456  0.00459525  1
  In  In81  1  0.66813455  -0.00078842  0.23155552  1
  In  In82  1  0.83368391  0.83109034  0.49860652  1
  In  In83  1  0.16229078  0.50561047  0.50725222  1
  In  In84  1  0.00463689  0.00174707  0.24134078  1
  In  In85  1  0.00745594  -0.00847925  0.76541885  1
  Cu  Cu86  1  0.50061075  0.16585830  0.75918057  1
  Cu  Cu87  1  0.00038790  0.33755675  0.00222864  1
  Cu  Cu88  1  0.16214645  0.50059221  0.24683939  1
  Cu  Cu89  1  0.33119192  0.67862191  0.49872098  1
  Cu  Cu90  1  -0.01416430  0.32948065  0.49469909  1
  Cu  Cu91  1  0.66648044  0.66669882  0.49829494  1
  Cu  Cu92  1  0.50619315  0.49409749  0.75342914  1
  Cu  Cu93  1  0.66371609  0.00345799  0.49792643  1
  Cu  Cu94  1  0.48839428  0.83624255  0.75101995  1
  Cu  Cu95  1  0.66807491  0.66283765  -0.00341251  1
  Cu  Cu96  1  0.17463625  0.16068358  0.75925409  1
  Cu  Cu97  1  0.83326744  0.82883734  0.75980416  1
  Cu  Cu98  1  0.83646170  0.16903471  0.75507696  1
  Cu  Cu99  1  0.49751283  0.49795862  0.24779956  1
  Cu  Cu100  1  0.33187537  0.34022860  0.50594652  1
  Cu  Cu101  1  0.83088865  0.17267807  0.24336033  1
  Cu  Cu102  1  0.83406355  0.49679246  0.24928733  1
  Cu  Cu103  1  -0.00060795  0.00003650  0.49969084  1
  Cu  Cu104  1  0.67363457  0.33539215  0.49684202  1
  Cu  Cu105  1  0.32827396  0.67635078  -0.00204883  1
  Cu  Cu106  1  0.16845641  0.16503178  0.24239413  1
  Cu  Cu107  1  0.00331958  0.66328365  -0.00013565  1
  Cu  Cu108  1  0.00279288  0.66600140  0.50021576  1
  Cu  Cu109  1  0.33447619  -0.00733775  0.49700494  1
  Cu  Cu110  1  0.66879447  0.33835025  0.00182891  1
  Cu  Cu111  1  0.49780197  0.16408984  0.24167831  1
  Cu  Cu112  1  0.33403712  -0.00298482  0.00079140  1
  Cu  Cu113  1  0.17482303  0.83244427  0.24673990  1
  Cu  Cu114  1  0.33906082  0.32096476  0.00243647  1
  Se  Se115  1  0.08058421  0.08209215  0.04742893  1
  Se  Se116  1  0.07420912  0.07580605  0.56767690  1
  Se  Se117  1  0.08219111  0.41661588  0.06279341  1
  Se  Se118  1  0.06978627  0.40400122  0.55666214  1
  Se  Se119  1  0.09033643  0.74863328  0.04757158  1
  Se  Se120  1  0.08261594  0.75139906  0.55362083  1
  Se  Se121  1  0.41743145  0.08405702  0.05146153  1
  Se  Se122  1  0.40745449  0.08267446  0.55612715  1
  Se  Se123  1  0.41062019  0.40940394  0.06279639  1
  Se  Se124  1  0.40395296  0.42174450  0.56847188  1
  Se  Se125  1  0.41565436  0.75438095  0.05187294  1
  Se  Se126  1  0.41923032  0.75803820  0.55097101  1
  Se  Se127  1  0.74823304  0.07762713  0.04363788  1
  Se  Se128  1  0.74776781  0.08727788  0.54846994  1
  Se  Se129  1  0.75360813  0.42254346  0.05195347  1
  Se  Se130  1  0.75238859  0.42076451  0.55168131  1
  Se  Se131  1  0.75158462  0.74407880  0.05258947  1
  Se  Se132  1  0.74320271  0.74677391  0.56438799  1
  Se  Se133  1  0.24800729  0.24503244  0.05471380  1
  Se  Se134  1  0.25083899  0.25401102  0.56048073  1
  Se  Se135  1  0.25247807  0.58820752  0.05598549  1
  Se  Se136  1  0.25909294  0.59306845  0.56126342  1
  Se  Se137  1  0.24838648  0.91291439  0.05179922  1
  Se  Se138  1  0.24665528  0.91641542  0.55186198  1
  Se  Se139  1  0.58369618  0.25196434  0.05034512  1
  Se  Se140  1  0.58899589  0.25929100  0.55851747  1
  Se  Se141  1  0.58778075  0.59354039  0.06553797  1
  Se  Se142  1  0.58973939  0.59180314  0.56526202  1
  Se  Se143  1  0.58460088  0.91787975  0.04619342  1
  Se  Se144  1  0.57942177  0.91798226  0.54674060  1
  Se  Se145  1  0.91594501  0.25493293  0.05537089  1
  Se  Se146  1  0.90733664  0.24495806  0.55080211  1
  Se  Se147  1  0.91745641  0.57900498  0.04972426  1
  Se  Se148  1  0.91526638  0.58499649  0.55074628  1
  Se  Se149  1  0.94331442  0.92759021  0.04634260  1
  Se  Se150  1  0.91750990  0.92304638  0.56424822  1
  Se  Se151  1  0.07655273  0.25547852  0.43819606  1
  Se  Se152  1  0.08930549  0.25389968  0.95490293  1
  Se  Se153  1  0.08020908  0.58744919  0.43607868  1
  Se  Se154  1  0.08169764  0.59297128  0.93149112  1
  Se  Se155  1  0.08378069  0.91404283  0.45199465  1
  Se  Se156  1  0.05428464  0.93741692  0.94924733  1
  Se  Se157  1  0.40887739  0.25995020  0.44402649  1
  Se  Se158  1  0.42357449  0.23977453  0.94884064  1
  Se  Se159  1  0.40854267  0.58790773  0.44318535  1
  Se  Se160  1  0.40631720  0.58740162  0.94207235  1
  Se  Se161  1  0.41800527  0.91317019  0.44136779  1
  Se  Se162  1  0.41407013  0.91214467  0.94490493  1
  Se  Se163  1  0.75127518  0.24820590  0.44193158  1
  Se  Se164  1  0.75110718  0.25573082  0.94704914  1
  Se  Se165  1  0.75299507  0.58242319  0.45131287  1
  Se  Se166  1  0.75349986  0.57964545  0.94694293  1
  Se  Se167  1  0.74550801  0.92324600  0.43678104  1
  Se  Se168  1  0.76650220  0.89918928  0.96079814  1
  Se  Se169  1  0.25712720  0.07974065  0.43885951  1
  Se  Se170  1  0.24887879  0.08419415  0.95098367  1
  Se  Se171  1  0.25017116  0.41404275  0.44305991  1
  Se  Se172  1  0.26465269  0.40741156  0.94183840  1
  Se  Se173  1  0.24531348  0.75576731  0.44310783  1
  Se  Se174  1  0.24346247  0.75441620  0.94218743  1
  Se  Se175  1  0.58550006  0.07379364  0.42925037  1
  Se  Se176  1  0.60293303  0.06355563  0.94729343  1
  Se  Se177  1  0.58430534  0.40965467  0.43924437  1
  Se  Se178  1  0.58696130  0.41590361  0.93959893  1
  Se  Se179  1  0.58220471  0.75150609  0.44941591  1
  Se  Se180  1  0.57757682  0.74654008  0.95155670  1
  Se  Se181  1  0.91561946  0.08492969  0.45003183  1
  Se  Se182  1  0.89031035  0.11034033  0.95849881  1
  Se  Se183  1  0.91066237  0.41852482  0.44039287  1
  Se  Se184  1  0.92115831  0.42034689  0.94568204  1
  Se  Se185  1  0.92425995  0.74571277  0.43633221  1
  Se  Se186  1  0.91380795  0.74767482  0.95138926  1
  Se  Se187  1  0.24993962  0.24894123  0.29992508  1
  Se  Se188  1  0.25618828  0.24880243  0.80953291  1
  Se  Se189  1  0.24922131  0.58168020  0.30015985  1
  Se  Se190  1  0.24701563  0.58332604  0.79568092  1
  Se  Se191  1  0.25271680  0.91940052  0.30156949  1
  Se  Se192  1  0.23445312  0.91653172  0.80697704  1
  Se  Se193  1  0.58314643  0.24702615  0.29474357  1
  Se  Se194  1  0.58868830  0.24811828  0.80774427  1
  Se  Se195  1  0.57470653  0.57574282  0.31401873  1
  Se  Se196  1  0.57866054  0.57474314  0.81877108  1
  Se  Se197  1  0.58633574  0.91061350  0.30151739  1
  Se  Se198  1  0.57435236  0.90988649  0.81240195  1
  Se  Se199  1  0.91593446  0.25169616  0.29903176  1
  Se  Se200  1  0.92372597  0.23894792  0.81649331  1
  Se  Se201  1  0.91502670  0.58397633  0.30172277  1
  Se  Se202  1  0.90919518  0.58708259  0.79890838  1
  Se  Se203  1  0.91363445  0.91088696  0.30223794  1
  Se  Se204  1  0.90495333  0.91323110  0.82169104  1
  Se  Se205  1  0.09096174  0.08906427  0.31051300  1
  Se  Se206  1  0.09188247  0.08883568  0.82173664  1
  Se  Se207  1  0.07957504  0.41407664  0.29848699  1
  Se  Se208  1  0.09309236  0.42520918  0.81190982  1
  Se  Se209  1  0.08596167  0.75332181  0.29984165  1
  Se  Se210  1  0.07658003  0.75910396  0.80225158  1
  Se  Se211  1  0.41350429  0.08297991  0.29538080  1
  Se  Se212  1  0.41714056  0.07879454  0.80729909  1
  Se  Se213  1  0.41366981  0.41326925  0.30114847  1
  Se  Se214  1  0.41905095  0.41411440  0.80650545  1
  Se  Se215  1  0.41291214  0.74715680  0.30031906  1
  Se  Se216  1  0.40791964  0.75005629  0.80336712  1
  Se  Se217  1  0.75535729  0.08529845  0.30252747  1
  Se  Se218  1  0.75980758  0.08718503  0.81642421  1
  Se  Se219  1  0.74574847  0.41558811  0.30065096  1
  Se  Se220  1  0.75957176  0.40937423  0.79905825  1
  Se  Se221  1  0.76266410  0.75875512  0.30417202  1
  Se  Se222  1  0.74396709  0.76155988  0.82158137  1
  Se  Se223  1  0.25137852  0.07869705  0.19313632  1
  Se  Se224  1  0.25647395  0.07857468  0.70415864  1
  Se  Se225  1  0.24838538  0.41609747  0.19681909  1
  Se  Se226  1  0.26334729  0.39784887  0.70319878  1
  Se  Se227  1  0.25452588  0.74645672  0.19221910  1
  Se  Se228  1  0.26293365  0.74063993  0.69245240  1
  Se  Se229  1  0.57505654  0.08872161  0.17674349  1
  Se  Se230  1  0.57429828  0.09071607  0.68822320  1
  Se  Se231  1  0.58461061  0.41576889  0.19842120  1
  Se  Se232  1  0.58879507  0.40994389  0.70169650  1
  Se  Se233  1  0.58334260  0.75967311  0.19020959  1
  Se  Se234  1  0.57865023  0.75990420  0.69424416  1
  Se  Se235  1  0.90805335  0.08850214  0.18387943  1
  Se  Se236  1  0.91537945  0.08275123  0.69868357  1
  Se  Se237  1  0.91760882  0.41362324  0.19562020  1
  Se  Se238  1  0.91237259  0.41784878  0.68880529  1
  Se  Se239  1  0.92695757  0.74989644  0.19355288  1
  Se  Se240  1  0.91551425  0.74833670  0.70418527  1
  Se  Se241  1  0.07939007  0.24760085  0.19507337  1
  Se  Se242  1  0.09347905  0.23725975  0.69605750  1
  Se  Se243  1  0.07896921  0.58707807  0.19685753  1
  Se  Se244  1  0.10677722  0.55908103  0.68560696  1
  Se  Se245  1  0.09475762  0.91091720  0.18424639  1
  Se  Se246  1  0.08665187  0.91042208  0.69205533  1
  Se  Se247  1  0.41223861  0.25189935  0.19329674  1
  Se  Se248  1  0.42014435  0.24901535  0.70087667  1
  Se  Se249  1  0.41539324  0.58499631  0.19837871  1
  Se  Se250  1  0.42596073  0.58345543  0.70220509  1
  Se  Se251  1  0.41800236  0.91483033  0.19603107  1
  Se  Se252  1  0.41041869  0.92000393  0.69413961  1
  Se  Se253  1  0.74361705  0.25174069  0.19038286  1
  Se  Se254  1  0.75363701  0.24911437  0.69931264  1
  Se  Se255  1  0.75798857  0.58133035  0.18824929  1
  Se  Se256  1  0.75351436  0.57942256  0.69253928  1
  Se  Se257  1  0.76706740  0.90794061  0.18274814  1
  Se  Se258  1  0.75627026  0.91202908  0.69896965  1
