# generated using pymatgen
data_In86Cu29Se144
_symmetry_space_group_name_H-M   'P 1'
_cell_length_a   17.60825149
_cell_length_b   17.61791711
_cell_length_c   23.48617913
_cell_angle_alpha   89.98375716
_cell_angle_beta   90.00089222
_cell_angle_gamma   89.99126915
_symmetry_Int_Tables_number   1
_chemical_formula_structural   In86Cu29Se144
_chemical_formula_sum   'In86 Cu29 Se144'
_cell_volume   7285.89890507
_cell_formula_units_Z   1
loop_
 _symmetry_equiv_pos_site_id
 _symmetry_equiv_pos_as_xyz
  1  'x, y, z'
loop_
 _atom_site_type_symbol
 _atom_site_label
 _atom_site_symmetry_multiplicity
 _atom_site_fract_x
 _atom_site_fract_y
 _atom_site_fract_z
 _atom_site_occupancy
  In  In0  1  0.00138172  0.15404576  0.12339830  1
  In  In1  1  0.01785260  0.16347315  0.62485899  1
  In  In2  1  0.01869034  0.51525666  0.13063066  1
  In  In3  1  0.00862048  0.48764082  0.62974230  1
  In  In4  1  0.00536388  0.82586463  0.12352120  1
  In  In5  1  -0.00027177  0.82586744  0.62205916  1
  In  In6  1  0.33841265  0.17053483  0.11804029  1
  In  In7  1  0.33014687  0.17196278  0.63106818  1
  In  In8  1  0.32944683  0.49159679  0.13397005  1
  In  In9  1  0.32951064  0.50116245  0.62186657  1
  In  In10  1  0.32029890  0.84115675  0.12833625  1
  In  In11  1  0.32813495  0.82952082  0.64362594  1
  In  In12  1  0.65915274  0.18277497  0.12405512  1
  In  In13  1  0.67234829  0.16867841  0.62915162  1
  In  In14  1  0.65002495  0.49866717  0.12200202  1
  In  In15  1  0.65560803  0.50757728  0.63024900  1
  In  In16  1  0.67877489  0.82664442  0.12236315  1
  In  In17  1  0.66014120  0.81416204  0.62700520  1
  In  In18  1  0.17377234  -0.01101843  0.38227979  1
  In  In19  1  0.18935651  -0.02006832  0.89375892  1
  In  In20  1  0.17865662  0.32374265  0.38215862  1
  In  In21  1  0.16515515  0.32961666  0.86917798  1
  In  In22  1  0.17507114  0.67645074  0.38293717  1
  In  In23  1  0.18962587  0.69564826  0.83748648  1
  In  In24  1  0.49389164  0.00993040  0.37216645  1
  In  In25  1  0.49653847  0.01617859  0.88320723  1
  In  In26  1  0.50060758  0.34437923  0.37413739  1
  In  In27  1  0.49723578  0.33269050  0.87535416  1
  In  In28  1  0.45830296  0.66460646  0.37814610  1
  In  In29  1  0.47776581  0.65722201  0.86047968  1
  In  In30  1  0.83231455  -0.00820699  0.37939086  1
  In  In31  1  0.82383155  -0.01061417  0.87956813  1
  In  In32  1  0.82688471  0.34653490  0.37434257  1
  In  In33  1  0.83711360  0.34388547  0.86872766  1
  In  In34  1  0.84464990  0.67244135  0.37239404  1
  In  In35  1  0.84466233  0.67669801  0.86638601  1
  In  In36  1  0.01219318  0.17833551  0.37445451  1
  In  In37  1  0.00647428  0.17797090  0.87259313  1
  In  In38  1  0.00502517  0.51823585  0.37170034  1
  In  In39  1  0.01316121  0.50948161  0.86221826  1
  In  In40  1  0.00880888  0.82688506  0.38254805  1
  In  In41  1  0.01103357  0.82479918  0.87935679  1
  In  In42  1  0.32170361  0.16157667  0.36794787  1
  In  In43  1  0.32735192  0.16546726  0.87490776  1
  In  In44  1  0.33334628  0.50181838  0.38425792  1
  In  In45  1  0.34563611  0.51003314  0.87100427  1
  In  In46  1  0.31273707  0.81969913  0.35515327  1
  In  In47  1  0.32806359  0.83190512  0.86092274  1
  In  In48  1  0.65065151  0.17457204  0.37418750  1
  In  In49  1  0.65360400  0.16808098  0.87953205  1
  In  In50  1  0.66150945  0.49038586  0.37322773  1
  In  In51  1  0.65403855  0.49338333  0.87054268  1
  In  In52  1  0.66969471  0.83074913  0.38016319  1
  In  In53  1  0.67874730  0.83396414  0.87907420  1
  In  In54  1  0.18836194  0.01165489  0.10346411  1
  In  In55  1  0.17518083  -0.00103113  0.62514599  1
  In  In56  1  0.19439790  0.34244402  0.12648952  1
  In  In57  1  0.17245339  0.33123474  0.62503960  1
  In  In58  1  0.15982070  0.66423725  0.13755859  1
  In  In59  1  0.17127066  0.65824884  0.62799597  1
  In  In60  1  0.47590271  -0.00257215  0.11479443  1
  In  In61  1  0.48563582  -0.02286022  0.63356227  1
  In  In62  1  0.49387139  0.33587601  0.12324564  1
  In  In63  1  0.48483311  0.34826822  0.63459954  1
  In  In64  1  0.49730982  0.64948160  0.11835092  1
  In  In65  1  0.50438179  0.66685913  0.63478952  1
  In  In66  1  0.84494259  -0.01089384  0.12574262  1
  In  In67  1  0.85075269  -0.00587250  0.62430156  1
  In  In68  1  0.82852944  0.31924304  0.12931156  1
  In  In69  1  0.82813090  0.33819160  0.63231779  1
  In  In70  1  0.85039313  0.67814101  0.12342800  1
  In  In71  1  0.82541855  0.66864496  0.62586123  1
  In  In72  1  0.00632198  0.00145084  0.74738148  1
  In  In73  1  0.49150814  0.82705446  0.50348376  1
  In  In74  1  0.66248730  0.66085190  0.24771006  1
  In  In75  1  0.83133201  0.49908145  -0.00806492  1
  In  In76  1  -0.00327924  0.33605109  0.24940709  1
  In  In77  1  0.49977740  0.16815218  0.50172843  1
  In  In78  1  0.65639501  0.00229201  0.23770214  1
  In  In79  1  0.83118839  0.15751292  -0.00082472  1
  In  In80  1  0.83943853  0.50616096  0.49407502  1
  In  In81  1  0.84488025  0.16395450  0.49470225  1
  In  In82  1  0.00315134  -0.00587015  0.25264711  1
  In  In83  1  0.66329357  0.00545327  0.75367986  1
  In  In84  1  0.17094600  0.50653326  0.00050745  1
  In  In85  1  0.49469286  0.82543335  -0.00622074  1
  Cu  Cu86  1  0.82695218  0.50484718  0.74863427  1
  Cu  Cu87  1  0.01075563  -0.00850845  0.50413654  1
  Cu  Cu88  1  0.16878433  0.49152532  0.74319050  1
  Cu  Cu89  1  0.49893016  0.83699207  0.24528984  1
  Cu  Cu90  1  0.00576685  0.67056684  -0.00368060  1
  Cu  Cu91  1  0.00838183  0.33317253  -0.00082965  1
  Cu  Cu92  1  0.66604336  -0.00452584  0.00171114  1
  Cu  Cu93  1  0.00725072  0.67143314  0.50200054  1
  Cu  Cu94  1  0.81731550  0.16521889  0.25458057  1
  Cu  Cu95  1  0.50178120  0.49424996  0.75083574  1
  Cu  Cu96  1  0.67551759  -0.00915752  0.50370749  1
  Cu  Cu97  1  0.33667823  0.33263650  -0.00321965  1
  Cu  Cu98  1  0.66257451  0.66750462  0.50274667  1
  Cu  Cu99  1  0.66808740  0.66531542  0.00050321  1
  Cu  Cu100  1  0.83244595  0.17977276  0.75260718  1
  Cu  Cu101  1  0.49458143  0.49486694  0.25198937  1
  Cu  Cu102  1  0.48651353  0.17837486  0.24817055  1
  Cu  Cu103  1  0.66260109  0.33656915  0.50283684  1
  Cu  Cu104  1  0.33414589  -0.00624989  0.50052022  1
  Cu  Cu105  1  0.00885706  0.32961602  0.50354933  1
  Cu  Cu106  1  0.17014846  0.16733015  0.75093446  1
  Cu  Cu107  1  0.17064094  0.16870491  0.24177829  1
  Cu  Cu108  1  0.00205674  -0.00779626  0.00112456  1
  Cu  Cu109  1  0.82643061  0.49725730  0.24757651  1
  Cu  Cu110  1  0.49931689  0.17178989  0.75332828  1
  Cu  Cu111  1  0.66064870  0.33581409  -0.00213395  1
  Cu  Cu112  1  0.33400655  0.33308580  0.50483116  1
  Cu  Cu113  1  0.83133594  0.83441266  0.74754427  1
  Cu  Cu114  1  0.16353380  0.83937283  0.24999864  1
  Se  Se115  1  0.08109489  0.08454506  0.04866119  1
  Se  Se116  1  0.09109320  0.07956079  0.55436413  1
  Se  Se117  1  0.08213376  0.41283777  0.06269375  1
  Se  Se118  1  0.08950962  0.41547619  0.55536240  1
  Se  Se119  1  0.09000628  0.74253871  0.05748272  1
  Se  Se120  1  0.09235831  0.74834084  0.55864428  1
  Se  Se121  1  0.40977372  0.08479365  0.04455132  1
  Se  Se122  1  0.41519202  0.07251392  0.56126344  1
  Se  Se123  1  0.40934829  0.41960858  0.05627229  1
  Se  Se124  1  0.41841997  0.41879049  0.55294299  1
  Se  Se125  1  0.40943746  0.74671688  0.06326073  1
  Se  Se126  1  0.40665453  0.74215014  0.56720498  1
  Se  Se127  1  0.74230123  0.07476003  0.06765821  1
  Se  Se128  1  0.75180269  0.07782066  0.55902230  1
  Se  Se129  1  0.74787747  0.40812434  0.05789378  1
  Se  Se130  1  0.74761222  0.41894633  0.55639211  1
  Se  Se131  1  0.75586415  0.74323299  0.05251917  1
  Se  Se132  1  0.74817324  0.75042937  0.55252494  1
  Se  Se133  1  0.24961405  0.25373693  0.05085173  1
  Se  Se134  1  0.25210192  0.24511699  0.55472812  1
  Se  Se135  1  0.25522828  0.59137559  0.06588809  1
  Se  Se136  1  0.23244678  0.56607670  0.55452534  1
  Se  Se137  1  0.25083540  0.90641765  0.04471881  1
  Se  Se138  1  0.26214087  0.91184588  0.56337959  1
  Se  Se139  1  0.57647113  0.25353425  0.05100727  1
  Se  Se140  1  0.58557006  0.25776248  0.56413365  1
  Se  Se141  1  0.58186076  0.57796126  0.04478369  1
  Se  Se142  1  0.57944943  0.58787773  0.55742513  1
  Se  Se143  1  0.58565717  0.91454083  0.06139537  1
  Se  Se144  1  0.58769058  0.91949842  0.56159028  1
  Se  Se145  1  0.92321084  0.25412297  0.05534872  1
  Se  Se146  1  0.92118933  0.25686557  0.56154673  1
  Se  Se147  1  0.92785194  0.58268818  0.05292183  1
  Se  Se148  1  0.92681972  0.58820431  0.56056654  1
  Se  Se149  1  0.91935639  0.90903625  0.05404155  1
  Se  Se150  1  0.91939727  0.91139801  0.55103209  1
  Se  Se151  1  0.09073817  0.24415615  0.45161270  1
  Se  Se152  1  0.08948783  0.25099166  0.94598133  1
  Se  Se153  1  0.08641899  0.58748203  0.44598915  1
  Se  Se154  1  0.08645426  0.59352044  0.93564891  1
  Se  Se155  1  0.09297735  0.90740245  0.45128336  1
  Se  Se156  1  0.08682447  0.90715585  0.95152232  1
  Se  Se157  1  0.40990902  0.25283045  0.43978902  1
  Se  Se158  1  0.41638218  0.24686927  0.94274529  1
  Se  Se159  1  0.42825822  0.56849847  0.45534112  1
  Se  Se160  1  0.41277293  0.59366011  0.94566105  1
  Se  Se161  1  0.41286999  0.91904416  0.43682341  1
  Se  Se162  1  0.40804109  0.91917161  0.93790149  1
  Se  Se163  1  0.74229192  0.25557353  0.44442359  1
  Se  Se164  1  0.75050260  0.25956299  0.94208926  1
  Se  Se165  1  0.74200673  0.59301571  0.43660676  1
  Se  Se166  1  0.74487367  0.59066829  0.93325420  1
  Se  Se167  1  0.75484620  0.90838358  0.44941356  1
  Se  Se168  1  0.75392459  0.91075244  0.95626430  1
  Se  Se169  1  0.25451443  0.08027489  0.44596645  1
  Se  Se170  1  0.23521193  0.09874669  0.94600547  1
  Se  Se171  1  0.24897684  0.41474887  0.45076608  1
  Se  Se172  1  0.25583798  0.41454793  0.93758163  1
  Se  Se173  1  0.25987730  0.76411863  0.44663353  1
  Se  Se174  1  0.25379285  0.74211723  0.92898837  1
  Se  Se175  1  0.59385901  0.07146140  0.44642825  1
  Se  Se176  1  0.58542809  0.08643160  0.95551232  1
  Se  Se177  1  0.58086381  0.41940320  0.44912133  1
  Se  Se178  1  0.57704788  0.41875080  0.94594594  1
  Se  Se179  1  0.57937063  0.73907073  0.43773940  1
  Se  Se180  1  0.58819282  0.73906126  0.93541117  1
  Se  Se181  1  0.93684055  0.07134008  0.43874166  1
  Se  Se182  1  0.92559402  0.07315037  0.93802600  1
  Se  Se183  1  0.93132714  0.40858363  0.44013270  1
  Se  Se184  1  0.93450960  0.41603368  0.93931533  1
  Se  Se185  1  0.91711553  0.74894501  0.44907345  1
  Se  Se186  1  0.91640539  0.75036994  0.94573069  1
  Se  Se187  1  0.24827916  0.25293963  0.29972793  1
  Se  Se188  1  0.25425498  0.25255554  0.80192662  1
  Se  Se189  1  0.27318817  0.60471281  0.31944100  1
  Se  Se190  1  0.25167205  0.57285163  0.79856928  1
  Se  Se191  1  0.24849138  0.92905474  0.29774062  1
  Se  Se192  1  0.24358859  0.92512666  0.80178387  1
  Se  Se193  1  0.57616804  0.25481642  0.30297906  1
  Se  Se194  1  0.58552349  0.25208905  0.80560013  1
  Se  Se195  1  0.57045010  0.58076346  0.31233506  1
  Se  Se196  1  0.58098160  0.58408520  0.80210087  1
  Se  Se197  1  0.57851014  0.91109065  0.30866053  1
  Se  Se198  1  0.58121963  0.91967863  0.81935109  1
  Se  Se199  1  0.90340222  0.24288531  0.31086334  1
  Se  Se200  1  0.92048029  0.25674421  0.80500513  1
  Se  Se201  1  0.90901230  0.57958503  0.30141621  1
  Se  Se202  1  0.91602399  0.58379364  0.79972273  1
  Se  Se203  1  0.91227194  0.90532270  0.31052169  1
  Se  Se204  1  0.91171623  0.91460236  0.80779639  1
  Se  Se205  1  0.09331491  0.09056244  0.30655520  1
  Se  Se206  1  0.09301472  0.08603236  0.81207546  1
  Se  Se207  1  0.08471586  0.41261737  0.31680278  1
  Se  Se208  1  0.08335941  0.41151230  0.79901929  1
  Se  Se209  1  0.08964047  0.75320045  0.30880145  1
  Se  Se210  1  0.06322929  0.74488864  0.79725427  1
  Se  Se211  1  0.41311537  0.08557413  0.30060490  1
  Se  Se212  1  0.41768354  0.08701441  0.80642799  1
  Se  Se213  1  0.40845831  0.41733111  0.30795902  1
  Se  Se214  1  0.41578105  0.41358760  0.80486513  1
  Se  Se215  1  0.41640257  0.75041623  0.29527310  1
  Se  Se216  1  0.42404655  0.76165357  0.79451351  1
  Se  Se217  1  0.74367607  0.08199928  0.31391357  1
  Se  Se218  1  0.75870186  0.09473004  0.81351885  1
  Se  Se219  1  0.74355182  0.41467393  0.29972381  1
  Se  Se220  1  0.74709755  0.41997751  0.80324791  1
  Se  Se221  1  0.75187110  0.75477685  0.30448113  1
  Se  Se222  1  0.74897450  0.75333453  0.80248130  1
  Se  Se223  1  0.25156292  0.08626231  0.18589363  1
  Se  Se224  1  0.25145808  0.08255570  0.69674436  1
  Se  Se225  1  0.22584171  0.43859245  0.20318910  1
  Se  Se226  1  0.25789604  0.41036929  0.69382489  1
  Se  Se227  1  0.24750724  0.75352462  0.19885749  1
  Se  Se228  1  0.24918745  0.73421383  0.70365235  1
  Se  Se229  1  0.56345291  0.09543153  0.18588779  1
  Se  Se230  1  0.57015897  0.08827661  0.68822498  1
  Se  Se231  1  0.57936330  0.41551728  0.19514941  1
  Se  Se232  1  0.58824069  0.41151605  0.69796325  1
  Se  Se233  1  0.57615702  0.75493955  0.18564446  1
  Se  Se234  1  0.57161275  0.76263092  0.70322664  1
  Se  Se235  1  0.90496897  0.09115510  0.19800365  1
  Se  Se236  1  0.91035099  0.09752151  0.69332187  1
  Se  Se237  1  0.90972635  0.42568112  0.18391255  1
  Se  Se238  1  0.91216493  0.41982135  0.69774140  1
  Se  Se239  1  0.92492082  0.75185481  0.19807634  1
  Se  Se240  1  0.91180336  0.75122601  0.69199643  1
  Se  Se241  1  0.08526259  0.24785166  0.18528499  1
  Se  Se242  1  0.08663684  0.24988719  0.69631857  1
  Se  Se243  1  0.08168427  0.58630100  0.21168561  1
  Se  Se244  1  0.08191276  0.57835496  0.69693395  1
  Se  Se245  1  0.09403344  0.92170113  0.18357073  1
  Se  Se246  1  0.09125065  0.90613859  0.69099941  1
  Se  Se247  1  0.40538433  0.25954201  0.19234298  1
  Se  Se248  1  0.41415679  0.25252838  0.69916303  1
  Se  Se249  1  0.41845427  0.58069479  0.19527390  1
  Se  Se250  1  0.41863190  0.57468408  0.69385498  1
  Se  Se251  1  0.41255133  0.91998615  0.19512970  1
  Se  Se252  1  0.41284883  0.91096110  0.71232929  1
  Se  Se253  1  0.74001961  0.25155701  0.20117836  1
  Se  Se254  1  0.74396801  0.25516633  0.69926480  1
  Se  Se255  1  0.75460647  0.57818868  0.18225067  1
  Se  Se256  1  0.74332104  0.58850848  0.69580715  1
  Se  Se257  1  0.75910240  0.90865249  0.19731430  1
  Se  Se258  1  0.75271393  0.91816974  0.68884597  1
