# generated using pymatgen
data_In86Cu29Se144
_symmetry_space_group_name_H-M   'P 1'
_cell_length_a   17.57485004
_cell_length_b   17.57139160
_cell_length_c   23.42746674
_cell_angle_alpha   89.99541325
_cell_angle_beta   90.00497177
_cell_angle_gamma   89.99471903
_symmetry_Int_Tables_number   1
_chemical_formula_structural   In86Cu29Se144
_chemical_formula_sum   'In86 Cu29 Se144'
_cell_volume   7234.74304406
_cell_formula_units_Z   1
loop_
 _symmetry_equiv_pos_site_id
 _symmetry_equiv_pos_as_xyz
  1  'x, y, z'
loop_
 _atom_site_type_symbol
 _atom_site_label
 _atom_site_symmetry_multiplicity
 _atom_site_fract_x
 _atom_site_fract_y
 _atom_site_fract_z
 _atom_site_occupancy
  In  In0  1  -0.01067239  0.18160909  0.13608378  1
  In  In1  1  0.01148137  0.17647692  0.61371001  1
  In  In2  1  -0.01191548  0.50018184  0.12876397  1
  In  In3  1  -0.01207352  0.48852068  0.61543969  1
  In  In4  1  0.01338141  0.83649220  0.13234244  1
  In  In5  1  -0.00749286  0.84515315  0.62025463  1
  In  In6  1  0.34684295  0.17414481  0.12292396  1
  In  In7  1  0.32019648  0.17697014  0.63604988  1
  In  In8  1  0.34495756  0.49224602  0.13020191  1
  In  In9  1  0.32921665  0.49897229  0.62396405  1
  In  In10  1  0.32410940  0.83351476  0.12309849  1
  In  In11  1  0.34051061  0.82434081  0.64106700  1
  In  In12  1  0.67889106  0.15751707  0.12963033  1
  In  In13  1  0.67093032  0.16145383  0.63128329  1
  In  In14  1  0.66723719  0.49679414  0.12690883  1
  In  In15  1  0.66965213  0.49271721  0.62989518  1
  In  In16  1  0.66384589  0.83795873  0.12749253  1
  In  In17  1  0.66956010  0.82891037  0.63502695  1
  In  In18  1  0.16715813  0.01794968  0.38093290  1
  In  In19  1  0.18685094  -0.00173651  0.87216030  1
  In  In20  1  0.16280214  0.33616381  0.37360494  1
  In  In21  1  0.16609959  0.33801073  0.86545961  1
  In  In22  1  0.16483571  0.63628529  0.37255511  1
  In  In23  1  0.18519670  0.66901380  0.86911614  1
  In  In24  1  0.50467637  -0.00864641  0.37393189  1
  In  In25  1  0.50521974  0.01090807  0.86129881  1
  In  In26  1  0.50046219  0.33191609  0.37116350  1
  In  In27  1  0.51524029  0.33258916  0.86229788  1
  In  In28  1  0.49824795  0.66300599  0.36929927  1
  In  In29  1  0.49658054  0.66403990  0.87022472  1
  In  In30  1  0.83210428  0.00059886  0.37364773  1
  In  In31  1  0.83064890  0.01527132  0.87981659  1
  In  In32  1  0.83448379  0.33143883  0.37704061  1
  In  In33  1  0.82976974  0.33312589  0.87268519  1
  In  In34  1  0.82709673  0.66997755  0.37968241  1
  In  In35  1  0.81581655  0.66605646  0.87475247  1
  In  In36  1  -0.00187561  0.16821422  0.37419701  1
  In  In37  1  -0.01970160  0.16444926  0.87646595  1
  In  In38  1  0.01178282  0.48325861  0.38320224  1
  In  In39  1  0.00083793  0.48587974  0.87638295  1
  In  In40  1  -0.01797789  0.82788580  0.37428870  1
  In  In41  1  0.00739639  0.83816790  0.87504434  1
  In  In42  1  0.32005537  0.17290789  0.38293964  1
  In  In43  1  0.33940490  0.17322320  0.86110924  1
  In  In44  1  0.30597856  0.47720647  0.35044306  1
  In  In45  1  0.34739069  0.50587221  0.86984557  1
  In  In46  1  0.34574524  0.82775437  0.37808276  1
  In  In47  1  0.37227685  0.86130260  0.83033632  1
  In  In48  1  0.67834937  0.17723664  0.36862991  1
  In  In49  1  0.67239794  0.17276181  0.86690085  1
  In  In50  1  0.67227443  0.50436720  0.37129744  1
  In  In51  1  0.66665476  0.49477659  0.87537258  1
  In  In52  1  0.67529265  0.83980204  0.36741926  1
  In  In53  1  0.65943820  0.83122061  0.86194318  1
  In  In54  1  0.16525016  -0.01055105  0.12938854  1
  In  In55  1  0.15668964  0.01060021  0.62529610  1
  In  In56  1  0.16988471  0.33857057  0.14020603  1
  In  In57  1  0.16530842  0.32947811  0.62118921  1
  In  In58  1  0.17260864  0.67096332  0.13267874  1
  In  In59  1  0.18257064  0.66003077  0.62195082  1
  In  In60  1  0.50945714  0.01281806  0.11981771  1
  In  In61  1  0.50258050  0.00149798  0.65040102  1
  In  In62  1  0.49502723  0.34058144  0.12958798  1
  In  In63  1  0.49287723  0.33343430  0.63718897  1
  In  In64  1  0.51507043  0.66029926  0.12842967  1
  In  In65  1  0.50119845  0.66817740  0.63662813  1
  In  In66  1  0.82324165  0.01662542  0.12981373  1
  In  In67  1  0.82795872  -0.00193377  0.61705509  1
  In  In68  1  0.82842983  0.33231335  0.12865242  1
  In  In69  1  0.83504020  0.33415324  0.62258540  1
  In  In70  1  0.83402233  0.64558493  0.12466356  1
  In  In71  1  0.82218630  0.66082506  0.61947263  1
  In  In72  1  0.00226320  0.00498105  0.74859715  1
  In  In73  1  0.83231397  0.83441260  -0.00089368  1
  In  In74  1  0.17203918  0.83403130  -0.00249309  1
  In  In75  1  0.50698442  0.17222213  -0.00858035  1
  In  In76  1  -0.00105015  0.66179814  0.25332750  1
  In  In77  1  -0.00024034  0.66071980  0.75005950  1
  In  In78  1  0.33732040  0.00452953  0.24834998  1
  In  In79  1  0.16356696  0.50125697  0.00873063  1
  In  In80  1  0.50025882  0.16750092  0.50719426  1
  In  In81  1  0.16173939  0.17032481  -0.00337412  1
  In  In82  1  0.49929867  0.83733928  -0.01200299  1
  In  In83  1  0.49600819  0.50058220  0.50742440  1
  In  In84  1  0.50585662  0.83349213  0.51447696  1
  In  In85  1  0.16503803  0.83213979  0.50507370  1
  Cu  Cu86  1  -0.00717885  0.00251893  0.49568589  1
  Cu  Cu87  1  0.50521694  0.50371437  0.24931265  1
  Cu  Cu88  1  0.67025585  0.67576149  0.50013087  1
  Cu  Cu89  1  0.33216446  0.00451066  0.51204989  1
  Cu  Cu90  1  -0.00302904  0.65725586  -0.00002774  1
  Cu  Cu91  1  0.33507104  0.34190022  0.00129956  1
  Cu  Cu92  1  0.16966827  0.83549518  0.25561902  1
  Cu  Cu93  1  0.66900074  0.33370473  -0.00022358  1
  Cu  Cu94  1  0.83447568  0.16594047  0.25377956  1
  Cu  Cu95  1  0.67430073  0.33712328  0.50191139  1
  Cu  Cu96  1  -0.00583703  0.00838880  0.00719601  1
  Cu  Cu97  1  -0.00025701  0.33059130  0.49699610  1
  Cu  Cu98  1  0.50324772  0.17042051  0.24796909  1
  Cu  Cu99  1  0.83567477  0.17216842  0.74681937  1
  Cu  Cu100  1  0.33019416  0.65523456  0.49548713  1
  Cu  Cu101  1  0.67118480  0.00430280  0.49926354  1
  Cu  Cu102  1  0.50582744  0.83218477  0.24888116  1
  Cu  Cu103  1  0.66848983  0.65142260  0.00213848  1
  Cu  Cu104  1  -0.00772994  0.66303582  0.49805194  1
  Cu  Cu105  1  0.16389651  0.16953163  0.25592176  1
  Cu  Cu106  1  0.82844923  0.83764816  0.74661244  1
  Cu  Cu107  1  0.82621122  0.49657724  0.74606728  1
  Cu  Cu108  1  0.83043399  0.83500832  0.24985010  1
  Cu  Cu109  1  0.83090455  0.49339772  0.25269403  1
  Cu  Cu110  1  0.50497089  0.49867599  0.75200086  1
  Cu  Cu111  1  0.16418623  0.17098976  0.74564436  1
  Cu  Cu112  1  0.34284050  0.66857511  -0.00522611  1
  Cu  Cu113  1  -0.01638350  0.33035688  0.00305754  1
  Cu  Cu114  1  0.16519857  0.49266753  0.74504795  1
  Se  Se115  1  0.07959191  0.08362485  0.06619559  1
  Se  Se116  1  0.08304897  0.08136963  0.54632227  1
  Se  Se117  1  0.07313806  0.40355965  0.06192095  1
  Se  Se118  1  0.08271475  0.41392050  0.55151937  1
  Se  Se119  1  0.07789115  0.73982855  0.05706067  1
  Se  Se120  1  0.07310534  0.73921467  0.56227990  1
  Se  Se121  1  0.41158207  0.07994200  0.05008584  1
  Se  Se122  1  0.41787304  0.07658694  0.57213081  1
  Se  Se123  1  0.42295310  0.42097830  0.05248850  1
  Se  Se124  1  0.40794979  0.40101823  0.55792942  1
  Se  Se125  1  0.41788734  0.75000054  0.05891096  1
  Se  Se126  1  0.40649863  0.73661315  0.55828339  1
  Se  Se127  1  0.74441532  0.07915970  0.05047795  1
  Se  Se128  1  0.75008350  0.09192779  0.55282331  1
  Se  Se129  1  0.75059137  0.41577484  0.05664446  1
  Se  Se130  1  0.75402752  0.42411218  0.55476094  1
  Se  Se131  1  0.74552597  0.73952841  0.05980887  1
  Se  Se132  1  0.74909767  0.76038736  0.55638298  1
  Se  Se133  1  0.25293794  0.26167173  0.05885163  1
  Se  Se134  1  0.24262795  0.23768534  0.55533207  1
  Se  Se135  1  0.26072840  0.59463239  0.05936877  1
  Se  Se136  1  0.24679296  0.57181606  0.54760522  1
  Se  Se137  1  0.26138552  0.93326353  0.05279719  1
  Se  Se138  1  0.25763760  0.91551952  0.56845287  1
  Se  Se139  1  0.58923709  0.25443820  0.06259674  1
  Se  Se140  1  0.59077388  0.26172165  0.56314466  1
  Se  Se141  1  0.58060045  0.57330391  0.05412682  1
  Se  Se142  1  0.58980757  0.59515514  0.56053010  1
  Se  Se143  1  0.59132261  0.92341520  0.05097590  1
  Se  Se144  1  0.59029715  0.93444660  0.56724060  1
  Se  Se145  1  0.90652913  0.24434649  0.05761916  1
  Se  Se146  1  0.91390445  0.24969607  0.55104897  1
  Se  Se147  1  0.91408977  0.57271757  0.04941131  1
  Se  Se148  1  0.90800498  0.58096375  0.55209324  1
  Se  Se149  1  0.92296919  0.91786357  0.06476321  1
  Se  Se150  1  0.91066878  0.91653138  0.54663641  1
  Se  Se151  1  0.08409650  0.24824507  0.44269561  1
  Se  Se152  1  0.07110559  0.26234463  0.93903776  1
  Se  Se153  1  0.08133185  0.57917614  0.45188125  1
  Se  Se154  1  0.08429986  0.58952887  0.93667186  1
  Se  Se155  1  0.07749757  0.91819695  0.43905792  1
  Se  Se156  1  0.07753341  0.93398019  0.94534530  1
  Se  Se157  1  0.41259907  0.25855722  0.44629704  1
  Se  Se158  1  0.41016990  0.26236760  0.93743427  1
  Se  Se159  1  0.41135124  0.57843190  0.43556940  1
  Se  Se160  1  0.42473268  0.58016377  0.94637564  1
  Se  Se161  1  0.41217252  0.92498698  0.45162052  1
  Se  Se162  1  0.40946730  0.92673013  0.92995601  1
  Se  Se163  1  0.75148237  0.24844065  0.44824320  1
  Se  Se164  1  0.74815053  0.24934748  0.94293986  1
  Se  Se165  1  0.74550311  0.58435638  0.44769509  1
  Se  Se166  1  0.75381247  0.57379991  0.94671641  1
  Se  Se167  1  0.74822839  0.91733631  0.44419845  1
  Se  Se168  1  0.74191163  0.91654866  0.93582175  1
  Se  Se169  1  0.25113814  0.08556279  0.45634808  1
  Se  Se170  1  0.26199058  0.08878875  0.94153042  1
  Se  Se171  1  0.24805059  0.42078733  0.44023826  1
  Se  Se172  1  0.25050979  0.41762321  0.94091733  1
  Se  Se173  1  0.25078389  0.74314883  0.43982239  1
  Se  Se174  1  0.26725919  0.75369699  0.93724578  1
  Se  Se175  1  0.58735437  0.08170015  0.44012763  1
  Se  Se176  1  0.59455298  0.07611517  0.93762113  1
  Se  Se177  1  0.58821995  0.41381093  0.44380988  1
  Se  Se178  1  0.58202648  0.40940884  0.94281195  1
  Se  Se179  1  0.58470880  0.75119135  0.44079445  1
  Se  Se180  1  0.59567820  0.73892091  0.94134343  1
  Se  Se181  1  0.91121615  0.08705081  0.44254508  1
  Se  Se182  1  0.90914545  0.08982629  0.95545139  1
  Se  Se183  1  0.91266694  0.41631370  0.44826143  1
  Se  Se184  1  0.90944626  0.41716794  0.94558633  1
  Se  Se185  1  0.90967283  0.75141262  0.45068760  1
  Se  Se186  1  0.92474618  0.74240561  0.93832614  1
  Se  Se187  1  0.25170957  0.25129233  0.30565237  1
  Se  Se188  1  0.24869368  0.25540245  0.79842503  1
  Se  Se189  1  0.26701365  0.60195817  0.30017755  1
  Se  Se190  1  0.24832007  0.57124528  0.80226055  1
  Se  Se191  1  0.25080943  0.91658306  0.31559910  1
  Se  Se192  1  0.23547306  0.90137738  0.80098420  1
  Se  Se193  1  0.58615436  0.25304793  0.30276945  1
  Se  Se194  1  0.56895606  0.22476719  0.79742685  1
  Se  Se195  1  0.58874817  0.58703927  0.30303058  1
  Se  Se196  1  0.58742216  0.58209705  0.80662845  1
  Se  Se197  1  0.58641958  0.91985608  0.30018436  1
  Se  Se198  1  0.57894184  0.91563672  0.79704074  1
  Se  Se199  1  0.91724741  0.25243024  0.30486899  1
  Se  Se200  1  0.91801544  0.25341480  0.80267737  1
  Se  Se201  1  0.91140043  0.57363318  0.31500557  1
  Se  Se202  1  0.90635706  0.57416436  0.81022288  1
  Se  Se203  1  0.91546194  0.91701563  0.30252427  1
  Se  Se204  1  0.90966057  0.91364543  0.80963214  1
  Se  Se205  1  0.08226640  0.08166415  0.30520305  1
  Se  Se206  1  0.09015661  0.09301724  0.81435162  1
  Se  Se207  1  0.08500684  0.42048367  0.30233887  1
  Se  Se208  1  0.07640226  0.41511104  0.79811907  1
  Se  Se209  1  0.09074189  0.75226867  0.31536192  1
  Se  Se210  1  0.09015344  0.75499022  0.80619170  1
  Se  Se211  1  0.42303116  0.09340835  0.31334797  1
  Se  Se212  1  0.39775751  0.06886159  0.79903076  1
  Se  Se213  1  0.42335693  0.41681256  0.30076513  1
  Se  Se214  1  0.41915199  0.41309476  0.80216607  1
  Se  Se215  1  0.41921615  0.75258940  0.30173442  1
  Se  Se216  1  0.39824516  0.72331906  0.80106430  1
  Se  Se217  1  0.74780851  0.08015116  0.30288523  1
  Se  Se218  1  0.75619548  0.08444969  0.80051084  1
  Se  Se219  1  0.74717371  0.41028945  0.30670538  1
  Se  Se220  1  0.74509584  0.41209124  0.80226631  1
  Se  Se221  1  0.75176353  0.74658857  0.30248324  1
  Se  Se222  1  0.74950414  0.74843615  0.79843752  1
  Se  Se223  1  0.24425820  0.09517416  0.18894356  1
  Se  Se224  1  0.24360460  0.07852709  0.69816265  1
  Se  Se225  1  0.25408675  0.42527018  0.20034884  1
  Se  Se226  1  0.24975904  0.41109615  0.69132166  1
  Se  Se227  1  0.25367977  0.75545230  0.20062529  1
  Se  Se228  1  0.24755337  0.74057053  0.69782816  1
  Se  Se229  1  0.58487826  0.08261944  0.19775586  1
  Se  Se230  1  0.57898812  0.10215100  0.70661547  1
  Se  Se231  1  0.58591185  0.41480944  0.19758579  1
  Se  Se232  1  0.58639849  0.41294553  0.69903163  1
  Se  Se233  1  0.59099167  0.74895913  0.19683986  1
  Se  Se234  1  0.57658820  0.75825626  0.70117232  1
  Se  Se235  1  0.91836429  0.08225815  0.19933126  1
  Se  Se236  1  0.91531831  0.09137458  0.68473515  1
  Se  Se237  1  0.91555812  0.41271409  0.19852807  1
  Se  Se238  1  0.91532987  0.41683467  0.69536494  1
  Se  Se239  1  0.91040883  0.75224789  0.18881401  1
  Se  Se240  1  0.91141693  0.75548711  0.69022462  1
  Se  Se241  1  0.08172722  0.25481890  0.20268242  1
  Se  Se242  1  0.07806478  0.25270661  0.69402017  1
  Se  Se243  1  0.09143446  0.57384292  0.19330355  1
  Se  Se244  1  0.08501336  0.57367946  0.68484708  1
  Se  Se245  1  0.08446988  0.92005411  0.20633939  1
  Se  Se246  1  0.08873488  0.90660634  0.69262574  1
  Se  Se247  1  0.41510242  0.25351433  0.19921730  1
  Se  Se248  1  0.41764078  0.24239238  0.70151486  1
  Se  Se249  1  0.42144539  0.58681178  0.19447227  1
  Se  Se250  1  0.41817848  0.57350798  0.69395489  1
  Se  Se251  1  0.42632484  0.91313862  0.18614357  1
  Se  Se252  1  0.41684215  0.91015992  0.70966561  1
  Se  Se253  1  0.74884105  0.24830839  0.19967333  1
  Se  Se254  1  0.75135669  0.25493580  0.69376296  1
  Se  Se255  1  0.74955606  0.57964895  0.19936084  1
  Se  Se256  1  0.74582145  0.58622654  0.69628522  1
  Se  Se257  1  0.75038971  0.91883802  0.19370414  1
  Se  Se258  1  0.74997417  0.92682255  0.69486235  1
