# generated using pymatgen
data_In86Cu29Se144
_symmetry_space_group_name_H-M   'P 1'
_cell_length_a   17.57183269
_cell_length_b   17.57308764
_cell_length_c   23.42910346
_cell_angle_alpha   89.99873174
_cell_angle_beta   90.00704477
_cell_angle_gamma   90.01325317
_symmetry_Int_Tables_number   1
_chemical_formula_structural   In86Cu29Se144
_chemical_formula_sum   'In86 Cu29 Se144'
_cell_volume   7234.70437433
_cell_formula_units_Z   1
loop_
 _symmetry_equiv_pos_site_id
 _symmetry_equiv_pos_as_xyz
  1  'x, y, z'
loop_
 _atom_site_type_symbol
 _atom_site_label
 _atom_site_symmetry_multiplicity
 _atom_site_fract_x
 _atom_site_fract_y
 _atom_site_fract_z
 _atom_site_occupancy
  In  In0  1  0.01538894  0.15461638  0.13523318  1
  In  In1  1  0.00179368  0.16564424  0.62874286  1
  In  In2  1  -0.00746097  0.48921113  0.12962293  1
  In  In3  1  -0.00602828  0.48562069  0.61150790  1
  In  In4  1  0.00618339  0.85958341  0.11893450  1
  In  In5  1  0.01040619  0.83388654  0.62276314  1
  In  In6  1  0.33131059  0.16414105  0.12851415  1
  In  In7  1  0.32960533  0.14545005  0.60086061  1
  In  In8  1  0.33472904  0.49824089  0.12863845  1
  In  In9  1  0.33346198  0.51345822  0.62483032  1
  In  In10  1  0.34535461  0.82828534  0.13094944  1
  In  In11  1  0.32797837  0.83352780  0.61359538  1
  In  In12  1  0.64524455  0.16255753  0.12552719  1
  In  In13  1  0.66360573  0.16484174  0.62605818  1
  In  In14  1  0.66299307  0.51756581  0.12683741  1
  In  In15  1  0.66072317  0.48392454  0.62642017  1
  In  In16  1  0.66447856  0.84428577  0.12059412  1
  In  In17  1  0.66346318  0.85456789  0.61796518  1
  In  In18  1  0.17276971  0.00300965  0.38052807  1
  In  In19  1  0.16817218  0.01275161  0.87854757  1
  In  In20  1  0.16797350  0.32612931  0.38074046  1
  In  In21  1  0.15690826  0.32581435  0.86905185  1
  In  In22  1  0.18058380  0.66293867  0.37584449  1
  In  In23  1  0.16857839  0.65929763  0.86939708  1
  In  In24  1  0.50022956  -0.00234753  0.37596652  1
  In  In25  1  0.50351752  -0.00595488  0.88366626  1
  In  In26  1  0.48452694  0.33583147  0.37225526  1
  In  In27  1  0.50599828  0.32099941  0.87981169  1
  In  In28  1  0.49815088  0.68797228  0.38053763  1
  In  In29  1  0.48478003  0.67587906  0.88402968  1
  In  In30  1  0.83021192  -0.00631148  0.36617825  1
  In  In31  1  0.82865169  0.00296091  0.87235655  1
  In  In32  1  0.85475446  0.33114184  0.38272533  1
  In  In33  1  0.83576521  0.33285415  0.86634340  1
  In  In34  1  0.82533455  0.65710751  0.38006158  1
  In  In35  1  0.84083075  0.67461148  0.87612093  1
  In  In36  1  0.01277322  0.17403218  0.37307346  1
  In  In37  1  0.00293254  0.16528353  0.87179884  1
  In  In38  1  0.02311135  0.47584185  0.39752348  1
  In  In39  1  0.01344787  0.49076695  0.87179278  1
  In  In40  1  0.00460725  0.85258533  0.37164267  1
  In  In41  1  -0.01525207  0.83623529  0.87870386  1
  In  In42  1  0.33212237  0.16308615  0.38049440  1
  In  In43  1  0.33604584  0.15182318  0.89361492  1
  In  In44  1  0.32452314  0.48712891  0.36261307  1
  In  In45  1  0.33198954  0.51286033  0.87349628  1
  In  In46  1  0.34211744  0.83629435  0.37543404  1
  In  In47  1  0.34470210  0.83514525  0.87957625  1
  In  In48  1  0.65885821  0.14782069  0.37734709  1
  In  In49  1  0.66134260  0.16062164  0.86719970  1
  In  In50  1  0.67249723  0.51417697  0.38372087  1
  In  In51  1  0.66508547  0.48526069  0.87141719  1
  In  In52  1  0.64470878  0.83826370  0.38320809  1
  In  In53  1  0.65450598  0.84663752  0.87821620  1
  In  In54  1  0.15897107  0.01415044  0.13156794  1
  In  In55  1  0.16314493  -0.00901275  0.61343752  1
  In  In56  1  0.18012246  0.31871161  0.13669106  1
  In  In57  1  0.15368713  0.31832287  0.60978420  1
  In  In58  1  0.18011009  0.67465128  0.13056616  1
  In  In59  1  0.17616803  0.67346079  0.61628052  1
  In  In60  1  0.49553789  0.00322599  0.12860462  1
  In  In61  1  0.50835858  0.00352613  0.60720007  1
  In  In62  1  0.48169987  0.31755594  0.11755075  1
  In  In63  1  0.50979355  0.32691476  0.62789367  1
  In  In64  1  0.48725117  0.66699596  0.11190183  1
  In  In65  1  0.48446859  0.66340904  0.62859382  1
  In  In66  1  0.84148998  -0.00595432  0.13268114  1
  In  In67  1  0.82915459  0.00803492  0.63182649  1
  In  In68  1  0.84110161  0.33895680  0.13111974  1
  In  In69  1  0.83145648  0.33028613  0.62818807  1
  In  In70  1  0.81707270  0.67465884  0.12469850  1
  In  In71  1  0.84740762  0.66773444  0.62236158  1
  In  In72  1  0.66115368  0.66580383  0.74640978  1
  In  In73  1  0.83246156  0.82958891  0.49600589  1
  In  In74  1  0.17152123  0.49768288  0.00490756  1
  In  In75  1  0.00320828  0.66479458  0.74996878  1
  In  In76  1  0.33257106  0.32893971  0.74475591  1
  In  In77  1  0.50074742  0.50063281  0.50165065  1
  In  In78  1  0.82958607  0.16546946  -0.00347300  1
  In  In79  1  0.17710038  0.83990499  0.00060643  1
  In  In80  1  0.83232874  0.16639397  0.50439637  1
  In  In81  1  0.33365865  -0.00116808  0.75033677  1
  In  In82  1  0.66377617  0.67136551  0.25713909  1
  In  In83  1  0.66529175  0.33377802  0.24844132  1
  In  In84  1  0.82666120  0.50482924  -0.00371231  1
  In  In85  1  0.00007254  0.66631109  0.25220800  1
  Cu  Cu86  1  0.49664370  0.50005756  0.24378190  1
  Cu  Cu87  1  0.65893302  0.33918767  0.00013852  1
  Cu  Cu88  1  0.17535860  0.84389978  0.25059779  1
  Cu  Cu89  1  0.00568474  0.32284290  -0.00033435  1
  Cu  Cu90  1  0.83553587  0.83489520  0.24576495  1
  Cu  Cu91  1  0.83205473  0.16547176  0.25607368  1
  Cu  Cu92  1  0.84487614  0.49157834  0.26036658  1
  Cu  Cu93  1  0.17029526  0.16664546  0.25807141  1
  Cu  Cu94  1  0.00074646  0.00449931  0.49890558  1
  Cu  Cu95  1  0.49658395  0.83998880  0.75239560  1
  Cu  Cu96  1  0.33400584  0.66674811  0.49503822  1
  Cu  Cu97  1  0.16573260  0.16603417  0.74838038  1
  Cu  Cu98  1  0.65585481  0.67626833  -0.00065279  1
  Cu  Cu99  1  0.33273085  0.33218158  0.49616526  1
  Cu  Cu100  1  0.49032785  0.16088159  0.25089210  1
  Cu  Cu101  1  0.66835717  0.32804661  0.50368745  1
  Cu  Cu102  1  0.16574233  0.49621321  0.25806432  1
  Cu  Cu103  1  0.49725610  0.49794847  0.74924325  1
  Cu  Cu104  1  0.82744800  0.84608829  0.75339143  1
  Cu  Cu105  1  0.16965045  0.83491662  0.74052151  1
  Cu  Cu106  1  -0.00422221  0.67577657  0.00213030  1
  Cu  Cu107  1  0.66231315  0.00184591  -0.00017783  1
  Cu  Cu108  1  0.50072600  0.83783350  0.25134326  1
  Cu  Cu109  1  0.83670448  0.16844232  0.74948606  1
  Cu  Cu110  1  0.16474949  0.49736189  0.74367676  1
  Cu  Cu111  1  0.50168179  0.16449257  0.74495094  1
  Cu  Cu112  1  0.33017993  0.33311596  0.00548752  1
  Cu  Cu113  1  0.83439178  0.49123832  0.74474261  1
  Cu  Cu114  1  0.01032425  0.67122014  0.49975519  1
  Se  Se115  1  0.07673285  0.08026379  0.05395876  1
  Se  Se116  1  0.08094050  0.08740114  0.55496487  1
  Se  Se117  1  0.08064737  0.40524394  0.06244569  1
  Se  Se118  1  0.09979854  0.42858052  0.54943759  1
  Se  Se119  1  0.08206573  0.74730326  0.06214925  1
  Se  Se120  1  0.09135561  0.75887931  0.55012543  1
  Se  Se121  1  0.43448092  0.10526756  0.06268590  1
  Se  Se122  1  0.42710676  0.08116138  0.53520522  1
  Se  Se123  1  0.41390989  0.41977236  0.05480029  1
  Se  Se124  1  0.41104798  0.40837845  0.56205735  1
  Se  Se125  1  0.41556746  0.76196925  0.04788658  1
  Se  Se126  1  0.41712280  0.74503072  0.55215911  1
  Se  Se127  1  0.74219382  0.07979594  0.06223612  1
  Se  Se128  1  0.73886213  0.07037386  0.55422938  1
  Se  Se129  1  0.74222119  0.41303759  0.06194687  1
  Se  Se130  1  0.74950274  0.41178130  0.55696406  1
  Se  Se131  1  0.74391358  0.75532901  0.05177268  1
  Se  Se132  1  0.74603166  0.74679709  0.56396494  1
  Se  Se133  1  0.24762131  0.24644795  0.05590317  1
  Se  Se134  1  0.24889295  0.24489498  0.54520816  1
  Se  Se135  1  0.26041766  0.59520723  0.05598060  1
  Se  Se136  1  0.25229276  0.58224022  0.54847670  1
  Se  Se137  1  0.25398737  0.92376472  0.07134401  1
  Se  Se138  1  0.26537390  0.93331563  0.54810968  1
  Se  Se139  1  0.58016583  0.25021807  0.05126903  1
  Se  Se140  1  0.58248859  0.24557657  0.55371074  1
  Se  Se141  1  0.58142462  0.58401964  0.05095996  1
  Se  Se142  1  0.58769874  0.58832791  0.56536685  1
  Se  Se143  1  0.57550358  0.92187481  0.05393529  1
  Se  Se144  1  0.56344524  0.89367197  0.54302436  1
  Se  Se145  1  0.92007762  0.25128875  0.06125358  1
  Se  Se146  1  0.92601224  0.25859374  0.55643229  1
  Se  Se147  1  0.91912869  0.58982728  0.06185071  1
  Se  Se148  1  0.92410320  0.58886890  0.55058425  1
  Se  Se149  1  0.90306971  0.91303020  0.05328436  1
  Se  Se150  1  0.91817785  0.92406311  0.55862267  1
  Se  Se151  1  0.06966705  0.26231424  0.44897695  1
  Se  Se152  1  0.08748702  0.24299131  0.94419737  1
  Se  Se153  1  0.09373660  0.58760220  0.44662362  1
  Se  Se154  1  0.07425348  0.59069775  0.94520979  1
  Se  Se155  1  0.08524517  0.91857499  0.44884682  1
  Se  Se156  1  0.07780056  0.91978151  0.94208132  1
  Se  Se157  1  0.41994624  0.25002437  0.44662549  1
  Se  Se158  1  0.41479547  0.25141905  0.94996709  1
  Se  Se159  1  0.41228915  0.58285684  0.43435375  1
  Se  Se160  1  0.41678936  0.57668500  0.94780536  1
  Se  Se161  1  0.45535255  0.88271955  0.44062584  1
  Se  Se162  1  0.39535555  0.93927803  0.94545274  1
  Se  Se163  1  0.74340010  0.25213129  0.43666008  1
  Se  Se164  1  0.74195897  0.26168992  0.93931668  1
  Se  Se165  1  0.75846490  0.57866065  0.45780865  1
  Se  Se166  1  0.73563401  0.59577690  0.93650839  1
  Se  Se167  1  0.74107607  0.92519960  0.44322026  1
  Se  Se168  1  0.74723727  0.92253021  0.94361007  1
  Se  Se169  1  0.24355122  0.09149765  0.45167087  1
  Se  Se170  1  0.24463067  0.07766721  0.95772658  1
  Se  Se171  1  0.25242891  0.41921845  0.44404648  1
  Se  Se172  1  0.25277328  0.40737786  0.93697370  1
  Se  Se173  1  0.25338365  0.75538769  0.44331965  1
  Se  Se174  1  0.25435909  0.73907865  0.93947848  1
  Se  Se175  1  0.57092671  0.08521246  0.45072264  1
  Se  Se176  1  0.58421035  0.08952674  0.94499893  1
  Se  Se177  1  0.58924776  0.40794863  0.43979514  1
  Se  Se178  1  0.57673324  0.42053652  0.94517174  1
  Se  Se179  1  0.62103782  0.71238260  0.43713535  1
  Se  Se180  1  0.57421529  0.76091519  0.94563403  1
  Se  Se181  1  0.91671134  0.07769961  0.43761725  1
  Se  Se182  1  0.92409626  0.07580519  0.94324548  1
  Se  Se183  1  0.90319536  0.43247391  0.45206719  1
  Se  Se184  1  0.92492167  0.40939667  0.94390130  1
  Se  Se185  1  0.92924402  0.74611320  0.43547497  1
  Se  Se186  1  0.90792529  0.75601723  0.95271140  1
  Se  Se187  1  0.25481900  0.25105670  0.30974009  1
  Se  Se188  1  0.25348086  0.23525023  0.81063279  1
  Se  Se189  1  0.25360710  0.58649995  0.29857128  1
  Se  Se190  1  0.24752258  0.58084450  0.79703736  1
  Se  Se191  1  0.25694732  0.92214667  0.31007835  1
  Se  Se192  1  0.24254072  0.90974456  0.81057021  1
  Se  Se193  1  0.57549719  0.24326393  0.30854001  1
  Se  Se194  1  0.58119572  0.24989684  0.80027418  1
  Se  Se195  1  0.57276949  0.57437954  0.31051534  1
  Se  Se196  1  0.57504492  0.57981017  0.81173656  1
  Se  Se197  1  0.58732064  0.91967809  0.30256909  1
  Se  Se198  1  0.57980697  0.92557979  0.80280165  1
  Se  Se199  1  0.91835289  0.24835933  0.30524629  1
  Se  Se200  1  0.92229826  0.25027771  0.80254112  1
  Se  Se201  1  0.92260996  0.57498361  0.31873790  1
  Se  Se202  1  0.90955542  0.57159888  0.80918610  1
  Se  Se203  1  0.92008179  0.92033860  0.29667278  1
  Se  Se204  1  0.91827854  0.92261909  0.80459782  1
  Se  Se205  1  0.08601692  0.07944458  0.30820911  1
  Se  Se206  1  0.08482245  0.08058517  0.80226574  1
  Se  Se207  1  0.08453792  0.41142938  0.30996682  1
  Se  Se208  1  0.08383573  0.41139222  0.79610447  1
  Se  Se209  1  0.09266542  0.75910335  0.30812253  1
  Se  Se210  1  0.08910016  0.76137978  0.80853357  1
  Se  Se211  1  0.41197216  0.07857393  0.30950097  1
  Se  Se212  1  0.42118066  0.09109115  0.81012241  1
  Se  Se213  1  0.41476100  0.41219786  0.29406035  1
  Se  Se214  1  0.41827448  0.41594843  0.81043633  1
  Se  Se215  1  0.41784742  0.74933581  0.30107667  1
  Se  Se216  1  0.41604493  0.75314376  0.80381858  1
  Se  Se217  1  0.74476340  0.08083140  0.30267973  1
  Se  Se218  1  0.75011892  0.08408598  0.80013547  1
  Se  Se219  1  0.75223691  0.41856689  0.31550289  1
  Se  Se220  1  0.74825561  0.41192033  0.79876568  1
  Se  Se221  1  0.75961359  0.76078988  0.31258916  1
  Se  Se222  1  0.75086771  0.75634878  0.80824624  1
  Se  Se223  1  0.25089223  0.08421655  0.20128481  1
  Se  Se224  1  0.24610189  0.08714798  0.68682320  1
  Se  Se225  1  0.25015966  0.41909532  0.19821333  1
  Se  Se226  1  0.24406828  0.41653708  0.68278129  1
  Se  Se227  1  0.25675619  0.75341428  0.20273334  1
  Se  Se228  1  0.25477157  0.75217454  0.69034957  1
  Se  Se229  1  0.58138408  0.08018646  0.20275578  1
  Se  Se230  1  0.57788109  0.07627691  0.68949743  1
  Se  Se231  1  0.57714188  0.41995096  0.18381087  1
  Se  Se232  1  0.58167502  0.41108572  0.70207417  1
  Se  Se233  1  0.57740130  0.75332655  0.18916497  1
  Se  Se234  1  0.57521837  0.76088918  0.68842227  1
  Se  Se235  1  0.91628453  0.08493171  0.19947437  1
  Se  Se236  1  0.91999497  0.08287984  0.69804031  1
  Se  Se237  1  0.92522483  0.40750506  0.20648963  1
  Se  Se238  1  0.92267735  0.41337324  0.69231620  1
  Se  Se239  1  0.91550090  0.75482168  0.18584916  1
  Se  Se240  1  0.91068598  0.76406534  0.69626536  1
  Se  Se241  1  0.08454893  0.24911324  0.20349487  1
  Se  Se242  1  0.08590846  0.25256623  0.69532289  1
  Se  Se243  1  0.09126223  0.57469774  0.19030415  1
  Se  Se244  1  0.08719781  0.58101400  0.68311715  1
  Se  Se245  1  0.08365636  0.92136471  0.20028355  1
  Se  Se246  1  0.08495581  0.92095357  0.69290970  1
  Se  Se247  1  0.41130030  0.25093234  0.20001400  1
  Se  Se248  1  0.41341874  0.23246392  0.68252643  1
  Se  Se249  1  0.41854992  0.58938281  0.19157574  1
  Se  Se250  1  0.41079316  0.58396032  0.70371192  1
  Se  Se251  1  0.41513226  0.92101322  0.20014368  1
  Se  Se252  1  0.42161712  0.91600300  0.68472279  1
  Se  Se253  1  0.75433429  0.24017826  0.18876376  1
  Se  Se254  1  0.74837597  0.24597826  0.69456355  1
  Se  Se255  1  0.76287597  0.57511503  0.20227702  1
  Se  Se256  1  0.75825316  0.57827966  0.68837551  1
  Se  Se257  1  0.74620227  0.91643777  0.19608122  1
  Se  Se258  1  0.74279768  0.92241464  0.69628494  1
