# generated using pymatgen
data_In86Cu29Se144
_symmetry_space_group_name_H-M   'P 1'
_cell_length_a   17.57895553
_cell_length_b   17.57784694
_cell_length_c   23.44011660
_cell_angle_alpha   89.98616283
_cell_angle_beta   89.99844603
_cell_angle_gamma   89.99072620
_symmetry_Int_Tables_number   1
_chemical_formula_structural   In86Cu29Se144
_chemical_formula_sum   'In86 Cu29 Se144'
_cell_volume   7243.00017049
_cell_formula_units_Z   1
loop_
 _symmetry_equiv_pos_site_id
 _symmetry_equiv_pos_as_xyz
  1  'x, y, z'
loop_
 _atom_site_type_symbol
 _atom_site_label
 _atom_site_symmetry_multiplicity
 _atom_site_fract_x
 _atom_site_fract_y
 _atom_site_fract_z
 _atom_site_occupancy
  In  In0  1  -0.01836764  0.16546320  0.12302292  1
  In  In1  1  -0.01248781  0.17385290  0.61710060  1
  In  In2  1  0.01011583  0.50892313  0.12967816  1
  In  In3  1  0.00850401  0.50647560  0.62267467  1
  In  In4  1  0.00499210  0.82661640  0.13367643  1
  In  In5  1  -0.00812304  0.82863428  0.62601969  1
  In  In6  1  0.33405788  0.16555375  0.13584721  1
  In  In7  1  0.35032551  0.15985544  0.62515929  1
  In  In8  1  0.34332155  0.49306679  0.13535024  1
  In  In9  1  0.34092717  0.49941735  0.62516949  1
  In  In10  1  0.33382395  0.83266185  0.12424096  1
  In  In11  1  0.34113536  0.83323636  0.62237671  1
  In  In12  1  0.67357323  0.16205295  0.13700139  1
  In  In13  1  0.66376566  0.16875928  0.62170516  1
  In  In14  1  0.64656435  0.50442086  0.12822755  1
  In  In15  1  0.64546726  0.49753194  0.60794787  1
  In  In16  1  0.66361756  0.84808489  0.12800383  1
  In  In17  1  0.66048166  0.85027589  0.62970666  1
  In  In18  1  0.16863407  -0.00083600  0.36477427  1
  In  In19  1  0.16694440  -0.01328662  0.87878102  1
  In  In20  1  0.17387197  0.32654008  0.37243982  1
  In  In21  1  0.17799038  0.32268015  0.87400611  1
  In  In22  1  0.17620009  0.67202580  0.36925712  1
  In  In23  1  0.17888293  0.67346808  0.86953657  1
  In  In24  1  0.49447640  -0.00549518  0.37858109  1
  In  In25  1  0.49086433  -0.01077436  0.86564905  1
  In  In26  1  0.49529854  0.32728986  0.38165815  1
  In  In27  1  0.50554764  0.33962660  0.86529786  1
  In  In28  1  0.48817955  0.67038998  0.39821029  1
  In  In29  1  0.48753109  0.67471104  0.88103660  1
  In  In30  1  0.84016069  0.00622280  0.36404535  1
  In  In31  1  0.83737269  0.01464307  0.87760505  1
  In  In32  1  0.82132350  0.34766976  0.38716035  1
  In  In33  1  0.81494749  0.32416296  0.87028135  1
  In  In34  1  0.82772086  0.65475708  0.37485871  1
  In  In35  1  0.83651108  0.65539528  0.86922816  1
  In  In36  1  0.00270087  0.15728466  0.37415162  1
  In  In37  1  -0.01416260  0.14677834  0.87813208  1
  In  In38  1  -0.01686396  0.49921424  0.37706949  1
  In  In39  1  -0.00781838  0.50798118  0.87038259  1
  In  In40  1  -0.00265525  0.83616719  0.35784895  1
  In  In41  1  0.01721413  0.83505832  0.88056709  1
  In  In42  1  0.34399121  0.16887636  0.37442725  1
  In  In43  1  0.34195618  0.17045594  0.86306262  1
  In  In44  1  0.34202951  0.50348524  0.37892174  1
  In  In45  1  0.34311676  0.50919690  0.86641697  1
  In  In46  1  0.34217197  0.83301049  0.37556636  1
  In  In47  1  0.33332935  0.83313124  0.87571544  1
  In  In48  1  0.66101222  0.16736791  0.37563448  1
  In  In49  1  0.66771196  0.16800813  0.86857112  1
  In  In50  1  0.67358319  0.50100254  0.38609276  1
  In  In51  1  0.66303575  0.48413578  0.86921421  1
  In  In52  1  0.64911627  0.82546532  0.37820433  1
  In  In53  1  0.64869558  0.83204995  0.87308592  1
  In  In54  1  0.17903644  -0.00895007  0.13025830  1
  In  In55  1  0.17825565  0.00985482  0.62541939  1
  In  In56  1  0.17143103  0.34221969  0.12974456  1
  In  In57  1  0.17369826  0.34292037  0.62556150  1
  In  In58  1  0.16093778  0.67963825  0.13115822  1
  In  In59  1  0.17024823  0.66629469  0.63211258  1
  In  In60  1  0.50740744  -0.00593186  0.13300430  1
  In  In61  1  0.49669994  0.00821644  0.61701888  1
  In  In62  1  0.49585342  0.33760072  0.13612887  1
  In  In63  1  0.49516543  0.34036469  0.61883843  1
  In  In64  1  0.48816537  0.65931147  0.12107344  1
  In  In65  1  0.48194001  0.65900273  0.59823274  1
  In  In66  1  0.81925427  0.00168037  0.13902865  1
  In  In67  1  0.81645873  0.00037491  0.62400836  1
  In  In68  1  0.82920907  0.32064316  0.12652691  1
  In  In69  1  0.82182743  0.31892020  0.61120653  1
  In  In70  1  0.83897466  0.68061559  0.13252179  1
  In  In71  1  0.84517343  0.66437233  0.62508114  1
  In  In72  1  0.83107731  0.83836775  0.00700997  1
  In  In73  1  0.16811863  0.50190115  0.00383878  1
  In  In74  1  0.16392445  0.16126981  0.00210560  1
  In  In75  1  0.65864717  0.66653391  0.74039208  1
  In  In76  1  0.82535011  0.49671647  -0.00412569  1
  In  In77  1  0.17333149  0.16939197  0.49529421  1
  In  In78  1  0.00560973  -0.00556345  0.75792543  1
  In  In79  1  0.00589082  0.33957014  0.74637990  1
  In  In80  1  0.82500850  0.83257159  0.49316367  1
  In  In81  1  0.17034639  0.49560024  0.50252770  1
  In  In82  1  0.00078493  0.33221838  0.25013069  1
  In  In83  1  0.50190692  0.16274409  0.00155444  1
  In  In84  1  0.66483373  0.66740715  0.25606872  1
  In  In85  1  0.17447176  0.83688158  0.49495999  1
  Cu  Cu86  1  0.82606256  0.17348280  0.25443208  1
  Cu  Cu87  1  0.33201935  -0.00654402  -0.00088655  1
  Cu  Cu88  1  0.49864213  0.16373114  0.25727017  1
  Cu  Cu89  1  0.18041422  0.16929964  0.74713236  1
  Cu  Cu90  1  0.00051795  0.66403392  0.49794945  1
  Cu  Cu91  1  -0.01046279  0.32420706  -0.00010437  1
  Cu  Cu92  1  0.65285305  0.66700424  0.00080750  1
  Cu  Cu93  1  0.66427768  0.01124095  0.49849199  1
  Cu  Cu94  1  0.50690556  0.17066093  0.74245871  1
  Cu  Cu95  1  0.17553574  0.50379845  0.25148536  1
  Cu  Cu96  1  0.17311480  0.50766499  0.74684372  1
  Cu  Cu97  1  0.83243140  0.49625914  0.74585923  1
  Cu  Cu98  1  0.50121429  0.49670032  0.25924903  1
  Cu  Cu99  1  -0.00601578  0.00389788  0.49303493  1
  Cu  Cu100  1  0.17251535  0.83202023  0.75325639  1
  Cu  Cu101  1  0.66136511  0.32945508  0.49835837  1
  Cu  Cu102  1  0.49431347  0.83672075  0.74658879  1
  Cu  Cu103  1  0.49422467  0.82887072  0.25437602  1
  Cu  Cu104  1  0.49790688  0.50479441  0.74070401  1
  Cu  Cu105  1  0.34206194  0.33906348  0.00513054  1
  Cu  Cu106  1  0.17617596  0.82949533  0.24866301  1
  Cu  Cu107  1  0.00059446  0.67140659  0.00458169  1
  Cu  Cu108  1  0.82891826  0.16546080  0.74556018  1
  Cu  Cu109  1  0.32908355  0.67080694  -0.00002787  1
  Cu  Cu110  1  0.83034455  0.49911225  0.25716472  1
  Cu  Cu111  1  0.66499401  0.00070678  0.00545725  1
  Cu  Cu112  1  0.83249534  0.83004312  0.74606557  1
  Cu  Cu113  1  0.66046756  0.32852959  -0.00397653  1
  Cu  Cu114  1  0.16716326  0.15967682  0.25291616  1
  Se  Se115  1  0.07955523  0.07675251  0.06693036  1
  Se  Se116  1  0.07724827  0.07709155  0.55610882  1
  Se  Se117  1  0.07056971  0.40586595  0.05691940  1
  Se  Se118  1  0.07370760  0.40307844  0.55530825  1
  Se  Se119  1  0.08457985  0.75486453  0.05486002  1
  Se  Se120  1  0.08021354  0.74640378  0.55639056  1
  Se  Se121  1  0.40843069  0.07629000  0.06098191  1
  Se  Se122  1  0.42430439  0.09579472  0.54405947  1
  Se  Se123  1  0.42400292  0.41962627  0.05968565  1
  Se  Se124  1  0.42945615  0.43889225  0.54908245  1
  Se  Se125  1  0.41626571  0.75151540  0.05292035  1
  Se  Se126  1  0.42697077  0.77520914  0.54260680  1
  Se  Se127  1  0.74657759  0.08132333  0.06133853  1
  Se  Se128  1  0.75229678  0.08933200  0.55141237  1
  Se  Se129  1  0.73810847  0.41056228  0.05988679  1
  Se  Se130  1  0.74378009  0.41623605  0.55076999  1
  Se  Se131  1  0.73771593  0.74124306  0.06097575  1
  Se  Se132  1  0.74928055  0.75417666  0.56847490  1
  Se  Se133  1  0.25748254  0.25657327  0.05920356  1
  Se  Se134  1  0.25891555  0.25477606  0.56125864  1
  Se  Se135  1  0.25670435  0.58826509  0.06550889  1
  Se  Se136  1  0.25575197  0.59338247  0.55791468  1
  Se  Se137  1  0.24824027  0.91177181  0.05248794  1
  Se  Se138  1  0.26025292  0.93053931  0.55344157  1
  Se  Se139  1  0.58692147  0.25248050  0.06443401  1
  Se  Se140  1  0.57766179  0.25018482  0.55456092  1
  Se  Se141  1  0.57315363  0.57835899  0.05104965  1
  Se  Se142  1  0.60364321  0.61206345  0.54602822  1
  Se  Se143  1  0.57801542  0.91673033  0.05360589  1
  Se  Se144  1  0.58595911  0.92298937  0.55185246  1
  Se  Se145  1  0.90293520  0.24420412  0.04978155  1
  Se  Se146  1  0.91456748  0.24927204  0.54283056  1
  Se  Se147  1  0.91760152  0.58673025  0.05794611  1
  Se  Se148  1  0.92025153  0.58105127  0.55248950  1
  Se  Se149  1  0.91689339  0.92141349  0.07174300  1
  Se  Se150  1  0.91853310  0.92288746  0.55626971  1
  Se  Se151  1  0.07547062  0.25746595  0.44040027  1
  Se  Se152  1  0.07413142  0.25193943  0.93814453  1
  Se  Se153  1  0.08414709  0.58734341  0.43792548  1
  Se  Se154  1  0.07751093  0.59011759  0.94177471  1
  Se  Se155  1  0.07448738  0.92103770  0.43721372  1
  Se  Se156  1  0.07225988  0.93168969  0.95059799  1
  Se  Se157  1  0.42070368  0.23770736  0.45214878  1
  Se  Se158  1  0.41471244  0.25625919  0.94134925  1
  Se  Se159  1  0.42482980  0.56353231  0.45975739  1
  Se  Se160  1  0.41078753  0.58306281  0.94776949  1
  Se  Se161  1  0.43222698  0.89574767  0.45014033  1
  Se  Se162  1  0.41907767  0.91507518  0.94471968  1
  Se  Se163  1  0.74654740  0.24694628  0.44606431  1
  Se  Se164  1  0.74550376  0.24356263  0.94630808  1
  Se  Se165  1  0.76119123  0.58062258  0.45352423  1
  Se  Se166  1  0.73397193  0.59102632  0.93828281  1
  Se  Se167  1  0.73918963  0.92741779  0.43520381  1
  Se  Se168  1  0.74064880  0.92006971  0.94006577  1
  Se  Se169  1  0.25616672  0.07161424  0.43863041  1
  Se  Se170  1  0.26242123  0.08297113  0.93880311  1
  Se  Se171  1  0.25938762  0.40397993  0.44421966  1
  Se  Se172  1  0.25862905  0.41302138  0.94250570  1
  Se  Se173  1  0.26343290  0.73690273  0.44648846  1
  Se  Se174  1  0.24625714  0.75413643  0.94658604  1
  Se  Se175  1  0.57531559  0.08586964  0.44366993  1
  Se  Se176  1  0.58641834  0.07356961  0.93780893  1
  Se  Se177  1  0.58130783  0.41596649  0.44580315  1
  Se  Se178  1  0.57956266  0.41497126  0.94437842  1
  Se  Se179  1  0.60656156  0.72487065  0.45165393  1
  Se  Se180  1  0.57473507  0.75521029  0.94853639  1
  Se  Se181  1  0.90923505  0.08620991  0.44252007  1
  Se  Se182  1  0.91610737  0.07579580  0.95741850  1
  Se  Se183  1  0.91980624  0.41565461  0.45171345  1
  Se  Se184  1  0.91814836  0.40628836  0.93527841  1
  Se  Se185  1  0.92622311  0.74864594  0.43747532  1
  Se  Se186  1  0.91496247  0.74353849  0.94205744  1
  Se  Se187  1  0.25210843  0.24326558  0.30393215  1
  Se  Se188  1  0.26035315  0.25882048  0.79700259  1
  Se  Se189  1  0.26015530  0.58295692  0.30707065  1
  Se  Se190  1  0.25761782  0.59087850  0.79969417  1
  Se  Se191  1  0.25701475  0.91109521  0.30554945  1
  Se  Se192  1  0.25275833  0.91919408  0.80517299  1
  Se  Se193  1  0.57968002  0.25252709  0.30705180  1
  Se  Se194  1  0.58773741  0.25274335  0.80028465  1
  Se  Se195  1  0.57654694  0.58151908  0.31911992  1
  Se  Se196  1  0.57483610  0.58053740  0.80907481  1
  Se  Se197  1  0.57811386  0.91248887  0.30659713  1
  Se  Se198  1  0.58404406  0.91656449  0.79702434  1
  Se  Se199  1  0.90958741  0.25171029  0.31440268  1
  Se  Se200  1  0.91572780  0.24262200  0.80458199  1
  Se  Se201  1  0.91727052  0.58564919  0.30210102  1
  Se  Se202  1  0.91678209  0.58284930  0.79396524  1
  Se  Se203  1  0.91518170  0.92089467  0.29436397  1
  Se  Se204  1  0.90953935  0.90543207  0.81407085  1
  Se  Se205  1  0.07716455  0.07770205  0.29956141  1
  Se  Se206  1  0.09670416  0.09455787  0.81014578  1
  Se  Se207  1  0.08985417  0.42553099  0.31067808  1
  Se  Se208  1  0.09688855  0.42684407  0.81159767  1
  Se  Se209  1  0.08905107  0.74832387  0.30101613  1
  Se  Se210  1  0.08470745  0.75146295  0.80510439  1
  Se  Se211  1  0.41434887  0.07590359  0.30549665  1
  Se  Se212  1  0.42443454  0.08628149  0.79794203  1
  Se  Se213  1  0.41536948  0.41243649  0.31009455  1
  Se  Se214  1  0.41825618  0.41987637  0.79832518  1
  Se  Se215  1  0.42309630  0.73941244  0.31248759  1
  Se  Se216  1  0.41565268  0.75219334  0.80387785  1
  Se  Se217  1  0.74341376  0.08568340  0.30425533  1
  Se  Se218  1  0.75146269  0.08074083  0.80266420  1
  Se  Se219  1  0.74476014  0.41889661  0.30864389  1
  Se  Se220  1  0.74851087  0.41230976  0.79684515  1
  Se  Se221  1  0.75649244  0.75888545  0.31241886  1
  Se  Se222  1  0.75051655  0.75107400  0.80787342  1
  Se  Se223  1  0.25399867  0.07793284  0.20094610  1
  Se  Se224  1  0.26213726  0.08290666  0.69674609  1
  Se  Se225  1  0.25477533  0.41275974  0.20254440  1
  Se  Se226  1  0.25493131  0.42151632  0.69565447  1
  Se  Se227  1  0.26026910  0.74466469  0.19683947  1
  Se  Se228  1  0.25509738  0.75537524  0.69293781  1
  Se  Se229  1  0.58265315  0.08272973  0.20098467  1
  Se  Se230  1  0.58505977  0.08151093  0.69014511  1
  Se  Se231  1  0.58525199  0.41682752  0.20360919  1
  Se  Se232  1  0.58228241  0.42096362  0.68964664  1
  Se  Se233  1  0.57511609  0.75143566  0.19029521  1
  Se  Se234  1  0.56604544  0.75326350  0.68210783  1
  Se  Se235  1  0.90940877  0.09036711  0.20018946  1
  Se  Se236  1  0.91623763  0.08301068  0.69233053  1
  Se  Se237  1  0.90949400  0.42478922  0.18954501  1
  Se  Se238  1  0.91109433  0.41708635  0.68304346  1
  Se  Se239  1  0.92474821  0.74522384  0.20428022  1
  Se  Se240  1  0.92021947  0.74641282  0.69973472  1
  Se  Se241  1  0.08949991  0.23990718  0.18867334  1
  Se  Se242  1  0.09071157  0.23988067  0.68773090  1
  Se  Se243  1  0.08847897  0.58654048  0.20078949  1
  Se  Se244  1  0.08141252  0.58647045  0.69821657  1
  Se  Se245  1  0.09034403  0.91348273  0.19805707  1
  Se  Se246  1  0.09307315  0.91032920  0.68868081  1
  Se  Se247  1  0.41672170  0.24905622  0.20211972  1
  Se  Se248  1  0.42013643  0.25521925  0.69257405  1
  Se  Se249  1  0.42202639  0.58190461  0.20195298  1
  Se  Se250  1  0.42117654  0.59463064  0.68732793  1
  Se  Se251  1  0.41597754  0.91345329  0.19614942  1
  Se  Se252  1  0.41739013  0.92347609  0.68962963  1
  Se  Se253  1  0.74362763  0.25999204  0.20342998  1
  Se  Se254  1  0.74864092  0.25116211  0.69257416  1
  Se  Se255  1  0.75421398  0.57765337  0.19040402  1
  Se  Se256  1  0.75022143  0.57388774  0.68449087  1
  Se  Se257  1  0.74897458  0.90596121  0.20426826  1
  Se  Se258  1  0.74936417  0.92014362  0.70183199  1
