# generated using pymatgen
data_In86Cu29Se144
_symmetry_space_group_name_H-M   'P 1'
_cell_length_a   17.57678499
_cell_length_b   17.58021617
_cell_length_c   23.43805605
_cell_angle_alpha   90.00870261
_cell_angle_beta   89.99378872
_cell_angle_gamma   89.98376114
_symmetry_Int_Tables_number   1
_chemical_formula_structural   In86Cu29Se144
_chemical_formula_sum   'In86 Cu29 Se144'
_cell_volume   7242.44514859
_cell_formula_units_Z   1
loop_
 _symmetry_equiv_pos_site_id
 _symmetry_equiv_pos_as_xyz
  1  'x, y, z'
loop_
 _atom_site_type_symbol
 _atom_site_label
 _atom_site_symmetry_multiplicity
 _atom_site_fract_x
 _atom_site_fract_y
 _atom_site_fract_z
 _atom_site_occupancy
  In  In0  1  0.00007238  0.16422647  0.13099705  1
  In  In1  1  0.00026009  0.16147523  0.61762426  1
  In  In2  1  -0.01459719  0.50166518  0.12346460  1
  In  In3  1  0.00348631  0.51085065  0.63057218  1
  In  In4  1  0.01784111  0.83179756  0.12433396  1
  In  In5  1  -0.00218651  0.81618137  0.60236191  1
  In  In6  1  0.32097040  0.16062553  0.12615702  1
  In  In7  1  0.32529476  0.15560252  0.61849113  1
  In  In8  1  0.34843198  0.50191815  0.12083070  1
  In  In9  1  0.34768426  0.50059163  0.62841691  1
  In  In10  1  0.33294772  0.83285008  0.13068483  1
  In  In11  1  0.33521175  0.83481865  0.62283983  1
  In  In12  1  0.68127310  0.15999160  0.12457557  1
  In  In13  1  0.67104384  0.17368223  0.61564557  1
  In  In14  1  0.67340667  0.50337781  0.12186405  1
  In  In15  1  0.65573266  0.50109184  0.62684093  1
  In  In16  1  0.64874932  0.83311460  0.12620702  1
  In  In17  1  0.66808435  0.83418988  0.61741597  1
  In  In18  1  0.16679766  -0.00150054  0.37375312  1
  In  In19  1  0.17042046  -0.00480817  0.88234599  1
  In  In20  1  0.15185597  0.33649127  0.37222096  1
  In  In21  1  0.14988836  0.32822074  0.88187543  1
  In  In22  1  0.18028933  0.66673809  0.37859937  1
  In  In23  1  0.17900511  0.67726325  0.86855281  1
  In  In24  1  0.49122196  0.00329418  0.38045713  1
  In  In25  1  0.47793389  0.00662006  0.86919316  1
  In  In26  1  0.50100682  0.33977637  0.39132425  1
  In  In27  1  0.52464135  0.33264954  0.87029090  1
  In  In28  1  0.49644313  0.66704346  0.38144981  1
  In  In29  1  0.49296243  0.67813349  0.88002197  1
  In  In30  1  0.83994434  -0.00278443  0.37913522  1
  In  In31  1  0.84746657  0.00182775  0.87452518  1
  In  In32  1  0.83200105  0.31943630  0.37756103  1
  In  In33  1  0.82358093  0.34469278  0.88304785  1
  In  In34  1  0.83299200  0.68487568  0.37469309  1
  In  In35  1  0.82595449  0.65237507  0.86638327  1
  In  In36  1  0.00247929  0.16517147  0.37475655  1
  In  In37  1  -0.00251714  0.17820379  0.89357464  1
  In  In38  1  0.01235389  0.49625615  0.36859208  1
  In  In39  1  -0.02766666  0.50216976  0.87454911  1
  In  In40  1  -0.01325684  0.84040380  0.38338988  1
  In  In41  1  0.01347135  0.84040026  0.87332964  1
  In  In42  1  0.34168482  0.15547815  0.38094461  1
  In  In43  1  0.33673559  0.14916833  0.87236273  1
  In  In44  1  0.33926769  0.51430753  0.37716352  1
  In  In45  1  0.33296687  0.52120460  0.87472934  1
  In  In46  1  0.32639064  0.82811198  0.38196046  1
  In  In47  1  0.33080179  0.83738700  0.87411449  1
  In  In48  1  0.66872256  0.17237000  0.38956798  1
  In  In49  1  0.66092297  0.18865646  0.86808840  1
  In  In50  1  0.64269504  0.50018837  0.38111447  1
  In  In51  1  0.67786485  0.49177282  0.88036666  1
  In  In52  1  0.67578789  0.82490345  0.37875405  1
  In  In53  1  0.65951008  0.81804526  0.87349665  1
  In  In54  1  0.16804910  -0.00356377  0.13115028  1
  In  In55  1  0.17165344  0.00290097  0.62140267  1
  In  In56  1  0.16384603  0.31356949  0.11920760  1
  In  In57  1  0.17250216  0.32574583  0.62209968  1
  In  In58  1  0.16836560  0.68469374  0.12344799  1
  In  In59  1  0.16398119  0.68091898  0.62586667  1
  In  In60  1  0.50166252  -0.01773648  0.12744668  1
  In  In61  1  0.49222594  -0.00992055  0.61614291  1
  In  In62  1  0.49302201  0.34270989  0.12162586  1
  In  In63  1  0.51028590  0.33713269  0.61419501  1
  In  In64  1  0.49752376  0.66659832  0.12909866  1
  In  In65  1  0.49015806  0.66458477  0.61554499  1
  In  In66  1  0.83648906  0.01807634  0.12279881  1
  In  In67  1  0.83271926  -0.00365728  0.61914288  1
  In  In68  1  0.84494976  0.33799625  0.11867313  1
  In  In69  1  0.83516885  0.32085429  0.62631062  1
  In  In70  1  0.83402303  0.65156773  0.12411832  1
  In  In71  1  0.83833556  0.67637690  0.62651497  1
  In  In72  1  0.33771693  0.33205708  0.74771822  1
  In  In73  1  0.66332521  0.66394062  0.74491359  1
  In  In74  1  0.66365610  -0.00162017  0.73837299  1
  In  In75  1  -0.00586206  0.33810977  0.75702551  1
  In  In76  1  0.17211437  0.50210503  0.50022751  1
  In  In77  1  0.83077877  0.50299001  0.50773850  1
  In  In78  1  0.00751159  -0.00392624  0.75317094  1
  In  In79  1  0.66790780  -0.00521218  0.25532199  1
  In  In80  1  0.66467218  0.33498787  0.26084267  1
  In  In81  1  0.83233773  0.83029906  -0.00498798  1
  In  In82  1  0.50034608  0.16794294  -0.00636502  1
  In  In83  1  0.00169169  0.66950140  0.24855603  1
  In  In84  1  0.32724239  0.33185719  0.24667590  1
  In  In85  1  0.16163607  0.49866621  -0.00191294  1
  Cu  Cu86  1  0.16973990  0.83508144  0.25395579  1
  Cu  Cu87  1  0.66465096  0.66719282  0.50089668  1
  Cu  Cu88  1  0.32827821  -0.00504848  0.49836734  1
  Cu  Cu89  1  0.49536593  0.50903224  0.25348621  1
  Cu  Cu90  1  0.16651319  0.16433758  0.75119337  1
  Cu  Cu91  1  0.33144653  -0.00649973  0.00228678  1
  Cu  Cu92  1  -0.00312607  0.32995552  0.49879989  1
  Cu  Cu93  1  0.84246840  0.16828750  0.25220578  1
  Cu  Cu94  1  0.83377617  0.83851438  0.25273716  1
  Cu  Cu95  1  0.66146191  0.66145035  0.00046578  1
  Cu  Cu96  1  0.49568519  0.15875230  0.25543559  1
  Cu  Cu97  1  0.33662970  0.33654643  -0.00044722  1
  Cu  Cu98  1  0.50309411  0.50201969  0.74920045  1
  Cu  Cu99  1  0.33188648  0.32661484  0.50299880  1
  Cu  Cu100  1  0.16465294  0.16062115  0.25076253  1
  Cu  Cu101  1  0.00063761  0.66483953  -0.00172800  1
  Cu  Cu102  1  0.66187384  -0.00087510  -0.00050345  1
  Cu  Cu103  1  0.00556956  0.00302377  0.00487873  1
  Cu  Cu104  1  0.66779444  -0.00027113  0.49915064  1
  Cu  Cu105  1  0.17319515  0.83859431  0.74756544  1
  Cu  Cu106  1  0.82634988  0.16683202  0.74905633  1
  Cu  Cu107  1  0.16655753  0.51247400  0.75058204  1
  Cu  Cu108  1  0.00537487  0.00457589  0.49720864  1
  Cu  Cu109  1  0.48935408  0.83842879  0.74874965  1
  Cu  Cu110  1  0.33574368  0.67681802  0.00017389  1
  Cu  Cu111  1  0.82863701  0.49923958  0.24688576  1
  Cu  Cu112  1  0.49058613  0.82408677  0.25384147  1
  Cu  Cu113  1  0.67087451  0.33497961  0.00059989  1
  Cu  Cu114  1  0.16940604  0.49785237  0.24874724  1
  Se  Se115  1  0.08738180  0.08233880  0.06288879  1
  Se  Se116  1  0.08982295  0.08626911  0.55137934  1
  Se  Se117  1  0.07515764  0.41020906  0.06059245  1
  Se  Se118  1  0.07557859  0.41106202  0.56016856  1
  Se  Se119  1  0.08501749  0.75087919  0.04657510  1
  Se  Se120  1  0.10515263  0.75628296  0.54129979  1
  Se  Se121  1  0.41623889  0.07678095  0.05973754  1
  Se  Se122  1  0.41341289  0.08018860  0.54898371  1
  Se  Se123  1  0.42282054  0.42229292  0.04535379  1
  Se  Se124  1  0.41259232  0.41520879  0.55314831  1
  Se  Se125  1  0.41815481  0.75362374  0.06022092  1
  Se  Se126  1  0.43029067  0.76814315  0.55343150  1
  Se  Se127  1  0.74972177  0.08235495  0.04637369  1
  Se  Se128  1  0.75323292  0.08213937  0.55210970  1
  Se  Se129  1  0.75464284  0.41863231  0.05435084  1
  Se  Se130  1  0.74347974  0.40875627  0.56289370  1
  Se  Se131  1  0.74322775  0.74444459  0.06052770  1
  Se  Se132  1  0.75205959  0.74677658  0.55349525  1
  Se  Se133  1  0.25828187  0.24737983  0.04983665  1
  Se  Se134  1  0.24374693  0.24278083  0.54954151  1
  Se  Se135  1  0.25412073  0.59038296  0.05716011  1
  Se  Se136  1  0.25803176  0.58714709  0.56429530  1
  Se  Se137  1  0.24936125  0.91378351  0.06021351  1
  Se  Se138  1  0.24650755  0.91306284  0.55345982  1
  Se  Se139  1  0.59043623  0.25367464  0.06173561  1
  Se  Se140  1  0.58028690  0.24457738  0.54623486  1
  Se  Se141  1  0.58007004  0.58210606  0.05916497  1
  Se  Se142  1  0.58243061  0.58250192  0.55340678  1
  Se  Se143  1  0.57956039  0.91364269  0.04893712  1
  Se  Se144  1  0.58406519  0.91424221  0.54951466  1
  Se  Se145  1  0.90186444  0.22713346  0.06273826  1
  Se  Se146  1  0.91510844  0.24580082  0.55227310  1
  Se  Se147  1  0.91406074  0.58163489  0.04694113  1
  Se  Se148  1  0.93010994  0.59404666  0.55486975  1
  Se  Se149  1  0.92045704  0.91821317  0.06024393  1
  Se  Se150  1  0.92011215  0.92082638  0.54961367  1
  Se  Se151  1  0.08403448  0.25040973  0.44556967  1
  Se  Se152  1  0.09511825  0.24264397  0.95952200  1
  Se  Se153  1  0.07707418  0.58844074  0.44115155  1
  Se  Se154  1  0.07991405  0.58896449  0.93290217  1
  Se  Se155  1  0.08389668  0.91703215  0.44412152  1
  Se  Se156  1  0.08464442  0.91600944  0.95147446  1
  Se  Se157  1  0.41681433  0.24573533  0.44865263  1
  Se  Se158  1  0.41279909  0.25890881  0.93252653  1
  Se  Se159  1  0.42511895  0.57541419  0.45143771  1
  Se  Se160  1  0.41735594  0.58838859  0.94983737  1
  Se  Se161  1  0.41498222  0.91281479  0.44681040  1
  Se  Se162  1  0.41696051  0.91790542  0.94452553  1
  Se  Se163  1  0.75215994  0.25519418  0.45458112  1
  Se  Se164  1  0.74770226  0.24713491  0.94585496  1
  Se  Se165  1  0.74549161  0.58859764  0.43891190  1
  Se  Se166  1  0.75171144  0.58520207  0.94765783  1
  Se  Se167  1  0.75196825  0.91660328  0.44482651  1
  Se  Se168  1  0.74155272  0.92129204  0.93485689  1
  Se  Se169  1  0.24689529  0.08187437  0.44542603  1
  Se  Se170  1  0.25352811  0.08240834  0.94878887  1
  Se  Se171  1  0.25710171  0.40782631  0.43739789  1
  Se  Se172  1  0.25693091  0.41369050  0.93634309  1
  Se  Se173  1  0.24596275  0.74748115  0.45527192  1
  Se  Se174  1  0.24899871  0.75583678  0.94633952  1
  Se  Se175  1  0.58159361  0.08106348  0.44692117  1
  Se  Se176  1  0.58845339  0.07812259  0.93233386  1
  Se  Se177  1  0.59390766  0.40921618  0.45767174  1
  Se  Se178  1  0.58523686  0.41721875  0.94842778  1
  Se  Se179  1  0.58417515  0.75236050  0.44650661  1
  Se  Se180  1  0.58106149  0.75169119  0.95177561  1
  Se  Se181  1  0.91759976  0.08686468  0.44568859  1
  Se  Se182  1  0.91687065  0.07997642  0.95131803  1
  Se  Se183  1  0.92252333  0.41729162  0.44051433  1
  Se  Se184  1  0.93618332  0.39546959  0.94319267  1
  Se  Se185  1  0.91535323  0.74796175  0.45043071  1
  Se  Se186  1  0.92180887  0.74309931  0.93381224  1
  Se  Se187  1  0.24453829  0.24270115  0.31164302  1
  Se  Se188  1  0.24181863  0.24963088  0.81105722  1
  Se  Se189  1  0.24895278  0.58036977  0.30407172  1
  Se  Se190  1  0.25764861  0.59331453  0.79729265  1
  Se  Se191  1  0.25448104  0.91544063  0.30812800  1
  Se  Se192  1  0.24964934  0.92422275  0.80523845  1
  Se  Se193  1  0.57091159  0.24189974  0.31486215  1
  Se  Se194  1  0.56747029  0.23888763  0.79314471  1
  Se  Se195  1  0.58113013  0.58875092  0.30682547  1
  Se  Se196  1  0.57942018  0.58058245  0.81473430  1
  Se  Se197  1  0.57449853  0.90609713  0.31215451  1
  Se  Se198  1  0.57691138  0.91265764  0.80777149  1
  Se  Se199  1  0.92227719  0.25428663  0.30558738  1
  Se  Se200  1  0.90879085  0.24002305  0.81311993  1
  Se  Se201  1  0.91002261  0.57977561  0.30902696  1
  Se  Se202  1  0.92103603  0.59041914  0.79740291  1
  Se  Se203  1  0.91843915  0.91955033  0.30410777  1
  Se  Se204  1  0.90922870  0.90379803  0.80417955  1
  Se  Se205  1  0.08030310  0.07907442  0.30480255  1
  Se  Se206  1  0.08431042  0.09385013  0.81667552  1
  Se  Se207  1  0.08097742  0.41289850  0.29327008  1
  Se  Se208  1  0.09015073  0.43020318  0.81127096  1
  Se  Se209  1  0.08701676  0.75509000  0.31381695  1
  Se  Se210  1  0.08894219  0.75638252  0.80235685  1
  Se  Se211  1  0.41063240  0.07459387  0.30313339  1
  Se  Se212  1  0.41933720  0.09299396  0.79293920  1
  Se  Se213  1  0.42107039  0.41619032  0.30903126  1
  Se  Se214  1  0.42098721  0.42495160  0.81204260  1
  Se  Se215  1  0.40916079  0.74425184  0.31149108  1
  Se  Se216  1  0.41287717  0.75158672  0.80498837  1
  Se  Se217  1  0.75300185  0.09405571  0.31102161  1
  Se  Se218  1  0.75081600  0.08253059  0.80931443  1
  Se  Se219  1  0.75495956  0.42796422  0.31759070  1
  Se  Se220  1  0.75142175  0.41593323  0.80484367  1
  Se  Se221  1  0.74861879  0.75124678  0.29844082  1
  Se  Se222  1  0.75614781  0.75719615  0.80169080  1
  Se  Se223  1  0.25300027  0.07843205  0.20138307  1
  Se  Se224  1  0.24761030  0.08282037  0.69662112  1
  Se  Se225  1  0.24299168  0.42115557  0.18122058  1
  Se  Se226  1  0.24063245  0.42488549  0.69177103  1
  Se  Se227  1  0.25047788  0.74826640  0.20099728  1
  Se  Se228  1  0.25529631  0.75267129  0.69523487  1
  Se  Se229  1  0.57994907  0.08746451  0.19197477  1
  Se  Se230  1  0.57649060  0.08746795  0.67968908  1
  Se  Se231  1  0.57587577  0.42279646  0.19587549  1
  Se  Se232  1  0.57926086  0.41383597  0.69585743  1
  Se  Se233  1  0.58114164  0.74817486  0.20030470  1
  Se  Se234  1  0.57424229  0.75992747  0.68979320  1
  Se  Se235  1  0.91958885  0.07746941  0.20179142  1
  Se  Se236  1  0.91179259  0.08680914  0.69378491  1
  Se  Se237  1  0.91504633  0.41667764  0.19743060  1
  Se  Se238  1  0.90952343  0.42351614  0.69077098  1
  Se  Se239  1  0.90974269  0.75790673  0.18670974  1
  Se  Se240  1  0.93207664  0.75291508  0.68833352  1
  Se  Se241  1  0.08519365  0.24882651  0.19875355  1
  Se  Se242  1  0.08345102  0.24532938  0.69415862  1
  Se  Se243  1  0.09050199  0.57926973  0.18578353  1
  Se  Se244  1  0.08501271  0.59504022  0.69630904  1
  Se  Se245  1  0.08228733  0.91477397  0.20100402  1
  Se  Se246  1  0.08642159  0.90898700  0.68526090  1
  Se  Se247  1  0.42482335  0.24164861  0.19010352  1
  Se  Se248  1  0.41682433  0.24839725  0.67894684  1
  Se  Se249  1  0.40936286  0.58623119  0.19841951  1
  Se  Se250  1  0.42231117  0.58885339  0.69778783  1
  Se  Se251  1  0.41555889  0.91610210  0.20130331  1
  Se  Se252  1  0.41047307  0.92418034  0.69473761  1
  Se  Se253  1  0.75481526  0.24904285  0.19698748  1
  Se  Se254  1  0.74466992  0.24916908  0.69577021  1
  Se  Se255  1  0.74563208  0.58518729  0.19777535  1
  Se  Se256  1  0.75859519  0.57610945  0.68901783  1
  Se  Se257  1  0.75551665  0.91319477  0.18531281  1
  Se  Se258  1  0.76159541  0.90366503  0.69161432  1
