# generated using pymatgen
data_In86Cu29Se144
_symmetry_space_group_name_H-M   'P 1'
_cell_length_a   17.59494363
_cell_length_b   17.59158935
_cell_length_c   23.45897826
_cell_angle_alpha   90.02125969
_cell_angle_beta   90.01778884
_cell_angle_gamma   90.01599839
_symmetry_Int_Tables_number   1
_chemical_formula_structural   In86Cu29Se144
_chemical_formula_sum   'In86 Cu29 Se144'
_cell_volume   7261.09273805
_cell_formula_units_Z   1
loop_
 _symmetry_equiv_pos_site_id
 _symmetry_equiv_pos_as_xyz
  1  'x, y, z'
loop_
 _atom_site_type_symbol
 _atom_site_label
 _atom_site_symmetry_multiplicity
 _atom_site_fract_x
 _atom_site_fract_y
 _atom_site_fract_z
 _atom_site_occupancy
  In  In0  1  0.00407145  0.17231368  0.12200730  1
  In  In1  1  -0.01257367  0.15280884  0.60198046  1
  In  In2  1  -0.00067301  0.49981225  0.12868239  1
  In  In3  1  0.01568387  0.50440503  0.62449934  1
  In  In4  1  -0.00787699  0.82065161  0.12633255  1
  In  In5  1  -0.01836418  0.85287589  0.64855987  1
  In  In6  1  0.31993862  0.16562377  0.12520486  1
  In  In7  1  0.33417089  0.17081612  0.61922599  1
  In  In8  1  0.33090100  0.50069404  0.11764207  1
  In  In9  1  0.32311482  0.52114398  0.63142746  1
  In  In10  1  0.34002561  0.84570485  0.11979201  1
  In  In11  1  0.32982383  0.81883307  0.62564778  1
  In  In12  1  0.67961280  0.15402495  0.13209901  1
  In  In13  1  0.66522502  0.15768990  0.61642891  1
  In  In14  1  0.66436868  0.51045699  0.13033811  1
  In  In15  1  0.66489599  0.50326950  0.62359679  1
  In  In16  1  0.65637502  0.84718353  0.13901095  1
  In  In17  1  0.68623901  0.85181496  0.60164863  1
  In  In18  1  0.18005577  0.00448649  0.37174346  1
  In  In19  1  0.15485085  0.00841000  0.88438898  1
  In  In20  1  0.15285452  0.33865884  0.38809174  1
  In  In21  1  0.16318713  0.33451264  0.88309813  1
  In  In22  1  0.15242707  0.66269785  0.37692055  1
  In  In23  1  0.17037754  0.66434312  0.87748444  1
  In  In24  1  0.50270103  -0.00336812  0.37403994  1
  In  In25  1  0.50077171  -0.01635986  0.87606244  1
  In  In26  1  0.50280000  0.31857584  0.37408532  1
  In  In27  1  0.50873082  0.33924468  0.87828059  1
  In  In28  1  0.51796009  0.67010731  0.37692657  1
  In  In29  1  0.49027368  0.67671490  0.88100978  1
  In  In30  1  0.82461488  0.00415201  0.37783938  1
  In  In31  1  0.84165907  0.00490751  0.86194483  1
  In  In32  1  0.82895802  0.32550701  0.36776555  1
  In  In33  1  0.82720988  0.32508658  0.87561413  1
  In  In34  1  0.83240860  0.67162033  0.37570714  1
  In  In35  1  0.83995207  0.66767071  0.86820892  1
  In  In36  1  -0.01486925  0.17615918  0.38851296  1
  In  In37  1  -0.00033981  0.16598249  0.87734785  1
  In  In38  1  0.00515878  0.50544195  0.37481119  1
  In  In39  1  0.01258209  0.51194144  0.86902988  1
  In  In40  1  -0.00500576  0.81693024  0.37254280  1
  In  In41  1  0.00331991  0.84765025  0.86903420  1
  In  In42  1  0.34421434  0.16299914  0.38079668  1
  In  In43  1  0.32624982  0.15385267  0.87603069  1
  In  In44  1  0.32555022  0.48693249  0.37608394  1
  In  In45  1  0.31354162  0.52152036  0.88907267  1
  In  In46  1  0.33483973  0.84964985  0.37081693  1
  In  In47  1  0.33877720  0.82049823  0.88024310  1
  In  In48  1  0.66762601  0.16154739  0.37079389  1
  In  In49  1  0.68424270  0.15628720  0.88502040  1
  In  In50  1  0.67793059  0.50336383  0.36430948  1
  In  In51  1  0.66435307  0.49181144  0.88091103  1
  In  In52  1  0.66473106  0.83067420  0.37797748  1
  In  In53  1  0.66226262  0.83153868  0.87341240  1
  In  In54  1  0.17111069  0.00979719  0.12218652  1
  In  In55  1  0.15556764  -0.00350337  0.62658934  1
  In  In56  1  0.15546359  0.33049827  0.12080941  1
  In  In57  1  0.15612041  0.33290319  0.61367218  1
  In  In58  1  0.15519575  0.66115865  0.11915200  1
  In  In59  1  0.16168140  0.66795639  0.63322363  1
  In  In60  1  0.51278784  -0.01405282  0.12915341  1
  In  In61  1  0.51090469  0.00939328  0.61942891  1
  In  In62  1  0.49878641  0.34488432  0.12585658  1
  In  In63  1  0.50966479  0.33069509  0.61829057  1
  In  In64  1  0.50961983  0.68058275  0.11819566  1
  In  In65  1  0.49197604  0.66947759  0.62311125  1
  In  In66  1  0.80726124  0.00174898  0.12398462  1
  In  In67  1  0.83563355  0.00024538  0.62410019  1
  In  In68  1  0.84273836  0.32627836  0.13255825  1
  In  In69  1  0.84508603  0.31512901  0.61507200  1
  In  In70  1  0.83201879  0.68074627  0.14189861  1
  In  In71  1  0.83894135  0.71195373  0.62014540  1
  In  In72  1  0.33448994  0.33818370  0.74695763  1
  In  In73  1  0.33475646  0.32598614  0.24968392  1
  In  In74  1  0.83815664  0.49987304  0.49792224  1
  In  In75  1  0.16439631  0.83257120  0.50135262  1
  In  In76  1  0.49259037  0.49492166  0.49809016  1
  In  In77  1  0.49644003  0.16686622  0.00034321  1
  In  In78  1  0.66953120  0.32908997  0.74049440  1
  In  In79  1  0.83104160  0.83876847  0.00236839  1
  In  In80  1  0.00146517  0.33123953  0.74910649  1
  In  In81  1  0.66818131  0.67381811  0.74554697  1
  In  In82  1  0.83830798  0.49973419  -0.00221693  1
  In  In83  1  0.33405525  -0.00735479  0.75481590  1
  In  In84  1  -0.00471649  -0.00130533  0.25427160  1
  In  In85  1  0.33357377  0.66845197  0.23855573  1
  Cu  Cu86  1  0.51105987  0.49950300  0.24768027  1
  Cu  Cu87  1  0.32856091  0.66563515  0.50149497  1
  Cu  Cu88  1  0.66590329  0.33536907  0.00405413  1
  Cu  Cu89  1  0.16543258  0.82682689  0.75611363  1
  Cu  Cu90  1  0.49236246  0.50953620  0.75731670  1
  Cu  Cu91  1  0.16382978  0.83546324  0.25226305  1
  Cu  Cu92  1  0.83957836  0.49749919  0.25234565  1
  Cu  Cu93  1  0.16083100  0.49941573  0.25046380  1
  Cu  Cu94  1  0.51626508  0.16199910  0.74732845  1
  Cu  Cu95  1  0.32586087  0.33409314  0.50005372  1
  Cu  Cu96  1  0.83439354  0.16438371  0.25353810  1
  Cu  Cu97  1  0.00065523  0.33376886  0.00318570  1
  Cu  Cu98  1  0.16483472  0.17066659  0.24963525  1
  Cu  Cu99  1  0.67015929  0.32535371  0.49361339  1
  Cu  Cu100  1  -0.00005676  -0.00806951  0.50090115  1
  Cu  Cu101  1  0.50519561  0.15733710  0.25445483  1
  Cu  Cu102  1  0.00033865  0.66919712  0.50361881  1
  Cu  Cu103  1  0.32784321  -0.00190423  -0.00027182  1
  Cu  Cu104  1  0.32903644  0.33482299  0.00434964  1
  Cu  Cu105  1  0.66506896  0.00152154  0.49393209  1
  Cu  Cu106  1  0.16021877  0.16273017  0.75089973  1
  Cu  Cu107  1  0.83621533  0.50321035  0.74451612  1
  Cu  Cu108  1  0.50337415  0.83316812  0.25107792  1
  Cu  Cu109  1  0.00380236  0.66648702  0.00013445  1
  Cu  Cu110  1  0.34135288  0.00272307  0.49858265  1
  Cu  Cu111  1  0.33214528  0.66860261  0.00301162  1
  Cu  Cu112  1  0.50294076  0.83239855  0.74935743  1
  Cu  Cu113  1  -0.00288333  0.00461768  -0.00215097  1
  Cu  Cu114  1  0.65996929  0.67143453  0.00196396  1
  Se  Se115  1  0.08245618  0.08588009  0.05344721  1
  Se  Se116  1  0.09087106  0.07470790  0.54731565  1
  Se  Se117  1  0.07966145  0.42276168  0.05471884  1
  Se  Se118  1  0.06890657  0.41342309  0.54901586  1
  Se  Se119  1  0.08176681  0.75568273  0.05270761  1
  Se  Se120  1  0.07285123  0.75509296  0.56660967  1
  Se  Se121  1  0.41061539  0.07514161  0.06249246  1
  Se  Se122  1  0.42036709  0.08847619  0.55418251  1
  Se  Se123  1  0.41700987  0.41755978  0.05211852  1
  Se  Se124  1  0.40257525  0.41350216  0.56582286  1
  Se  Se125  1  0.41649968  0.75449491  0.05333668  1
  Se  Se126  1  0.41337751  0.75030383  0.55025730  1
  Se  Se127  1  0.74751117  0.08829210  0.04840866  1
  Se  Se128  1  0.75300272  0.07889313  0.54992184  1
  Se  Se129  1  0.74991390  0.41533398  0.06254429  1
  Se  Se130  1  0.74311659  0.40652580  0.55821462  1
  Se  Se131  1  0.74538947  0.74475937  0.06213270  1
  Se  Se132  1  0.73544000  0.73454802  0.54677739  1
  Se  Se133  1  0.24523881  0.25038668  0.05497247  1
  Se  Se134  1  0.24582858  0.24733921  0.55255476  1
  Se  Se135  1  0.24622160  0.58389641  0.05282807  1
  Se  Se136  1  0.24117842  0.59074587  0.55610333  1
  Se  Se137  1  0.24380114  0.91670247  0.05421035  1
  Se  Se138  1  0.25919753  0.92356207  0.55980924  1
  Se  Se139  1  0.58666786  0.25275443  0.06335625  1
  Se  Se140  1  0.58416576  0.24599977  0.54887068  1
  Se  Se141  1  0.58255505  0.58181808  0.05464195  1
  Se  Se142  1  0.58382968  0.58702383  0.55407165  1
  Se  Se143  1  0.59124478  0.91267296  0.05466784  1
  Se  Se144  1  0.57780652  0.91963549  0.54689714  1
  Se  Se145  1  0.91510602  0.25101176  0.05388498  1
  Se  Se146  1  0.92576477  0.25440402  0.53751846  1
  Se  Se147  1  0.91570856  0.59591850  0.06142347  1
  Se  Se148  1  0.91674558  0.59210112  0.56492377  1
  Se  Se149  1  0.92126023  0.92804962  0.06408829  1
  Se  Se150  1  0.91987123  0.91005638  0.55791012  1
  Se  Se151  1  0.09729058  0.22912832  0.44681073  1
  Se  Se152  1  0.08128046  0.24799527  0.94750251  1
  Se  Se153  1  0.08195567  0.58276602  0.45244582  1
  Se  Se154  1  0.08627609  0.58098729  0.94864234  1
  Se  Se155  1  0.07939580  0.91929419  0.43420949  1
  Se  Se156  1  0.07944418  0.91513991  0.94986324  1
  Se  Se157  1  0.41651721  0.25567583  0.44992758  1
  Se  Se158  1  0.40526921  0.25737351  0.93835694  1
  Se  Se159  1  0.40648941  0.58894847  0.43623675  1
  Se  Se160  1  0.41917698  0.58516503  0.95031647  1
  Se  Se161  1  0.41926934  0.91518239  0.44588005  1
  Se  Se162  1  0.41241995  0.91504326  0.94727121  1
  Se  Se163  1  0.75307073  0.24307305  0.44047975  1
  Se  Se164  1  0.75123400  0.25285126  0.95267621  1
  Se  Se165  1  0.74014726  0.58612024  0.44487658  1
  Se  Se166  1  0.74410643  0.59491918  0.94125010  1
  Se  Se167  1  0.75047479  0.91407462  0.44654986  1
  Se  Se168  1  0.74947381  0.92376838  0.93496022  1
  Se  Se169  1  0.25411615  0.08300119  0.44700791  1
  Se  Se170  1  0.24520061  0.08685406  0.95185055  1
  Se  Se171  1  0.24298681  0.42228445  0.45220219  1
  Se  Se172  1  0.24581790  0.41800214  0.95013062  1
  Se  Se173  1  0.25447753  0.74705102  0.43572721  1
  Se  Se174  1  0.24704811  0.75017807  0.94932780  1
  Se  Se175  1  0.58121899  0.08593744  0.44189034  1
  Se  Se176  1  0.58421033  0.07364054  0.94390207  1
  Se  Se177  1  0.59144636  0.41263641  0.43751853  1
  Se  Se178  1  0.58117325  0.41966540  0.95405506  1
  Se  Se179  1  0.57219686  0.76208378  0.44971227  1
  Se  Se180  1  0.58095187  0.75601001  0.94630743  1
  Se  Se181  1  0.91408718  0.07531718  0.44888841  1
  Se  Se182  1  0.91217357  0.08232911  0.94193348  1
  Se  Se183  1  0.92062503  0.40838936  0.43627740  1
  Se  Se184  1  0.92702842  0.41113043  0.93478474  1
  Se  Se185  1  0.91484426  0.74876920  0.44982899  1
  Se  Se186  1  0.92158965  0.74700488  0.94194817  1
  Se  Se187  1  0.24501456  0.24608900  0.31476118  1
  Se  Se188  1  0.24433105  0.24346339  0.80722757  1
  Se  Se189  1  0.24736744  0.57922342  0.30621682  1
  Se  Se190  1  0.25164178  0.58602934  0.80443651  1
  Se  Se191  1  0.25132100  0.92090192  0.29709067  1
  Se  Se192  1  0.24225817  0.91098121  0.81780301  1
  Se  Se193  1  0.58677507  0.24859968  0.30084682  1
  Se  Se194  1  0.58609103  0.24577874  0.81147770  1
  Se  Se195  1  0.58713104  0.58636380  0.30231603  1
  Se  Se196  1  0.58340242  0.58273920  0.81284809  1
  Se  Se197  1  0.58678186  0.91603170  0.30508016  1
  Se  Se198  1  0.58550404  0.91610030  0.80131871  1
  Se  Se199  1  0.92239913  0.24619886  0.30320184  1
  Se  Se200  1  0.90648950  0.24195940  0.80422133  1
  Se  Se201  1  0.91555971  0.58386114  0.30985214  1
  Se  Se202  1  0.91887638  0.58124741  0.80134617  1
  Se  Se203  1  0.90636866  0.90758000  0.31158041  1
  Se  Se204  1  0.91387084  0.91109817  0.79678830  1
  Se  Se205  1  0.08488300  0.09144339  0.31191668  1
  Se  Se206  1  0.07917013  0.08166643  0.80668261  1
  Se  Se207  1  0.08474560  0.41511752  0.30793054  1
  Se  Se208  1  0.09767497  0.42012234  0.80411608  1
  Se  Se209  1  0.08470468  0.74649267  0.30168040  1
  Se  Se210  1  0.08179820  0.74739247  0.81161279  1
  Se  Se211  1  0.41551206  0.08035917  0.30608913  1
  Se  Se212  1  0.42894195  0.08957852  0.80786501  1
  Se  Se213  1  0.42689846  0.42180856  0.30659837  1
  Se  Se214  1  0.41737779  0.42406444  0.81516552  1
  Se  Se215  1  0.41871297  0.75167761  0.30763808  1
  Se  Se216  1  0.41780070  0.75087207  0.80197234  1
  Se  Se217  1  0.74861714  0.07783286  0.30037372  1
  Se  Se218  1  0.74591320  0.08656610  0.80256000  1
  Se  Se219  1  0.75124928  0.41134538  0.29848942  1
  Se  Se220  1  0.75582628  0.42440553  0.80434129  1
  Se  Se221  1  0.73504011  0.73651298  0.31005428  1
  Se  Se222  1  0.76139086  0.76185115  0.80429328  1
  Se  Se223  1  0.24818661  0.08417645  0.20016059  1
  Se  Se224  1  0.24903378  0.08763460  0.69296114  1
  Se  Se225  1  0.24586141  0.42084132  0.19212480  1
  Se  Se226  1  0.23936374  0.41909475  0.68718376  1
  Se  Se227  1  0.24030561  0.75948943  0.18462731  1
  Se  Se228  1  0.25012588  0.74850566  0.70100252  1
  Se  Se229  1  0.58756832  0.07681183  0.19700312  1
  Se  Se230  1  0.59558697  0.07720149  0.69482353  1
  Se  Se231  1  0.59073961  0.41259072  0.19544427  1
  Se  Se232  1  0.56973238  0.42903339  0.69465783  1
  Se  Se233  1  0.58490335  0.74516746  0.19995249  1
  Se  Se234  1  0.58215464  0.76123773  0.68242691  1
  Se  Se235  1  0.91064709  0.08615628  0.18804819  1
  Se  Se236  1  0.92764552  0.08356685  0.68586254  1
  Se  Se237  1  0.92254889  0.41451330  0.19864745  1
  Se  Se238  1  0.90904350  0.41716862  0.68521308  1
  Se  Se239  1  0.92865212  0.74751519  0.20734275  1
  Se  Se240  1  0.93321686  0.73283950  0.70066009  1
  Se  Se241  1  0.08093426  0.25249275  0.19666446  1
  Se  Se242  1  0.08545333  0.24000971  0.68648058  1
  Se  Se243  1  0.08149685  0.58555943  0.19690662  1
  Se  Se244  1  0.08473037  0.58017170  0.70141620  1
  Se  Se245  1  0.08553118  0.91499440  0.18911670  1
  Se  Se246  1  0.08934908  0.91995914  0.70591612  1
  Se  Se247  1  0.42698147  0.23685701  0.18977133  1
  Se  Se248  1  0.43115808  0.24336962  0.69300836  1
  Se  Se249  1  0.42821122  0.57540284  0.18657356  1
  Se  Se250  1  0.41576947  0.59192591  0.69905982  1
  Se  Se251  1  0.41833029  0.91602818  0.19779083  1
  Se  Se252  1  0.42212611  0.91231516  0.68725264  1
  Se  Se253  1  0.75184520  0.24854928  0.19828823  1
  Se  Se254  1  0.76085688  0.23698552  0.68726350  1
  Se  Se255  1  0.75465344  0.58153200  0.19979466  1
  Se  Se256  1  0.75911305  0.58500459  0.68456611  1
  Se  Se257  1  0.77237956  0.89711555  0.19472061  1
  Se  Se258  1  0.75461438  0.90784555  0.68689851  1
