# generated using pymatgen
data_In86Cu29Se144
_symmetry_space_group_name_H-M   'P 1'
_cell_length_a   17.59463614
_cell_length_b   17.59513812
_cell_length_c   23.46199596
_cell_angle_alpha   89.96762827
_cell_angle_beta   89.96272254
_cell_angle_gamma   90.03397475
_symmetry_Int_Tables_number   1
_chemical_formula_structural   In86Cu29Se144
_chemical_formula_sum   'In86 Cu29 Se144'
_cell_volume   7263.36197554
_cell_formula_units_Z   1
loop_
 _symmetry_equiv_pos_site_id
 _symmetry_equiv_pos_as_xyz
  1  'x, y, z'
loop_
 _atom_site_type_symbol
 _atom_site_label
 _atom_site_symmetry_multiplicity
 _atom_site_fract_x
 _atom_site_fract_y
 _atom_site_fract_z
 _atom_site_occupancy
  In  In0  1  0.01000295  0.17495508  0.12423558  1
  In  In1  1  0.00454052  0.15673206  0.63336410  1
  In  In2  1  -0.01818948  0.51410611  0.13934282  1
  In  In3  1  -0.00632406  0.50585152  0.63522708  1
  In  In4  1  -0.01555146  0.82185513  0.11748521  1
  In  In5  1  -0.00558049  0.83895813  0.63123395  1
  In  In6  1  0.35198053  0.15397449  0.13269724  1
  In  In7  1  0.32114088  0.16913898  0.62278240  1
  In  In8  1  0.33482703  0.49893649  0.12673253  1
  In  In9  1  0.34290861  0.51050490  0.62948598  1
  In  In10  1  0.33846832  0.83130857  0.12645098  1
  In  In11  1  0.34976242  0.82354744  0.63297637  1
  In  In12  1  0.65185540  0.17506543  0.12816818  1
  In  In13  1  0.67507009  0.16398477  0.62795737  1
  In  In14  1  0.65765781  0.49979036  0.11659912  1
  In  In15  1  0.67018967  0.49777174  0.63539019  1
  In  In16  1  0.66809093  0.83204791  0.12151650  1
  In  In17  1  0.65234069  0.82917723  0.61607133  1
  In  In18  1  0.18423863  -0.00147434  0.37523402  1
  In  In19  1  0.17153086  0.00277338  0.86644078  1
  In  In20  1  0.16008440  0.32830981  0.37209994  1
  In  In21  1  0.16265166  0.34182134  0.87237548  1
  In  In22  1  0.16703109  0.66865738  0.36593052  1
  In  In23  1  0.16667835  0.67180097  0.86526906  1
  In  In24  1  0.49887176  -0.00432378  0.36904037  1
  In  In25  1  0.48475289  -0.00309766  0.89141266  1
  In  In26  1  0.50314466  0.33702794  0.36090426  1
  In  In27  1  0.50922260  0.32668319  0.88432658  1
  In  In28  1  0.49699354  0.68101545  0.37465668  1
  In  In29  1  0.50096351  0.66643728  0.88223227  1
  In  In30  1  0.82014939  -0.00537958  0.37428730  1
  In  In31  1  0.82978322  -0.01566327  0.87405244  1
  In  In32  1  0.83561029  0.33699754  0.35807912  1
  In  In33  1  0.83823522  0.34009809  0.87369391  1
  In  In34  1  0.84083532  0.66891473  0.37325309  1
  In  In35  1  0.83487181  0.66782674  0.87797028  1
  In  In36  1  0.00207638  0.17798761  0.37619980  1
  In  In37  1  0.00437065  0.17086473  0.86731511  1
  In  In38  1  0.00103948  0.50619771  0.36494097  1
  In  In39  1  -0.00629659  0.49489247  0.87275653  1
  In  In40  1  -0.00007322  0.82037412  0.37462721  1
  In  In41  1  -0.01290480  0.82298366  0.86523085  1
  In  In42  1  0.32961401  0.15979421  0.37311512  1
  In  In43  1  0.35207496  0.15687045  0.87700719  1
  In  In44  1  0.34034143  0.50531667  0.36398789  1
  In  In45  1  0.33764718  0.51684348  0.87900426  1
  In  In46  1  0.33567025  0.83820304  0.36633414  1
  In  In47  1  0.33802215  0.83513952  0.87531583  1
  In  In48  1  0.66395922  0.16382047  0.36456251  1
  In  In49  1  0.63984869  0.16717164  0.87290223  1
  In  In50  1  0.67847075  0.49502424  0.36529601  1
  In  In51  1  0.66691985  0.50113373  0.87936649  1
  In  In52  1  0.65544458  0.84529138  0.38999530  1
  In  In53  1  0.67947839  0.82539203  0.88219781  1
  In  In54  1  0.17287225  0.01086593  0.12722139  1
  In  In55  1  0.16577741  0.00435262  0.62734915  1
  In  In56  1  0.16538043  0.33683775  0.13216240  1
  In  In57  1  0.16798523  0.31824354  0.62367922  1
  In  In58  1  0.16543566  0.66413825  0.12835440  1
  In  In59  1  0.17101328  0.66548480  0.63417378  1
  In  In60  1  0.49886909  0.00061722  0.12262788  1
  In  In61  1  0.50888742  -0.01985484  0.62898377  1
  In  In62  1  0.50017780  0.33311072  0.12319138  1
  In  In63  1  0.50174230  0.33970392  0.62998856  1
  In  In64  1  0.48231120  0.66423157  0.10486552  1
  In  In65  1  0.49133717  0.68409214  0.63966760  1
  In  In66  1  0.82772267  -0.01815393  0.12262926  1
  In  In67  1  0.83974710  -0.00029571  0.62406671  1
  In  In68  1  0.81475681  0.35179698  0.13972038  1
  In  In69  1  0.83002292  0.33533125  0.63459062  1
  In  In70  1  0.83678035  0.66506066  0.11796744  1
  In  In71  1  0.82318849  0.67258210  0.63555474  1
  In  In72  1  0.16717253  0.50360078  -0.00273952  1
  In  In73  1  0.50030288  0.16013340  0.49545397  1
  In  In74  1  0.33281011  0.33415321  0.75121635  1
  In  In75  1  0.50262795  0.50769078  0.49801106  1
  In  In76  1  0.00284080  -0.00108668  0.24484265  1
  In  In77  1  0.16846927  0.83195626  0.00216639  1
  In  In78  1  0.16919588  0.83519731  0.49816960  1
  In  In79  1  0.83448094  0.50117337  0.48944991  1
  In  In80  1  0.83130673  0.16891336  -0.00078787  1
  In  In81  1  0.66423886  -0.00010976  0.75249779  1
  In  In82  1  0.66223194  0.66808603  0.24749908  1
  In  In83  1  0.16851535  0.50329806  0.50892978  1
  In  In84  1  0.17360041  0.17002418  -0.00644635  1
  In  In85  1  0.83406015  0.16031242  0.50158055  1
  Cu  Cu86  1  0.67125404  0.32843239  0.49623476  1
  Cu  Cu87  1  0.16616707  0.83073430  0.24792467  1
  Cu  Cu88  1  0.83045409  0.50252276  0.75824217  1
  Cu  Cu89  1  0.00035233  -0.00815601  -0.00630453  1
  Cu  Cu90  1  0.00356001  0.32554344  0.49967265  1
  Cu  Cu91  1  0.82943636  0.82651936  0.24481144  1
  Cu  Cu92  1  0.50647804  0.50327058  0.75555567  1
  Cu  Cu93  1  0.17516706  0.17016896  0.25116485  1
  Cu  Cu94  1  0.66398965  -0.00170826  -0.00067669  1
  Cu  Cu95  1  0.49849293  0.83534887  0.24767894  1
  Cu  Cu96  1  0.50095946  0.16710115  0.24738095  1
  Cu  Cu97  1  0.66222886  0.67380777  0.50830888  1
  Cu  Cu98  1  0.16513961  0.16468842  0.74878397  1
  Cu  Cu99  1  0.16987020  0.49973378  0.24844258  1
  Cu  Cu100  1  -0.00270318  0.67021889  0.50089579  1
  Cu  Cu101  1  0.16917156  0.83971869  0.74801286  1
  Cu  Cu102  1  0.49892872  0.50200055  0.23851182  1
  Cu  Cu103  1  0.50433734  0.83027453  0.75831496  1
  Cu  Cu104  1  0.83329917  0.16126619  0.24960476  1
  Cu  Cu105  1  0.16128301  0.50121195  0.75263878  1
  Cu  Cu106  1  0.33777291  -0.00274651  0.49724200  1
  Cu  Cu107  1  -0.01008488  0.34510585  0.00437858  1
  Cu  Cu108  1  0.83046352  0.17206251  0.75236037  1
  Cu  Cu109  1  0.33910738  0.33137043  0.00749489  1
  Cu  Cu110  1  0.32853360  0.33475257  0.49503550  1
  Cu  Cu111  1  0.67035371  0.66684461  -0.00092300  1
  Cu  Cu112  1  0.00398299  0.00176394  0.50720089  1
  Cu  Cu113  1  0.83433276  0.83157267  0.75184003  1
  Cu  Cu114  1  0.66680672  0.33584361  0.00289124  1
  Se  Se115  1  0.07686409  0.07688056  0.05183966  1
  Se  Se116  1  0.08607238  0.08779835  0.55632519  1
  Se  Se117  1  0.07996272  0.41729113  0.06136316  1
  Se  Se118  1  0.07222423  0.41185386  0.56281269  1
  Se  Se119  1  0.07516801  0.73650757  0.05382905  1
  Se  Se120  1  0.08149371  0.74515537  0.56101673  1
  Se  Se121  1  0.42033250  0.08578047  0.05226899  1
  Se  Se122  1  0.41354486  0.07649768  0.56207541  1
  Se  Se123  1  0.41869664  0.42099698  0.05612481  1
  Se  Se124  1  0.40873190  0.41170322  0.55609790  1
  Se  Se125  1  0.42228550  0.77387504  0.04515397  1
  Se  Se126  1  0.42320069  0.74903103  0.55642063  1
  Se  Se127  1  0.74302894  0.07956942  0.06117234  1
  Se  Se128  1  0.73862935  0.06969093  0.55515181  1
  Se  Se129  1  0.75204139  0.41870260  0.05341778  1
  Se  Se130  1  0.74685406  0.41296523  0.55589929  1
  Se  Se131  1  0.75238902  0.75072289  0.05365781  1
  Se  Se132  1  0.75386050  0.75130682  0.55807091  1
  Se  Se133  1  0.25538608  0.25180719  0.06433037  1
  Se  Se134  1  0.24811033  0.24876343  0.54711755  1
  Se  Se135  1  0.25774045  0.59266643  0.05592654  1
  Se  Se136  1  0.26334960  0.59785778  0.55807706  1
  Se  Se137  1  0.25516616  0.92747202  0.05848199  1
  Se  Se138  1  0.25978631  0.91879896  0.56174966  1
  Se  Se139  1  0.57991407  0.25040179  0.05056410  1
  Se  Se140  1  0.58831279  0.25481085  0.55762971  1
  Se  Se141  1  0.58069576  0.58476370  0.04746048  1
  Se  Se142  1  0.58750371  0.58830738  0.56765604  1
  Se  Se143  1  0.58361453  0.91577286  0.05557372  1
  Se  Se144  1  0.58030762  0.91786778  0.54716399  1
  Se  Se145  1  0.91568141  0.25850006  0.06290159  1
  Se  Se146  1  0.91905761  0.25419594  0.56254707  1
  Se  Se147  1  0.91839821  0.57663556  0.05344141  1
  Se  Se148  1  0.91604678  0.58798273  0.55839991  1
  Se  Se149  1  0.91480731  0.91449815  0.04874765  1
  Se  Se150  1  0.91929703  0.91578843  0.55435296  1
  Se  Se151  1  0.09046934  0.24540261  0.44904336  1
  Se  Se152  1  0.07174317  0.26375949  0.94542395  1
  Se  Se153  1  0.07879935  0.58940312  0.44289228  1
  Se  Se154  1  0.07853942  0.59055674  0.93587885  1
  Se  Se155  1  0.07712408  0.92495408  0.43792276  1
  Se  Se156  1  0.08255611  0.91686968  0.93407417  1
  Se  Se157  1  0.41714672  0.26051324  0.43788690  1
  Se  Se158  1  0.41613400  0.24833187  0.94872536  1
  Se  Se159  1  0.40715558  0.59288040  0.44167880  1
  Se  Se160  1  0.42124775  0.58238140  0.95272915  1
  Se  Se161  1  0.41605933  0.91551784  0.43990991  1
  Se  Se162  1  0.42235635  0.89395336  0.95586026  1
  Se  Se163  1  0.75159631  0.25255065  0.43556313  1
  Se  Se164  1  0.73910309  0.25319959  0.93749782  1
  Se  Se165  1  0.73446370  0.59432622  0.44125915  1
  Se  Se166  1  0.75343782  0.58253463  0.94660975  1
  Se  Se167  1  0.76360346  0.90578995  0.44897553  1
  Se  Se168  1  0.75348318  0.91583102  0.95231781  1
  Se  Se169  1  0.25222338  0.08381352  0.44973956  1
  Se  Se170  1  0.26065070  0.07036570  0.94361740  1
  Se  Se171  1  0.25328166  0.42121321  0.43811035  1
  Se  Se172  1  0.26044275  0.40701133  0.94238541  1
  Se  Se173  1  0.25528159  0.74527723  0.43737722  1
  Se  Se174  1  0.25415937  0.74011219  0.94132725  1
  Se  Se175  1  0.59543529  0.07426020  0.43928722  1
  Se  Se176  1  0.57862161  0.08206344  0.95005474  1
  Se  Se177  1  0.59124674  0.41193356  0.43917719  1
  Se  Se178  1  0.58249882  0.41963211  0.94983419  1
  Se  Se179  1  0.57661606  0.75026083  0.45143695  1
  Se  Se180  1  0.58655727  0.75166298  0.94834933  1
  Se  Se181  1  0.92532692  0.07446747  0.43857890  1
  Se  Se182  1  0.92291401  0.08008473  0.93785539  1
  Se  Se183  1  0.92681851  0.40466356  0.43771355  1
  Se  Se184  1  0.90899534  0.42453880  0.94801511  1
  Se  Se185  1  0.91332806  0.75156301  0.44800224  1
  Se  Se186  1  0.91318107  0.75782263  0.94477446  1
  Se  Se187  1  0.25494129  0.25350484  0.30756989  1
  Se  Se188  1  0.24538788  0.24097832  0.81347599  1
  Se  Se189  1  0.25228699  0.58700347  0.29960442  1
  Se  Se190  1  0.25024917  0.58040231  0.80340903  1
  Se  Se191  1  0.24908482  0.91777318  0.29755975  1
  Se  Se192  1  0.25624671  0.91577673  0.80386400  1
  Se  Se193  1  0.58784842  0.25193286  0.29726917  1
  Se  Se194  1  0.57107561  0.25257970  0.80142997  1
  Se  Se195  1  0.57220995  0.57608443  0.30949174  1
  Se  Se196  1  0.58601021  0.58721474  0.81074836  1
  Se  Se197  1  0.58566406  0.91015663  0.30474974  1
  Se  Se198  1  0.58283371  0.91161494  0.81896109  1
  Se  Se199  1  0.92016460  0.24381998  0.29966311  1
  Se  Se200  1  0.91681752  0.25422295  0.80406595  1
  Se  Se201  1  0.89705528  0.57006865  0.30540275  1
  Se  Se202  1  0.91784793  0.58656823  0.80628009  1
  Se  Se203  1  0.91271587  0.90886360  0.30481162  1
  Se  Se204  1  0.91730109  0.92166429  0.79890380  1
  Se  Se205  1  0.09108217  0.08669173  0.30918320  1
  Se  Se206  1  0.08075199  0.08090319  0.80116882  1
  Se  Se207  1  0.08590106  0.41805076  0.30384999  1
  Se  Se208  1  0.07803355  0.41428242  0.80144120  1
  Se  Se209  1  0.07946871  0.74866563  0.29922610  1
  Se  Se210  1  0.08367763  0.75468621  0.79825176  1
  Se  Se211  1  0.41872280  0.08541184  0.30475224  1
  Se  Se212  1  0.42386367  0.07105702  0.80767445  1
  Se  Se213  1  0.41701473  0.41872695  0.29576826  1
  Se  Se214  1  0.42069476  0.42280592  0.81297893  1
  Se  Se215  1  0.41483952  0.74909069  0.29878752  1
  Se  Se216  1  0.41864150  0.74640701  0.80917270  1
  Se  Se217  1  0.74915466  0.07741772  0.30044590  1
  Se  Se218  1  0.75295971  0.09180974  0.81531356  1
  Se  Se219  1  0.74614197  0.41163105  0.29252552  1
  Se  Se220  1  0.74618397  0.41621365  0.80787082  1
  Se  Se221  1  0.74748533  0.75687791  0.31182916  1
  Se  Se222  1  0.75139504  0.74807445  0.80511622  1
  Se  Se223  1  0.25535709  0.08315395  0.19997607  1
  Se  Se224  1  0.25200728  0.08384973  0.69684705  1
  Se  Se225  1  0.25432177  0.41655453  0.19700481  1
  Se  Se226  1  0.24176833  0.42394040  0.68814968  1
  Se  Se227  1  0.25034876  0.75015606  0.19255275  1
  Se  Se228  1  0.25335487  0.75202606  0.69878156  1
  Se  Se229  1  0.58256300  0.07998470  0.19548144  1
  Se  Se230  1  0.57500905  0.08946354  0.69128130  1
  Se  Se231  1  0.58502249  0.41718694  0.19126770  1
  Se  Se232  1  0.58367037  0.41538624  0.70114270  1
  Se  Se233  1  0.56963114  0.75002981  0.18502327  1
  Se  Se234  1  0.59240416  0.75478152  0.70111732  1
  Se  Se235  1  0.91115396  0.08622285  0.18365599  1
  Se  Se236  1  0.90901400  0.08443712  0.69839156  1
  Se  Se237  1  0.93422302  0.39614178  0.19309653  1
  Se  Se238  1  0.91221750  0.41951631  0.70080724  1
  Se  Se239  1  0.91448774  0.74335548  0.19499121  1
  Se  Se240  1  0.91919519  0.74802634  0.69844302  1
  Se  Se241  1  0.08594803  0.24887020  0.20013757  1
  Se  Se242  1  0.08229372  0.25103363  0.69780403  1
  Se  Se243  1  0.08368581  0.58520122  0.19953938  1
  Se  Se244  1  0.08080364  0.58785948  0.69966321  1
  Se  Se245  1  0.08722814  0.90639418  0.18244300  1
  Se  Se246  1  0.08324264  0.92108588  0.69507308  1
  Se  Se247  1  0.41793951  0.25449068  0.19669118  1
  Se  Se248  1  0.41999737  0.24278940  0.69047968  1
  Se  Se249  1  0.41820165  0.59101486  0.18911338  1
  Se  Se250  1  0.41914052  0.58578019  0.70386577  1
  Se  Se251  1  0.41561378  0.91996748  0.19470559  1
  Se  Se252  1  0.42217640  0.91390632  0.70316034  1
  Se  Se253  1  0.74867198  0.24310097  0.19554115  1
  Se  Se254  1  0.74387311  0.25179845  0.69959771  1
  Se  Se255  1  0.74935481  0.57945989  0.18719566  1
  Se  Se256  1  0.74677453  0.58457303  0.70333728  1
  Se  Se257  1  0.74448731  0.91253309  0.19744254  1
  Se  Se258  1  0.75236999  0.91064965  0.69038775  1
