# generated using pymatgen
data_In86Cu29Se144
_symmetry_space_group_name_H-M   'P 1'
_cell_length_a   17.60946476
_cell_length_b   17.61084605
_cell_length_c   23.46682820
_cell_angle_alpha   89.99458343
_cell_angle_beta   89.98738312
_cell_angle_gamma   90.02307679
_symmetry_Int_Tables_number   1
_chemical_formula_structural   In86Cu29Se144
_chemical_formula_sum   'In86 Cu29 Se144'
_cell_volume   7277.47500338
_cell_formula_units_Z   1
loop_
 _symmetry_equiv_pos_site_id
 _symmetry_equiv_pos_as_xyz
  1  'x, y, z'
loop_
 _atom_site_type_symbol
 _atom_site_label
 _atom_site_symmetry_multiplicity
 _atom_site_fract_x
 _atom_site_fract_y
 _atom_site_fract_z
 _atom_site_occupancy
  In  In0  1  -0.00132458  0.15413636  0.11278264  1
  In  In1  1  -0.04018441  0.19034812  0.65791232  1
  In  In2  1  -0.00193887  0.49393247  0.11290146  1
  In  In3  1  -0.00006196  0.49737524  0.62314198  1
  In  In4  1  -0.01593763  0.84657495  0.11871560  1
  In  In5  1  -0.00413464  0.83109491  0.63345688  1
  In  In6  1  0.33479167  0.17925510  0.11889364  1
  In  In7  1  0.34371149  0.15708924  0.63086061  1
  In  In8  1  0.32993858  0.50213646  0.11542131  1
  In  In9  1  0.32355643  0.50714186  0.63557664  1
  In  In10  1  0.33131211  0.81931632  0.11914174  1
  In  In11  1  0.32596400  0.84313120  0.63408814  1
  In  In12  1  0.66765606  0.16288969  0.13445460  1
  In  In13  1  0.67465424  0.17199401  0.61681234  1
  In  In14  1  0.66553799  0.49343151  0.12336734  1
  In  In15  1  0.68665744  0.48069340  0.63349197  1
  In  In16  1  0.67906567  0.84787897  0.11521324  1
  In  In17  1  0.66862090  0.83422174  0.62518798  1
  In  In18  1  0.14715166  0.00183964  0.38633523  1
  In  In19  1  0.17020961  0.00811856  0.86579250  1
  In  In20  1  0.17577974  0.33458305  0.38531969  1
  In  In21  1  0.16033054  0.32973229  0.87461438  1
  In  In22  1  0.15911934  0.66966436  0.38709902  1
  In  In23  1  0.15203727  0.65224943  0.86553199  1
  In  In24  1  0.51552768  0.01134221  0.36827183  1
  In  In25  1  0.50172762  -0.00225148  0.87195251  1
  In  In26  1  0.52057069  0.30097759  0.40045577  1
  In  In27  1  0.50448684  0.33586193  0.86315167  1
  In  In28  1  0.49533980  0.66644499  0.37634170  1
  In  In29  1  0.51652741  0.68269302  0.86577840  1
  In  In30  1  0.78894926  0.04641293  0.43441757  1
  In  In31  1  0.82481239  -0.00191246  0.85857701  1
  In  In32  1  0.81582006  0.33901882  0.39931157  1
  In  In33  1  0.85440153  0.35211511  0.85144758  1
  In  In34  1  0.83735738  0.67029657  0.38730270  1
  In  In35  1  0.82894050  0.66465689  0.87789224  1
  In  In36  1  -0.00589912  0.16222303  0.37699275  1
  In  In37  1  0.01046262  0.18297077  0.85227744  1
  In  In38  1  -0.00741665  0.49250264  0.39617189  1
  In  In39  1  -0.00587010  0.49646382  0.87789811  1
  In  In40  1  -0.01371435  0.85355908  0.39438864  1
  In  In41  1  -0.01318599  0.81874190  0.86365411  1
  In  In42  1  0.33722026  0.17381028  0.37852423  1
  In  In43  1  0.32731718  0.15744624  0.86541733  1
  In  In44  1  0.33246113  0.48770682  0.38152888  1
  In  In45  1  0.32666649  0.49096554  0.86437485  1
  In  In46  1  0.33093040  0.82359122  0.38235741  1
  In  In47  1  0.34581520  0.84226199  0.86728329  1
  In  In48  1  0.66295811  0.17062687  0.37714472  1
  In  In49  1  0.68788380  0.17736919  0.85166861  1
  In  In50  1  0.68298350  0.49690471  0.38097166  1
  In  In51  1  0.68413770  0.51536392  0.86316723  1
  In  In52  1  0.66764034  0.84747122  0.38127890  1
  In  In53  1  0.66839325  0.83465440  0.87713666  1
  In  In54  1  0.15242170  0.00048225  0.11808512  1
  In  In55  1  0.17112146  -0.00395724  0.63062877  1
  In  In56  1  0.16428035  0.33191088  0.10946985  1
  In  In57  1  0.14684583  0.34509285  0.63236919  1
  In  In58  1  0.17646773  0.65698854  0.11680766  1
  In  In59  1  0.16225065  0.66739148  0.63363208  1
  In  In60  1  0.52139919  0.00596720  0.12067169  1
  In  In61  1  0.50522105  0.00381762  0.62045677  1
  In  In62  1  0.51104680  0.33687117  0.12555099  1
  In  In63  1  0.51622803  0.31281064  0.63028461  1
  In  In64  1  0.48901397  0.66556024  0.11527947  1
  In  In65  1  0.50131018  0.66520940  0.63654219  1
  In  In66  1  0.82794652  -0.00394601  0.12113148  1
  In  In67  1  0.83136867  0.00649054  0.62839778  1
  In  In68  1  0.82331034  0.32410116  0.12338765  1
  In  In69  1  0.83417003  0.33302220  0.61801147  1
  In  In70  1  0.82475651  0.66508240  0.11586811  1
  In  In71  1  0.83419634  0.66729716  0.62769585  1
  In  In72  1  -0.00324351  0.66641631  0.24929338  1
  In  In73  1  0.84495312  0.17500806  -0.01313310  1
  In  In74  1  0.33504118  -0.00469391  0.25296644  1
  In  In75  1  0.33565321  0.65924383  0.24300089  1
  In  In76  1  -0.01109989  -0.00103624  0.25491587  1
  In  In77  1  0.49386150  0.50098876  0.50618168  1
  In  In78  1  0.00257049  0.33116862  0.25344709  1
  In  In79  1  0.50187108  0.16013014  -0.00397064  1
  In  In80  1  0.50088532  0.50413671  -0.00492584  1
  In  In81  1  0.15571264  0.16833655  0.51251716  1
  In  In82  1  0.66393899  0.66887574  0.24267086  1
  In  In83  1  0.34760017  0.33663259  0.24508054  1
  In  In84  1  0.49997085  0.84288524  0.50827975  1
  In  In85  1  0.15949763  0.82332509  -0.00718326  1
  Cu  Cu86  1  0.51404480  0.48688297  0.25223292  1
  Cu  Cu87  1  0.67151993  0.00586860  -0.00889762  1
  Cu  Cu88  1  -0.00702670  0.66342663  -0.00642101  1
  Cu  Cu89  1  0.15899915  0.83181052  0.26071265  1
  Cu  Cu90  1  0.50464603  0.83977380  0.24466630  1
  Cu  Cu91  1  0.83657550  0.50524197  0.74731073  1
  Cu  Cu92  1  0.17301341  0.83113026  0.75435446  1
  Cu  Cu93  1  0.32825093  0.32788266  -0.01008248  1
  Cu  Cu94  1  0.33690307  0.66940820  -0.01084592  1
  Cu  Cu95  1  0.33085456  -0.00394683  -0.01017131  1
  Cu  Cu96  1  0.49792711  0.49887496  0.74758754  1
  Cu  Cu97  1  0.17350540  0.16961758  0.24170935  1
  Cu  Cu98  1  0.82304322  0.16259474  0.26199583  1
  Cu  Cu99  1  0.50504510  0.83846085  0.74792359  1
  Cu  Cu100  1  0.50411505  0.16289565  0.74654526  1
  Cu  Cu101  1  0.16850437  0.49861158  0.25264883  1
  Cu  Cu102  1  0.67366710  0.33852701  -0.00233147  1
  Cu  Cu103  1  0.82259539  0.84098816  0.25054113  1
  Cu  Cu104  1  0.82820438  0.83258937  0.74699682  1
  Cu  Cu105  1  0.83411315  0.48908564  0.25996924  1
  Cu  Cu106  1  0.32435961  0.34292354  0.51185584  1
  Cu  Cu107  1  0.33266693  -0.00085405  0.50441271  1
  Cu  Cu108  1  0.31845853  0.67190033  0.51189928  1
  Cu  Cu109  1  0.16907158  0.16676549  0.74503736  1
  Cu  Cu110  1  0.00478039  0.66685413  0.51052823  1
  Cu  Cu111  1  0.00506509  -0.00773191  0.51884775  1
  Cu  Cu112  1  0.66674319  0.66468394  0.50813349  1
  Cu  Cu113  1  0.00252658  0.00493328  -0.01184292  1
  Cu  Cu114  1  0.15960478  0.49676278  0.74994351  1
  Se  Se115  1  0.08824432  0.08446098  0.04190528  1
  Se  Se116  1  0.07089413  0.08355786  0.57676715  1
  Se  Se117  1  0.09973095  0.43358261  0.04978714  1
  Se  Se118  1  0.07917749  0.41462769  0.55184409  1
  Se  Se119  1  0.06946098  0.74117622  0.06258673  1
  Se  Se120  1  0.08425419  0.75315259  0.56343811  1
  Se  Se121  1  0.40820510  0.07198061  0.05715198  1
  Se  Se122  1  0.41764260  0.08368550  0.55203124  1
  Se  Se123  1  0.41186639  0.40265034  0.05321438  1
  Se  Se124  1  0.41189380  0.41285640  0.57172117  1
  Se  Se125  1  0.41598496  0.75239942  0.04452149  1
  Se  Se126  1  0.41178396  0.74668311  0.56404045  1
  Se  Se127  1  0.74912092  0.09039475  0.05186089  1
  Se  Se128  1  0.76361231  0.08834425  0.54973841  1
  Se  Se129  1  0.75407805  0.41780320  0.05533691  1
  Se  Se130  1  0.75127647  0.41743310  0.54866604  1
  Se  Se131  1  0.75905513  0.76169584  0.05157395  1
  Se  Se132  1  0.75057371  0.75011890  0.55754168  1
  Se  Se133  1  0.24811458  0.24406824  0.04547732  1
  Se  Se134  1  0.25072133  0.25485108  0.57069851  1
  Se  Se135  1  0.25545153  0.58335183  0.04192588  1
  Se  Se136  1  0.24167616  0.58176742  0.56198178  1
  Se  Se137  1  0.25039883  0.91793366  0.05433280  1
  Se  Se138  1  0.25012570  0.91641185  0.55594111  1
  Se  Se139  1  0.59530306  0.25290223  0.05429580  1
  Se  Se140  1  0.58181203  0.24477322  0.54751435  1
  Se  Se141  1  0.59282833  0.59206419  0.05574263  1
  Se  Se142  1  0.58786470  0.58434296  0.56645353  1
  Se  Se143  1  0.58850744  0.92333571  0.04584341  1
  Se  Se144  1  0.60326407  0.93187004  0.55063956  1
  Se  Se145  1  0.92894728  0.26200195  0.05612710  1
  Se  Se146  1  0.92414956  0.24201782  0.56035981  1
  Se  Se147  1  0.91256343  0.58216582  0.05208650  1
  Se  Se148  1  0.91478633  0.58442890  0.55748031  1
  Se  Se149  1  0.91446974  0.93016047  0.04536501  1
  Se  Se150  1  0.91169692  0.91222081  0.56419320  1
  Se  Se151  1  0.07350269  0.25556206  0.44271726  1
  Se  Se152  1  0.07296065  0.24522557  0.93841646  1
  Se  Se153  1  0.08314367  0.58104423  0.45350390  1
  Se  Se154  1  0.08103317  0.58110901  0.94575542  1
  Se  Se155  1  0.09000355  0.91193847  0.46131322  1
  Se  Se156  1  0.07788432  0.91668094  0.93081149  1
  Se  Se157  1  0.40178209  0.25574206  0.45589212  1
  Se  Se158  1  0.41593709  0.25199300  0.93490423  1
  Se  Se159  1  0.40020245  0.59641358  0.44739177  1
  Se  Se160  1  0.41454438  0.58730045  0.92868613  1
  Se  Se161  1  0.41304834  0.92630894  0.43723472  1
  Se  Se162  1  0.42212353  0.91630333  0.94463085  1
  Se  Se163  1  0.76894905  0.21783382  0.44947661  1
  Se  Se164  1  0.74922978  0.26270598  0.93264861  1
  Se  Se165  1  0.75125960  0.58565185  0.45140789  1
  Se  Se166  1  0.75088311  0.57736909  0.94684245  1
  Se  Se167  1  0.76747454  0.89856551  0.44884241  1
  Se  Se168  1  0.75690934  0.92323617  0.93977588  1
  Se  Se169  1  0.25060317  0.08304494  0.44448478  1
  Se  Se170  1  0.24836224  0.08322992  0.94196154  1
  Se  Se171  1  0.24421470  0.42459219  0.45629011  1
  Se  Se172  1  0.24862548  0.41606486  0.93970073  1
  Se  Se173  1  0.24256726  0.75504709  0.45296866  1
  Se  Se174  1  0.25237953  0.74443759  0.92835034  1
  Se  Se175  1  0.57234981  0.09367767  0.44638435  1
  Se  Se176  1  0.59988346  0.09057501  0.92996521  1
  Se  Se177  1  0.59093034  0.41558604  0.44968088  1
  Se  Se178  1  0.58973350  0.41281715  0.93730281  1
  Se  Se179  1  0.58394644  0.74210584  0.44665459  1
  Se  Se180  1  0.58340641  0.75374052  0.94607822  1
  Se  Se181  1  0.94111184  0.05340321  0.43813053  1
  Se  Se182  1  0.92349783  0.08000349  0.92488641  1
  Se  Se183  1  0.90759591  0.41452177  0.46202343  1
  Se  Se184  1  0.91270665  0.40650341  0.94177239  1
  Se  Se185  1  0.92155055  0.74891300  0.45540659  1
  Se  Se186  1  0.91300169  0.75290188  0.94517147  1
  Se  Se187  1  0.24633624  0.25064016  0.30432534  1
  Se  Se188  1  0.24734819  0.25072034  0.80395999  1
  Se  Se189  1  0.24737112  0.57876781  0.31256568  1
  Se  Se190  1  0.24725891  0.58144321  0.79912916  1
  Se  Se191  1  0.23813824  0.91352320  0.31711253  1
  Se  Se192  1  0.25557323  0.92085969  0.80217744  1
  Se  Se193  1  0.58343612  0.25614851  0.30876621  1
  Se  Se194  1  0.58563238  0.25249320  0.79548919  1
  Se  Se195  1  0.58176131  0.57758502  0.31156239  1
  Se  Se196  1  0.58233903  0.58238066  0.80072236  1
  Se  Se197  1  0.58607638  0.91494869  0.30338698  1
  Se  Se198  1  0.58837024  0.91803579  0.80504695  1
  Se  Se199  1  0.90658364  0.24924118  0.31380917  1
  Se  Se200  1  0.89366251  0.23188319  0.79627642  1
  Se  Se201  1  0.91448968  0.57379027  0.31474066  1
  Se  Se202  1  0.91531992  0.58405794  0.80870966  1
  Se  Se203  1  0.90084266  0.91456280  0.31505654  1
  Se  Se204  1  0.91747751  0.91427312  0.79719030  1
  Se  Se205  1  0.09276040  0.09154512  0.30331762  1
  Se  Se206  1  0.08328359  0.07993097  0.79415895  1
  Se  Se207  1  0.08928879  0.42326553  0.31559124  1
  Se  Se208  1  0.07692524  0.41528534  0.80649213  1
  Se  Se209  1  0.07373946  0.75729091  0.31802636  1
  Se  Se210  1  0.08222432  0.74629766  0.79859366  1
  Se  Se211  1  0.41942571  0.09645611  0.30420959  1
  Se  Se212  1  0.42136018  0.08127678  0.80219266  1
  Se  Se213  1  0.43052509  0.41713583  0.31598720  1
  Se  Se214  1  0.41380854  0.41183113  0.79714668  1
  Se  Se215  1  0.42246129  0.75881384  0.30284094  1
  Se  Se216  1  0.42069628  0.75277146  0.79910390  1
  Se  Se217  1  0.75585730  0.07624442  0.32436878  1
  Se  Se218  1  0.74522213  0.07609664  0.78639101  1
  Se  Se219  1  0.75243325  0.40563443  0.31169512  1
  Se  Se220  1  0.74655879  0.41813267  0.79436628  1
  Se  Se221  1  0.75284252  0.74994573  0.30975913  1
  Se  Se222  1  0.74966480  0.75001251  0.80712745  1
  Se  Se223  1  0.24756881  0.08340769  0.18487672  1
  Se  Se224  1  0.25513485  0.07963184  0.69832029  1
  Se  Se225  1  0.24544861  0.42058347  0.18936129  1
  Se  Se226  1  0.24471545  0.41353201  0.69865677  1
  Se  Se227  1  0.23487344  0.75501125  0.19519712  1
  Se  Se228  1  0.25480472  0.74733267  0.69956120  1
  Se  Se229  1  0.58542334  0.07932472  0.20011386  1
  Se  Se230  1  0.58839529  0.08866068  0.68655666  1
  Se  Se231  1  0.59709515  0.40777559  0.19791992  1
  Se  Se232  1  0.58084939  0.41599448  0.69370602  1
  Se  Se233  1  0.57490336  0.75684547  0.18149503  1
  Se  Se234  1  0.58797964  0.75286828  0.69677340  1
  Se  Se235  1  0.90528431  0.09513076  0.19222290  1
  Se  Se236  1  0.93243123  0.05893877  0.69986569  1
  Se  Se237  1  0.91349583  0.42003190  0.19200365  1
  Se  Se238  1  0.91306575  0.41790242  0.69168866  1
  Se  Se239  1  0.90501652  0.76050264  0.19207156  1
  Se  Se240  1  0.91551170  0.74456849  0.70150718  1
  Se  Se241  1  0.08586644  0.24243256  0.18455061  1
  Se  Se242  1  0.07901369  0.25435297  0.70398639  1
  Se  Se243  1  0.09034960  0.57663099  0.19063781  1
  Se  Se244  1  0.07596961  0.58097734  0.69716113  1
  Se  Se245  1  0.08417170  0.90820211  0.19395749  1
  Se  Se246  1  0.08949993  0.91054776  0.69812660  1
  Se  Se247  1  0.43427916  0.23720308  0.19049457  1
  Se  Se248  1  0.41706301  0.24935531  0.69816222  1
  Se  Se249  1  0.43178773  0.56310628  0.19017974  1
  Se  Se250  1  0.41215187  0.58665062  0.70197579  1
  Se  Se251  1  0.41774819  0.91098229  0.18362477  1
  Se  Se252  1  0.42421210  0.92210435  0.69195036  1
  Se  Se253  1  0.75170632  0.24782588  0.20036340  1
  Se  Se254  1  0.75228711  0.25233812  0.68904054  1
  Se  Se255  1  0.76101543  0.57237803  0.19543420  1
  Se  Se256  1  0.74732998  0.58591446  0.69664845  1
  Se  Se257  1  0.74398614  0.92647000  0.19598678  1
  Se  Se258  1  0.74749157  0.91838455  0.69485323  1
