# generated using pymatgen
data_In86Cu29Se144
_symmetry_space_group_name_H-M   'P 1'
_cell_length_a   17.57818566
_cell_length_b   17.57887666
_cell_length_c   23.43768546
_cell_angle_alpha   90.00839056
_cell_angle_beta   90.00944718
_cell_angle_gamma   89.99170855
_symmetry_Int_Tables_number   1
_chemical_formula_structural   In86Cu29Se144
_chemical_formula_sum   'In86 Cu29 Se144'
_cell_volume   7242.35605900
_cell_formula_units_Z   1
loop_
 _symmetry_equiv_pos_site_id
 _symmetry_equiv_pos_as_xyz
  1  'x, y, z'
loop_
 _atom_site_type_symbol
 _atom_site_label
 _atom_site_symmetry_multiplicity
 _atom_site_fract_x
 _atom_site_fract_y
 _atom_site_fract_z
 _atom_site_occupancy
  In  In0  1  0.00671427  0.17231424  0.12804345  1
  In  In1  1  0.00196284  0.18588028  0.62886758  1
  In  In2  1  -0.01371002  0.50060414  0.12472824  1
  In  In3  1  -0.00890408  0.50412105  0.62444757  1
  In  In4  1  -0.00125178  0.83419588  0.10892713  1
  In  In5  1  -0.01494328  0.81008815  0.62957851  1
  In  In6  1  0.32190479  0.16056899  0.11379793  1
  In  In7  1  0.34573135  0.17842723  0.62726345  1
  In  In8  1  0.34151145  0.47976584  0.11666176  1
  In  In9  1  0.33792511  0.49721062  0.62601358  1
  In  In10  1  0.34276194  0.84134765  0.11363552  1
  In  In11  1  0.33005705  0.81549602  0.62655751  1
  In  In12  1  0.67504790  0.18748324  0.12566333  1
  In  In13  1  0.66294025  0.15583048  0.62728331  1
  In  In14  1  0.66739991  0.49972149  0.12454966  1
  In  In15  1  0.67841507  0.50144925  0.61119893  1
  In  In16  1  0.65755503  0.82044658  0.11792638  1
  In  In17  1  0.66485674  0.84233873  0.63277227  1
  In  In18  1  0.17337290  -0.00842108  0.36838759  1
  In  In19  1  0.17387638  -0.00066103  0.88590842  1
  In  In20  1  0.17185412  0.34017400  0.37682286  1
  In  In21  1  0.16017184  0.33727680  0.86773390  1
  In  In22  1  0.15616177  0.66002329  0.37932073  1
  In  In23  1  0.17577500  0.66353061  0.86243744  1
  In  In24  1  0.49086658  0.00307373  0.37151705  1
  In  In25  1  0.50865160  -0.00849525  0.88283135  1
  In  In26  1  0.50650463  0.33855839  0.37486960  1
  In  In27  1  0.49056819  0.34921914  0.89042142  1
  In  In28  1  0.50947154  0.65152258  0.38444373  1
  In  In29  1  0.50177811  0.66926251  0.87092353  1
  In  In30  1  0.84467137  0.00463093  0.37673702  1
  In  In31  1  0.81215476  0.00075207  0.86742116  1
  In  In32  1  0.83417330  0.33573269  0.38165827  1
  In  In33  1  0.85230853  0.33344765  0.86948150  1
  In  In34  1  0.81932640  0.66783634  0.37521274  1
  In  In35  1  0.83071209  0.66725630  0.87331528  1
  In  In36  1  -0.01962911  0.16975455  0.37918985  1
  In  In37  1  0.00024569  0.18532164  0.87514532  1
  In  In38  1  0.00787865  0.49007257  0.38484301  1
  In  In39  1  -0.00093963  0.48661176  0.86432806  1
  In  In40  1  -0.00216336  0.83389391  0.37463098  1
  In  In41  1  0.00725168  0.82836595  0.87995931  1
  In  In42  1  0.34499776  0.16432557  0.36712934  1
  In  In43  1  0.32665981  0.18343111  0.89244174  1
  In  In44  1  0.33470856  0.49368739  0.38773408  1
  In  In45  1  0.33393549  0.51202965  0.86109077  1
  In  In46  1  0.33554812  0.84295837  0.37138166  1
  In  In47  1  0.34135582  0.82454709  0.87951144  1
  In  In48  1  0.67618822  0.19095204  0.36938329  1
  In  In49  1  0.66725976  0.15527545  0.87411755  1
  In  In50  1  0.66420299  0.49672556  0.37997745  1
  In  In51  1  0.65894533  0.51623735  0.87815749  1
  In  In52  1  0.66912540  0.81291460  0.37172789  1
  In  In53  1  0.66663728  0.82818160  0.87148779  1
  In  In54  1  0.17530192  0.01154754  0.11392538  1
  In  In55  1  0.17051454  -0.00527971  0.63012562  1
  In  In56  1  0.16403339  0.29711108  0.12431714  1
  In  In57  1  0.14006080  0.37894993  0.66554790  1
  In  In58  1  0.15450033  0.66529515  0.11718579  1
  In  In59  1  0.18872824  0.62249097  0.66270425  1
  In  In60  1  0.49352296  -0.00872847  0.11864164  1
  In  In61  1  0.51614819  0.00002453  0.62684537  1
  In  In62  1  0.50814052  0.34517767  0.11327747  1
  In  In63  1  0.48949201  0.33264639  0.62841588  1
  In  In64  1  0.50640950  0.67256524  0.11544950  1
  In  In65  1  0.50205818  0.66673288  0.62546672  1
  In  In66  1  0.84461721  0.00059209  0.12092199  1
  In  In67  1  0.81693122  -0.00468114  0.62649101  1
  In  In68  1  0.82032553  0.33966439  0.13859337  1
  In  In69  1  0.83289247  0.34346455  0.61658810  1
  In  In70  1  0.82082816  0.65265120  0.11345292  1
  In  In71  1  0.84164472  0.65660962  0.64239795  1
  In  In72  1  0.66516664  0.00396181  0.25340903  1
  In  In73  1  0.16740833  0.49809904  -0.00253473  1
  In  In74  1  0.33230317  0.32539907  0.24402620  1
  In  In75  1  -0.00701716  0.66883022  0.25319972  1
  In  In76  1  0.33783388  0.66298622  0.24548536  1
  In  In77  1  -0.00366268  0.00109993  0.75230593  1
  In  In78  1  0.82888082  0.82866807  0.50224397  1
  In  In79  1  0.33925806  0.00101198  0.75917247  1
  In  In80  1  0.00508356  0.01038105  0.24287526  1
  In  In81  1  0.50669763  0.17033444  0.49454667  1
  In  In82  1  0.66760481  0.33302222  0.74646843  1
  In  In83  1  0.83467711  0.16747049  -0.00233602  1
  In  In84  1  0.17381255  0.17581286  0.50246851  1
  In  In85  1  0.16284646  0.82349975  0.50156498  1
  Cu  Cu86  1  0.50373197  0.16754478  0.75604657  1
  Cu  Cu87  1  0.50030229  0.50560146  0.75080569  1
  Cu  Cu88  1  0.49987508  0.83258697  0.75392459  1
  Cu  Cu89  1  0.33329597  0.66405118  0.51022774  1
  Cu  Cu90  1  0.32699943  0.34121055  0.50754170  1
  Cu  Cu91  1  -0.00115889  0.34255486  0.50769759  1
  Cu  Cu92  1  0.49852496  0.82655434  0.24169834  1
  Cu  Cu93  1  0.17284333  0.17078387  0.75749063  1
  Cu  Cu94  1  0.82832333  0.83090627  0.24105921  1
  Cu  Cu95  1  0.17631851  0.83993061  0.24177101  1
  Cu  Cu96  1  0.51006320  0.49873251  0.24904340  1
  Cu  Cu97  1  0.66344417  -0.00595051  -0.00164010  1
  Cu  Cu98  1  0.82689764  0.49525426  0.25228636  1
  Cu  Cu99  1  0.00122441  0.65584676  0.50959627  1
  Cu  Cu100  1  0.33400264  0.66505912  -0.00991251  1
  Cu  Cu101  1  0.16811378  0.49357630  0.25323621  1
  Cu  Cu102  1  0.34246654  -0.00452227  0.49524408  1
  Cu  Cu103  1  0.49865151  0.16479483  0.24457827  1
  Cu  Cu104  1  0.16048950  0.82313064  0.75345167  1
  Cu  Cu105  1  0.66445003  -0.00140993  0.50080291  1
  Cu  Cu106  1  0.67391315  0.34080262  0.00095812  1
  Cu  Cu107  1  0.00312364  0.33574136  -0.00123465  1
  Cu  Cu108  1  0.82964123  0.49899105  0.74766282  1
  Cu  Cu109  1  -0.00203653  0.66723502  -0.00670899  1
  Cu  Cu110  1  0.66741737  0.66930953  -0.00557980  1
  Cu  Cu111  1  -0.00274136  0.00814680  0.50470091  1
  Cu  Cu112  1  0.33192507  0.00051701  -0.00253390  1
  Cu  Cu113  1  -0.00213250  0.00019604  -0.00318656  1
  Cu  Cu114  1  0.66442695  0.66576865  0.50308938  1
  Se  Se115  1  0.07460598  0.08664409  0.05344304  1
  Se  Se116  1  0.08457528  0.08055928  0.56283973  1
  Se  Se117  1  0.08195263  0.41159854  0.06430515  1
  Se  Se118  1  0.08526770  0.41783895  0.56613568  1
  Se  Se119  1  0.08502118  0.74958887  0.04416584  1
  Se  Se120  1  0.08405996  0.73473785  0.56754412  1
  Se  Se121  1  0.41664222  0.08147770  0.05195075  1
  Se  Se122  1  0.41603461  0.07861858  0.55778892  1
  Se  Se123  1  0.42473573  0.41923149  0.04058061  1
  Se  Se124  1  0.42194582  0.41855555  0.55349320  1
  Se  Se125  1  0.41576505  0.74730949  0.04807889  1
  Se  Se126  1  0.41983500  0.75216065  0.55416364  1
  Se  Se127  1  0.74197053  0.07796548  0.05886695  1
  Se  Se128  1  0.74688780  0.08179981  0.55321959  1
  Se  Se129  1  0.75817701  0.41904785  0.05764428  1
  Se  Se130  1  0.74413147  0.40733149  0.54266280  1
  Se  Se131  1  0.75209777  0.75213508  0.04935339  1
  Se  Se132  1  0.74475119  0.74217097  0.56619940  1
  Se  Se133  1  0.26796139  0.27145833  0.05236127  1
  Se  Se134  1  0.25005488  0.26391855  0.57036314  1
  Se  Se135  1  0.26044861  0.58844287  0.05869402  1
  Se  Se136  1  0.24693296  0.58446538  0.56408613  1
  Se  Se137  1  0.24659834  0.91445597  0.04926651  1
  Se  Se138  1  0.25798846  0.92063606  0.55581493  1
  Se  Se139  1  0.59133208  0.25285778  0.05026511  1
  Se  Se140  1  0.58811795  0.25605931  0.56187463  1
  Se  Se141  1  0.58871513  0.58370682  0.05226134  1
  Se  Se142  1  0.57943179  0.58191658  0.55397373  1
  Se  Se143  1  0.57941311  0.90985674  0.05179149  1
  Se  Se144  1  0.58449240  0.91326447  0.55364460  1
  Se  Se145  1  0.91801388  0.25976707  0.06028955  1
  Se  Se146  1  0.91757611  0.25100022  0.55364914  1
  Se  Se147  1  0.91867459  0.58196620  0.04837488  1
  Se  Se148  1  0.90220484  0.58445257  0.55636038  1
  Se  Se149  1  0.90979878  0.91674911  0.04485089  1
  Se  Se150  1  0.92316619  0.91818185  0.56133040  1
  Se  Se151  1  0.07549491  0.25910050  0.44457562  1
  Se  Se152  1  0.08917413  0.25534933  0.94597314  1
  Se  Se153  1  0.08728704  0.57790675  0.45368836  1
  Se  Se154  1  0.07894769  0.58514566  0.93454030  1
  Se  Se155  1  0.07626952  0.92653473  0.44464481  1
  Se  Se156  1  0.08537873  0.91589960  0.94852348  1
  Se  Se157  1  0.40319130  0.25973434  0.44327583  1
  Se  Se158  1  0.43838009  0.23745613  0.95009417  1
  Se  Se159  1  0.41422937  0.58249835  0.45182080  1
  Se  Se160  1  0.41681276  0.58266127  0.93702117  1
  Se  Se161  1  0.42485900  0.91159257  0.44386684  1
  Se  Se162  1  0.41561912  0.91410689  0.94741879  1
  Se  Se163  1  0.74673808  0.25637090  0.45048834  1
  Se  Se164  1  0.74828235  0.25979414  0.93656824  1
  Se  Se165  1  0.74851392  0.58455380  0.44769609  1
  Se  Se166  1  0.75434766  0.58281239  0.94729950  1
  Se  Se167  1  0.74377557  0.91963133  0.43635655  1
  Se  Se168  1  0.74664163  0.91504851  0.94258597  1
  Se  Se169  1  0.25911246  0.07776002  0.44016348  1
  Se  Se170  1  0.24530354  0.09050990  0.95422653  1
  Se  Se171  1  0.24051430  0.42108395  0.45374398  1
  Se  Se172  1  0.25705434  0.41759286  0.93326914  1
  Se  Se173  1  0.25984430  0.74031019  0.43947040  1
  Se  Se174  1  0.24462743  0.74497075  0.93996575  1
  Se  Se175  1  0.59474373  0.07957339  0.43292672  1
  Se  Se176  1  0.58443929  0.08468771  0.94928174  1
  Se  Se177  1  0.56828156  0.42667984  0.44712675  1
  Se  Se178  1  0.58965979  0.42554320  0.94931163  1
  Se  Se179  1  0.58377224  0.74992922  0.44785442  1
  Se  Se180  1  0.58016512  0.75174419  0.94344581  1
  Se  Se181  1  0.90888588  0.08698335  0.45447059  1
  Se  Se182  1  0.92068779  0.07870314  0.93325632  1
  Se  Se183  1  0.91365613  0.42272781  0.45288126  1
  Se  Se184  1  0.92075223  0.41798913  0.94462549  1
  Se  Se185  1  0.92777156  0.73872116  0.44416849  1
  Se  Se186  1  0.91261023  0.75148421  0.94367840  1
  Se  Se187  1  0.24204606  0.24032782  0.30848868  1
  Se  Se188  1  0.25698456  0.25240110  0.80990969  1
  Se  Se189  1  0.24680657  0.57667420  0.31043898  1
  Se  Se190  1  0.23901814  0.57332697  0.78887171  1
  Se  Se191  1  0.25894151  0.92082924  0.29599644  1
  Se  Se192  1  0.24169194  0.90805078  0.80944232  1
  Se  Se193  1  0.57400828  0.24968809  0.30212278  1
  Se  Se194  1  0.57966983  0.25327799  0.81532470  1
  Se  Se195  1  0.58737120  0.58280680  0.30599269  1
  Se  Se196  1  0.58619373  0.59002841  0.79958194  1
  Se  Se197  1  0.57704382  0.90468247  0.30743569  1
  Se  Se198  1  0.58328738  0.91809819  0.80473163  1
  Se  Se199  1  0.92172047  0.26348453  0.30924224  1
  Se  Se200  1  0.91784702  0.24554806  0.79735078  1
  Se  Se201  1  0.90984134  0.57437120  0.31383966  1
  Se  Se202  1  0.91257772  0.57828034  0.80569271  1
  Se  Se203  1  0.91139118  0.90976603  0.30046316  1
  Se  Se204  1  0.91216433  0.91133878  0.81391916  1
  Se  Se205  1  0.08549700  0.09012505  0.31621493  1
  Se  Se206  1  0.09312475  0.08563676  0.81299983  1
  Se  Se207  1  0.08317210  0.41509809  0.30754461  1
  Se  Se208  1  0.08937383  0.41931511  0.79195787  1
  Se  Se209  1  0.09613471  0.76184119  0.30464337  1
  Se  Se210  1  0.07467746  0.74250006  0.80493144  1
  Se  Se211  1  0.41565402  0.07835440  0.29448376  1
  Se  Se212  1  0.42310950  0.09164824  0.82008588  1
  Se  Se213  1  0.41610845  0.42475615  0.30455461  1
  Se  Se214  1  0.42390005  0.41786779  0.80570227  1
  Se  Se215  1  0.42482088  0.74888569  0.31017001  1
  Se  Se216  1  0.41259575  0.74815038  0.80150060  1
  Se  Se217  1  0.76105726  0.09116211  0.30866865  1
  Se  Se218  1  0.75451500  0.09721609  0.79788134  1
  Se  Se219  1  0.74694877  0.41494742  0.31061286  1
  Se  Se220  1  0.75170564  0.42195655  0.81268500  1
  Se  Se221  1  0.75099799  0.74435170  0.29534060  1
  Se  Se222  1  0.73513782  0.73280604  0.80437490  1
  Se  Se223  1  0.23968351  0.09448383  0.19027054  1
  Se  Se224  1  0.24938936  0.09112031  0.69415216  1
  Se  Se225  1  0.24026483  0.41763423  0.18634136  1
  Se  Se226  1  0.27720517  0.40001611  0.69730140  1
  Se  Se227  1  0.24643691  0.75003640  0.18375193  1
  Se  Se228  1  0.25239083  0.74609287  0.70336494  1
  Se  Se229  1  0.58078872  0.08660783  0.18416726  1
  Se  Se230  1  0.58393666  0.08159245  0.70338425  1
  Se  Se231  1  0.58680332  0.41203847  0.19325747  1
  Se  Se232  1  0.57925856  0.42645532  0.68806857  1
  Se  Se233  1  0.58475931  0.74159632  0.19481304  1
  Se  Se234  1  0.58118447  0.75253846  0.69539284  1
  Se  Se235  1  0.90325532  0.09820069  0.19355565  1
  Se  Se236  1  0.91456766  0.08617933  0.68484240  1
  Se  Se237  1  0.91740849  0.41859593  0.19977596  1
  Se  Se238  1  0.91173560  0.41554069  0.69359160  1
  Se  Se239  1  0.91205556  0.75253722  0.18231505  1
  Se  Se240  1  0.89377523  0.76423816  0.70663309  1
  Se  Se241  1  0.07467934  0.25476375  0.20386022  1
  Se  Se242  1  0.08566251  0.25033556  0.70496014  1
  Se  Se243  1  0.08780059  0.57782938  0.19568801  1
  Se  Se244  1  0.05036085  0.60597446  0.69311957  1
  Se  Se245  1  0.08707380  0.91167959  0.18357196  1
  Se  Se246  1  0.08481466  0.90362785  0.69131520  1
  Se  Se247  1  0.42507139  0.24556559  0.18032359  1
  Se  Se248  1  0.41935270  0.25120598  0.70526781  1
  Se  Se249  1  0.42515206  0.57053328  0.18582218  1
  Se  Se250  1  0.41676585  0.58651587  0.69460278  1
  Se  Se251  1  0.41519311  0.91357567  0.19387797  1
  Se  Se252  1  0.41972486  0.91260268  0.69039865  1
  Se  Se253  1  0.74661432  0.25102332  0.20698488  1
  Se  Se254  1  0.75655633  0.24572486  0.68566644  1
  Se  Se255  1  0.75138810  0.58209366  0.19536048  1
  Se  Se256  1  0.73928865  0.57581337  0.69574297  1
  Se  Se257  1  0.74993355  0.91613831  0.18555524  1
  Se  Se258  1  0.75397373  0.91378883  0.70275444  1
