# generated using pymatgen
data_In86Cu29Se144
_symmetry_space_group_name_H-M   'P 1'
_cell_length_a   17.58947478
_cell_length_b   17.59585841
_cell_length_c   23.45295260
_cell_angle_alpha   89.99620203
_cell_angle_beta   89.99599846
_cell_angle_gamma   89.97248764
_symmetry_Int_Tables_number   1
_chemical_formula_structural   In86Cu29Se144
_chemical_formula_sum   'In86 Cu29 Se144'
_cell_volume   7258.73270228
_cell_formula_units_Z   1
loop_
 _symmetry_equiv_pos_site_id
 _symmetry_equiv_pos_as_xyz
  1  'x, y, z'
loop_
 _atom_site_type_symbol
 _atom_site_label
 _atom_site_symmetry_multiplicity
 _atom_site_fract_x
 _atom_site_fract_y
 _atom_site_fract_z
 _atom_site_occupancy
  In  In0  1  0.00028286  0.17176093  0.12995354  1
  In  In1  1  0.00178565  0.16228703  0.63158283  1
  In  In2  1  -0.02051326  0.48005327  0.10427748  1
  In  In3  1  0.00012830  0.49654895  0.62672105  1
  In  In4  1  0.00156815  0.84834666  0.12497563  1
  In  In5  1  -0.01401581  0.84141650  0.62863466  1
  In  In6  1  0.33181762  0.17272223  0.12353579  1
  In  In7  1  0.34732433  0.17749026  0.63196798  1
  In  In8  1  0.31463812  0.49639468  0.12017433  1
  In  In9  1  0.33291300  0.49395028  0.62618036  1
  In  In10  1  0.34661497  0.83519586  0.12290880  1
  In  In11  1  0.32247702  0.82944538  0.62708165  1
  In  In12  1  0.66547229  0.17876071  0.13498273  1
  In  In13  1  0.65988343  0.15530651  0.63061209  1
  In  In14  1  0.67593176  0.49682635  0.13644567  1
  In  In15  1  0.67927283  0.51247367  0.61669613  1
  In  In16  1  0.67238408  0.82811979  0.13370532  1
  In  In17  1  0.67991242  0.81902018  0.63327825  1
  In  In18  1  0.16739806  0.00153229  0.36675392  1
  In  In19  1  0.16652404  0.01515903  0.87811034  1
  In  In20  1  0.16832183  0.33699119  0.36963864  1
  In  In21  1  0.16070309  0.33348817  0.87996954  1
  In  In22  1  0.15306674  0.65786649  0.37875724  1
  In  In23  1  0.15674441  0.65357426  0.86160342  1
  In  In24  1  0.50935728  0.01111715  0.36850842  1
  In  In25  1  0.50636412  0.00144153  0.87714285  1
  In  In26  1  0.51154555  0.34157628  0.36637021  1
  In  In27  1  0.48677243  0.33112324  0.87677119  1
  In  In28  1  0.50199078  0.64962378  0.37937607  1
  In  In29  1  0.50642745  0.67438277  0.85533127  1
  In  In30  1  0.83512194  -0.00467339  0.37179302  1
  In  In31  1  0.82913924  -0.00322487  0.87006986  1
  In  In32  1  0.84363464  0.35061005  0.35357465  1
  In  In33  1  0.85373488  0.33616793  0.87894887  1
  In  In34  1  0.82907378  0.67435233  0.38272362  1
  In  In35  1  0.82358383  0.65170691  0.87128767  1
  In  In36  1  -0.01201487  0.17112820  0.35847352  1
  In  In37  1  0.01179527  0.17879179  0.86703566  1
  In  In38  1  0.00161056  0.49814494  0.38163786  1
  In  In39  1  -0.00180704  0.49807949  0.87731810  1
  In  In40  1  -0.00811313  0.82781196  0.37888104  1
  In  In41  1  0.00356477  0.83644941  0.86642634  1
  In  In42  1  0.33632703  0.17140985  0.36534091  1
  In  In43  1  0.31799062  0.17656217  0.88701190  1
  In  In44  1  0.33671374  0.49001403  0.38103026  1
  In  In45  1  0.32400859  0.48565375  0.86419117  1
  In  In46  1  0.32638773  0.84034456  0.37501635  1
  In  In47  1  0.34887288  0.83017033  0.86444283  1
  In  In48  1  0.68214820  0.17150189  0.35969276  1
  In  In49  1  0.66762891  0.15332197  0.87916197  1
  In  In50  1  0.66696841  0.50116601  0.37285361  1
  In  In51  1  0.67176757  0.51094106  0.87706429  1
  In  In52  1  0.67629780  0.84440534  0.37107406  1
  In  In53  1  0.66358677  0.83069313  0.86815615  1
  In  In54  1  0.15002215  0.02404126  0.13259872  1
  In  In55  1  0.15962658  -0.00874015  0.62486348  1
  In  In56  1  0.16322671  0.33849226  0.12766613  1
  In  In57  1  0.15773230  0.34134999  0.63198068  1
  In  In58  1  0.16644083  0.65064028  0.11723896  1
  In  In59  1  0.17499013  0.65321430  0.63340735  1
  In  In60  1  0.49118117  0.00816396  0.13050244  1
  In  In61  1  0.51457950  0.00606741  0.63047790  1
  In  In62  1  0.50900126  0.32485596  0.12924589  1
  In  In63  1  0.48775181  0.32883692  0.62905566  1
  In  In64  1  0.50635650  0.67214927  0.12452738  1
  In  In65  1  0.51542099  0.65741396  0.63562194  1
  In  In66  1  0.82567257  0.01918509  0.14744878  1
  In  In67  1  0.84447750  -0.01578112  0.62777172  1
  In  In68  1  0.82874534  0.34112892  0.13745546  1
  In  In69  1  0.83324872  0.34853788  0.62257981  1
  In  In70  1  0.82495900  0.65280488  0.12375066  1
  In  In71  1  0.83492500  0.66579135  0.62581966  1
  In  In72  1  0.16054712  0.82426575  0.49754335  1
  In  In73  1  0.33744822  0.66626639  0.24878227  1
  In  In74  1  0.32858442  0.00213684  0.75168098  1
  In  In75  1  0.49986741  0.49995178  -0.00445609  1
  In  In76  1  0.15992584  0.17101436  0.50515900  1
  In  In77  1  -0.00433663  0.66879086  0.25403576  1
  In  In78  1  0.50368455  0.82812317  0.51113259  1
  In  In79  1  0.50490815  0.17209725  0.50140423  1
  In  In80  1  0.83207889  0.17145383  0.48708030  1
  In  In81  1  0.66746244  0.33071328  0.75018373  1
  In  In82  1  0.17176321  0.83323353  -0.00115569  1
  In  In83  1  0.83527991  0.17236829  0.00796598  1
  In  In84  1  0.83513021  0.83064427  0.00702382  1
  In  In85  1  0.50283315  0.83166220  -0.01065235  1
  Cu  Cu86  1  0.68096178  -0.00051695  0.49674418  1
  Cu  Cu87  1  0.66332845  0.34725819  0.49609697  1
  Cu  Cu88  1  0.32937385  0.33203909  0.00045449  1
  Cu  Cu89  1  0.16166972  0.49509343  0.24962625  1
  Cu  Cu90  1  0.33313137  0.65983281  -0.01594807  1
  Cu  Cu91  1  -0.00010531  0.66469263  -0.00832368  1
  Cu  Cu92  1  0.33772208  0.00382718  0.49291196  1
  Cu  Cu93  1  0.65873031  -0.00182601  0.00394244  1
  Cu  Cu94  1  0.50197084  0.49767624  0.25037380  1
  Cu  Cu95  1  0.16427829  0.16969976  0.75504690  1
  Cu  Cu96  1  0.83258694  0.16032030  0.75465701  1
  Cu  Cu97  1  -0.00314945  0.01384548  0.00243090  1
  Cu  Cu98  1  -0.00452499  0.33529155  0.49778517  1
  Cu  Cu99  1  0.17689674  0.83993509  0.24604345  1
  Cu  Cu100  1  0.49401646  0.16261885  0.24548583  1
  Cu  Cu101  1  0.83572104  0.83231111  0.25396828  1
  Cu  Cu102  1  0.33031102  0.65129653  0.50649526  1
  Cu  Cu103  1  0.66679054  0.66544504  0.50168353  1
  Cu  Cu104  1  -0.00043869  0.65820367  0.50694575  1
  Cu  Cu105  1  0.15959161  0.82897875  0.74697479  1
  Cu  Cu106  1  0.16682967  0.49252537  0.75044934  1
  Cu  Cu107  1  0.50226983  0.49815065  0.74762616  1
  Cu  Cu108  1  0.83852734  0.50145756  0.74729212  1
  Cu  Cu109  1  0.33360609  0.34055896  0.50017248  1
  Cu  Cu110  1  0.17165862  0.17458622  0.24553847  1
  Cu  Cu111  1  0.83332198  0.83248545  0.74980672  1
  Cu  Cu112  1  0.32728876  0.00958054  0.00795192  1
  Cu  Cu113  1  0.67148779  0.33417306  0.00805968  1
  Cu  Cu114  1  0.50443055  0.83504379  0.25080468  1
  Se  Se115  1  0.08112218  0.09752034  0.05254888  1
  Se  Se116  1  0.07103239  0.07139752  0.55500760  1
  Se  Se117  1  0.10741999  0.44322789  0.06090556  1
  Se  Se118  1  0.08046325  0.41259116  0.55443640  1
  Se  Se119  1  0.07373922  0.74543528  0.05723919  1
  Se  Se120  1  0.07962055  0.74029861  0.56689565  1
  Se  Se121  1  0.41872767  0.08884582  0.05582927  1
  Se  Se122  1  0.41350555  0.07778120  0.55899689  1
  Se  Se123  1  0.41364635  0.41130757  0.05972937  1
  Se  Se124  1  0.42106616  0.41620267  0.55549433  1
  Se  Se125  1  0.40919519  0.73772078  0.04882986  1
  Se  Se126  1  0.40747294  0.73704978  0.56331292  1
  Se  Se127  1  0.74291318  0.07724680  0.06201791  1
  Se  Se128  1  0.75281083  0.08428173  0.55915316  1
  Se  Se129  1  0.75116221  0.41744497  0.06115541  1
  Se  Se130  1  0.75473154  0.42296651  0.54797926  1
  Se  Se131  1  0.73656165  0.74033267  0.05544297  1
  Se  Se132  1  0.75224770  0.74802504  0.55406933  1
  Se  Se133  1  0.24483079  0.25392255  0.05731143  1
  Se  Se134  1  0.25832335  0.25666605  0.56089001  1
  Se  Se135  1  0.25203665  0.58277027  0.04293897  1
  Se  Se136  1  0.24294133  0.57106600  0.55665939  1
  Se  Se137  1  0.25039595  0.92399578  0.06622385  1
  Se  Se138  1  0.25612680  0.92316503  0.55090570  1
  Se  Se139  1  0.58763196  0.24703095  0.05516585  1
  Se  Se140  1  0.59674281  0.26133605  0.56090900  1
  Se  Se141  1  0.58896490  0.58202682  0.06039613  1
  Se  Se142  1  0.57977930  0.58371901  0.55276738  1
  Se  Se143  1  0.58313208  0.91403147  0.06311302  1
  Se  Se144  1  0.59882482  0.92458498  0.55957692  1
  Se  Se145  1  0.92293948  0.26645892  0.06230709  1
  Se  Se146  1  0.92018219  0.25167640  0.55857672  1
  Se  Se147  1  0.91390776  0.58990050  0.04933912  1
  Se  Se148  1  0.91317887  0.57612355  0.55814016  1
  Se  Se149  1  0.91353100  0.93663594  0.06125725  1
  Se  Se150  1  0.91677171  0.91341313  0.54857256  1
  Se  Se151  1  0.07189246  0.25266812  0.43696142  1
  Se  Se152  1  0.07783561  0.24949821  0.94740585  1
  Se  Se153  1  0.08467248  0.57661732  0.45392609  1
  Se  Se154  1  0.08776472  0.58301451  0.94302190  1
  Se  Se155  1  0.08042430  0.92316493  0.43978136  1
  Se  Se156  1  0.07377590  0.92504522  0.94544761  1
  Se  Se157  1  0.41312762  0.25824656  0.44013391  1
  Se  Se158  1  0.41680549  0.24851188  0.95184808  1
  Se  Se159  1  0.41633200  0.57605378  0.44946451  1
  Se  Se160  1  0.41797832  0.58529440  0.92577883  1
  Se  Se161  1  0.42236005  0.92016100  0.44147535  1
  Se  Se162  1  0.40075562  0.92612970  0.94440996  1
  Se  Se163  1  0.74223476  0.26726032  0.43464080  1
  Se  Se164  1  0.74669698  0.25697736  0.94035836  1
  Se  Se165  1  0.74736245  0.58249966  0.44508093  1
  Se  Se166  1  0.75627142  0.57692439  0.95099020  1
  Se  Se167  1  0.76091884  0.91182685  0.44673850  1
  Se  Se168  1  0.74084238  0.91917718  0.94493819  1
  Se  Se169  1  0.25429754  0.08626465  0.44023609  1
  Se  Se170  1  0.23947148  0.08897053  0.95572422  1
  Se  Se171  1  0.24267011  0.41529327  0.44652323  1
  Se  Se172  1  0.25110532  0.41760981  0.94491043  1
  Se  Se173  1  0.25979831  0.73496345  0.44117251  1
  Se  Se174  1  0.25381808  0.74718041  0.92986533  1
  Se  Se175  1  0.60005820  0.08489142  0.44169785  1
  Se  Se176  1  0.57886047  0.08411100  0.95174824  1
  Se  Se177  1  0.57586743  0.42525742  0.44367487  1
  Se  Se178  1  0.59256918  0.40642939  0.93942911  1
  Se  Se179  1  0.58858857  0.74775888  0.44038858  1
  Se  Se180  1  0.59195356  0.73336063  0.93907254  1
  Se  Se181  1  0.92868300  0.07957209  0.43761065  1
  Se  Se182  1  0.91514943  0.08472369  0.93754844  1
  Se  Se183  1  0.90926283  0.41222742  0.44168137  1
  Se  Se184  1  0.91988416  0.42053465  0.95193536  1
  Se  Se185  1  0.92105842  0.74530492  0.45275930  1
  Se  Se186  1  0.92059936  0.75008605  0.93680182  1
  Se  Se187  1  0.25352443  0.25752359  0.30110247  1
  Se  Se188  1  0.24625220  0.25248130  0.80886425  1
  Se  Se189  1  0.24292018  0.57908032  0.30834457  1
  Se  Se190  1  0.25335212  0.58109736  0.79761450  1
  Se  Se191  1  0.25794429  0.92326641  0.30031676  1
  Se  Se192  1  0.23708016  0.90961031  0.81143490  1
  Se  Se193  1  0.57869715  0.24293407  0.30128479  1
  Se  Se194  1  0.58104986  0.24457200  0.81425328  1
  Se  Se195  1  0.58261747  0.58485626  0.30204826  1
  Se  Se196  1  0.59054125  0.57775291  0.79932474  1
  Se  Se197  1  0.58650292  0.92019274  0.30366270  1
  Se  Se198  1  0.56565420  0.90532977  0.80892324  1
  Se  Se199  1  0.89358909  0.23847213  0.29185880  1
  Se  Se200  1  0.91497864  0.24982122  0.80152424  1
  Se  Se201  1  0.90851320  0.57991817  0.31417266  1
  Se  Se202  1  0.91968224  0.58276451  0.80504473  1
  Se  Se203  1  0.92369221  0.91259248  0.30484556  1
  Se  Se204  1  0.91593073  0.91888889  0.80213867  1
  Se  Se205  1  0.08980204  0.09294085  0.30260003  1
  Se  Se206  1  0.08131862  0.07941126  0.80191252  1
  Se  Se207  1  0.07639320  0.41768985  0.30637401  1
  Se  Se208  1  0.08146061  0.41523352  0.80749759  1
  Se  Se209  1  0.09645263  0.76039114  0.30715434  1
  Se  Se210  1  0.07562607  0.74482155  0.79868695  1
  Se  Se211  1  0.41378405  0.07891504  0.30161065  1
  Se  Se212  1  0.40915552  0.08873521  0.81890294  1
  Se  Se213  1  0.41474861  0.41829813  0.30363846  1
  Se  Se214  1  0.42036319  0.41253328  0.79937044  1
  Se  Se215  1  0.42424160  0.75604474  0.31323108  1
  Se  Se216  1  0.41374683  0.74694293  0.78995585  1
  Se  Se217  1  0.74942703  0.06889187  0.30137203  1
  Se  Se218  1  0.74388914  0.07864852  0.80270174  1
  Se  Se219  1  0.72749566  0.40504404  0.30185830  1
  Se  Se220  1  0.75917175  0.41980223  0.80967193  1
  Se  Se221  1  0.75149916  0.74963629  0.30646890  1
  Se  Se222  1  0.75285480  0.74846230  0.80518052  1
  Se  Se223  1  0.25430856  0.08629261  0.19518564  1
  Se  Se224  1  0.24014287  0.09300872  0.68712205  1
  Se  Se225  1  0.25211903  0.41636083  0.19934188  1
  Se  Se226  1  0.25388153  0.41036356  0.69819004  1
  Se  Se227  1  0.24493437  0.75209763  0.18467163  1
  Se  Se228  1  0.24895035  0.74757168  0.69943357  1
  Se  Se229  1  0.58487484  0.08314461  0.19538873  1
  Se  Se230  1  0.57125441  0.09576455  0.70460176  1
  Se  Se231  1  0.58556480  0.41226296  0.19792173  1
  Se  Se232  1  0.58597430  0.42262909  0.68509975  1
  Se  Se233  1  0.58372063  0.74672247  0.19939631  1
  Se  Se234  1  0.57601382  0.76131274  0.69724768  1
  Se  Se235  1  0.94522313  0.06653013  0.19642032  1
  Se  Se236  1  0.91441308  0.07967895  0.69579206  1
  Se  Se237  1  0.91848467  0.42944823  0.19556756  1
  Se  Se238  1  0.91899567  0.41209756  0.69792393  1
  Se  Se239  1  0.91141547  0.75790948  0.18587797  1
  Se  Se240  1  0.91637237  0.74813320  0.69660654  1
  Se  Se241  1  0.08163604  0.25728970  0.19832932  1
  Se  Se242  1  0.08058599  0.24999435  0.69764352  1
  Se  Se243  1  0.08314583  0.57968418  0.19237686  1
  Se  Se244  1  0.08225837  0.57703699  0.69818950  1
  Se  Se245  1  0.08660872  0.91990152  0.19662927  1
  Se  Se246  1  0.07845342  0.91705802  0.69700733  1
  Se  Se247  1  0.41461901  0.25277594  0.19518819  1
  Se  Se248  1  0.42440147  0.24853853  0.70673236  1
  Se  Se249  1  0.42125541  0.57343537  0.18561636  1
  Se  Se250  1  0.41655548  0.57917562  0.69390541  1
  Se  Se251  1  0.41719214  0.91477538  0.19829897  1
  Se  Se252  1  0.41647825  0.91676641  0.68678425  1
  Se  Se253  1  0.77813088  0.22681563  0.19635276  1
  Se  Se254  1  0.75992373  0.24227648  0.68828809  1
  Se  Se255  1  0.74616137  0.59193860  0.20280422  1
  Se  Se256  1  0.75089349  0.58424092  0.69685361  1
  Se  Se257  1  0.74951470  0.91541259  0.20159569  1
  Se  Se258  1  0.74922793  0.91849730  0.69730029  1
