# generated using pymatgen
data_In86Cu29Se144
_symmetry_space_group_name_H-M   'P 1'
_cell_length_a   17.57873935
_cell_length_b   17.58274600
_cell_length_c   23.43978555
_cell_angle_alpha   89.95328189
_cell_angle_beta   90.00788035
_cell_angle_gamma   89.99235895
_symmetry_Int_Tables_number   1
_chemical_formula_structural   In86Cu29Se144
_chemical_formula_sum   'In86 Cu29 Se144'
_cell_volume   7244.82518426
_cell_formula_units_Z   1
loop_
 _symmetry_equiv_pos_site_id
 _symmetry_equiv_pos_as_xyz
  1  'x, y, z'
loop_
 _atom_site_type_symbol
 _atom_site_label
 _atom_site_symmetry_multiplicity
 _atom_site_fract_x
 _atom_site_fract_y
 _atom_site_fract_z
 _atom_site_occupancy
  In  In0  1  0.00327217  0.16949698  0.13165070  1
  In  In1  1  -0.00622926  0.16409707  0.61563692  1
  In  In2  1  -0.00090409  0.49910679  0.13784970  1
  In  In3  1  0.01084919  0.49980258  0.61692707  1
  In  In4  1  -0.00371240  0.82721864  0.11555740  1
  In  In5  1  0.00867230  0.82442890  0.62850968  1
  In  In6  1  0.33507608  0.16910576  0.13884087  1
  In  In7  1  0.32322953  0.15786318  0.61527339  1
  In  In8  1  0.33640791  0.50090948  0.13972909  1
  In  In9  1  0.32982237  0.49832966  0.61449096  1
  In  In10  1  0.32875058  0.83331766  0.12059576  1
  In  In11  1  0.33988250  0.84082878  0.61802840  1
  In  In12  1  0.66739192  0.17010984  0.13157539  1
  In  In13  1  0.66566805  0.16662405  0.62279724  1
  In  In14  1  0.65989976  0.50673067  0.13527879  1
  In  In15  1  0.65244858  0.50762416  0.63522969  1
  In  In16  1  0.65700720  0.82502124  0.11255437  1
  In  In17  1  0.66087423  0.83903431  0.63203285  1
  In  In18  1  0.16604743  0.00325467  0.38633672  1
  In  In19  1  0.15436997  -0.01030793  0.85985287  1
  In  In20  1  0.17200384  0.33004720  0.37531948  1
  In  In21  1  0.16699852  0.32866725  0.87815831  1
  In  In22  1  0.16733010  0.66263458  0.37859881  1
  In  In23  1  0.17270307  0.67939154  0.87141715  1
  In  In24  1  0.50335295  -0.00334006  0.38329428  1
  In  In25  1  0.49228903  -0.00844471  0.86348197  1
  In  In26  1  0.50171891  0.33249377  0.37625000  1
  In  In27  1  0.49990242  0.32363115  0.87082779  1
  In  In28  1  0.49592089  0.66927788  0.37544137  1
  In  In29  1  0.51615694  0.67023701  0.86965338  1
  In  In30  1  0.84246031  0.00660200  0.38022555  1
  In  In31  1  0.82353300  -0.01127017  0.86518362  1
  In  In32  1  0.82388684  0.32776645  0.37353535  1
  In  In33  1  0.82807070  0.34437915  0.87607875  1
  In  In34  1  0.83630341  0.66510660  0.36810609  1
  In  In35  1  0.84146552  0.67012082  0.86681592  1
  In  In36  1  -0.00189900  0.17741157  0.38820909  1
  In  In37  1  0.01411648  0.16275106  0.87257733  1
  In  In38  1  0.01287260  0.50776215  0.37396616  1
  In  In39  1  -0.00957725  0.49917992  0.87265745  1
  In  In40  1  0.01195815  0.82771511  0.37969935  1
  In  In41  1  0.00038056  0.82874259  0.87137819  1
  In  In42  1  0.32785488  0.17667598  0.38050707  1
  In  In43  1  0.34642802  0.16180608  0.87185667  1
  In  In44  1  0.33561452  0.50421339  0.37748890  1
  In  In45  1  0.33318958  0.48886497  0.87432025  1
  In  In46  1  0.34522987  0.81891576  0.37919790  1
  In  In47  1  0.32401941  0.84111122  0.87919872  1
  In  In48  1  0.64971925  0.18471318  0.39282099  1
  In  In49  1  0.66935451  0.16654059  0.86377329  1
  In  In50  1  0.65876470  0.49231250  0.37309068  1
  In  In51  1  0.66844639  0.50804656  0.85644308  1
  In  In52  1  0.66017665  0.81949769  0.36972906  1
  In  In53  1  0.66785253  0.83174188  0.87289236  1
  In  In54  1  0.17473277  -0.00763029  0.12415532  1
  In  In55  1  0.16661109  -0.00502996  0.62427798  1
  In  In56  1  0.15828896  0.33868055  0.14664911  1
  In  In57  1  0.15244152  0.33394391  0.59963808  1
  In  In58  1  0.16155499  0.67503142  0.13262899  1
  In  In59  1  0.15159740  0.66249306  0.61061637  1
  In  In60  1  0.50553247  -0.00164566  0.12431454  1
  In  In61  1  0.49964501  -0.00170705  0.62394390  1
  In  In62  1  0.49458399  0.33356272  0.14585384  1
  In  In63  1  0.50820282  0.34271069  0.61465182  1
  In  In64  1  0.48894585  0.68709793  0.14254304  1
  In  In65  1  0.49979315  0.66797953  0.61941243  1
  In  In66  1  0.84303353  -0.00901649  0.11982643  1
  In  In67  1  0.82501779  0.00718959  0.63227013  1
  In  In68  1  0.83295341  0.33390730  0.13661612  1
  In  In69  1  0.83249031  0.31680039  0.61584751  1
  In  In70  1  0.82746779  0.67198177  0.12924028  1
  In  In71  1  0.83013936  0.66614056  0.63182811  1
  In  In72  1  0.16058231  0.50891786  0.02019401  1
  In  In73  1  0.83728026  0.49820739  0.49899656  1
  In  In74  1  0.33131575  0.00312532  0.25636535  1
  In  In75  1  0.33319589  0.66967242  0.73900871  1
  In  In76  1  0.83389669  0.15916629  0.00583388  1
  In  In77  1  0.50014857  0.16285999  0.00577403  1
  In  In78  1  0.16719789  0.16056719  0.00414199  1
  In  In79  1  0.33950128  0.33246046  0.74191462  1
  In  In80  1  0.66492781  0.00250489  0.25033616  1
  In  In81  1  -0.00475050  0.33094684  0.74288330  1
  In  In82  1  0.83528523  0.50472038  -0.00271604  1
  In  In83  1  0.00050023  0.00139756  0.25808636  1
  In  In84  1  0.83211427  0.83719347  0.49712494  1
  In  In85  1  0.50426788  0.50750515  -0.00273114  1
  Cu  Cu86  1  0.82919157  0.49956497  0.74768174  1
  Cu  Cu87  1  0.66653081  0.33383342  0.49933696  1
  Cu  Cu88  1  0.83475013  0.82571837  0.24370237  1
  Cu  Cu89  1  0.82618098  0.17159687  0.25700321  1
  Cu  Cu90  1  0.00541094  0.66981584  -0.00239491  1
  Cu  Cu91  1  0.16745619  0.82758926  0.25325450  1
  Cu  Cu92  1  0.00006898  -0.01119433  -0.00915595  1
  Cu  Cu93  1  0.83577533  0.83266380  0.75031041  1
  Cu  Cu94  1  -0.00075531  0.00376752  0.50495834  1
  Cu  Cu95  1  0.34201230  0.67691681  0.00171777  1
  Cu  Cu96  1  0.32788703  -0.00696814  -0.00565263  1
  Cu  Cu97  1  0.50084217  0.83157135  0.74642573  1
  Cu  Cu98  1  0.83500504  0.16506963  0.74443171  1
  Cu  Cu99  1  0.66666323  0.33986956  0.00113795  1
  Cu  Cu100  1  0.16407046  0.83424945  0.74772856  1
  Cu  Cu101  1  0.50459160  0.16258812  0.74348120  1
  Cu  Cu102  1  0.16612437  0.50218820  0.74017693  1
  Cu  Cu103  1  0.83715602  0.49788790  0.25640159  1
  Cu  Cu104  1  0.66694111  -0.00005027  0.50788621  1
  Cu  Cu105  1  0.66765407  0.67514391  -0.00009474  1
  Cu  Cu106  1  0.65922722  0.66719931  0.49942581  1
  Cu  Cu107  1  0.66271268  -0.00856746  -0.00860905  1
  Cu  Cu108  1  0.33604887  -0.00296213  0.50023127  1
  Cu  Cu109  1  0.17061607  0.16054402  0.74215106  1
  Cu  Cu110  1  0.32875013  0.33896682  0.01282515  1
  Cu  Cu111  1  0.33754462  0.33477037  0.49399484  1
  Cu  Cu112  1  0.50452755  0.50415989  0.25974478  1
  Cu  Cu113  1  0.33022008  0.66824507  0.49812266  1
  Cu  Cu114  1  0.17350184  0.50134597  0.25909441  1
  Se  Se115  1  0.06971752  0.06888207  0.05921304  1
  Se  Se116  1  0.08902432  0.08414552  0.55515220  1
  Se  Se117  1  0.07307441  0.40544411  0.06540596  1
  Se  Se118  1  0.08535126  0.43383660  0.53692359  1
  Se  Se119  1  0.09100832  0.74959708  0.05211783  1
  Se  Se120  1  0.08334685  0.76184477  0.54699788  1
  Se  Se121  1  0.39957951  0.07555507  0.05988173  1
  Se  Se122  1  0.41945129  0.08135709  0.55299624  1
  Se  Se123  1  0.41865196  0.41651360  0.06414242  1
  Se  Se124  1  0.41838270  0.41975669  0.54821748  1
  Se  Se125  1  0.42538231  0.75627425  0.05678992  1
  Se  Se126  1  0.41631674  0.74988843  0.55165065  1
  Se  Se127  1  0.73429099  0.06993135  0.05977470  1
  Se  Se128  1  0.75391639  0.08511739  0.55457875  1
  Se  Se129  1  0.74565529  0.41761753  0.06209866  1
  Se  Se130  1  0.74212613  0.41706659  0.56188301  1
  Se  Se131  1  0.75859197  0.75243785  0.05140871  1
  Se  Se132  1  0.74274127  0.74613630  0.55810105  1
  Se  Se133  1  0.24918414  0.25513476  0.06811848  1
  Se  Se134  1  0.25262416  0.25181908  0.54731075  1
  Se  Se135  1  0.26716650  0.59488014  0.06453896  1
  Se  Se136  1  0.24638790  0.58293568  0.54937845  1
  Se  Se137  1  0.24418168  0.91173937  0.04878203  1
  Se  Se138  1  0.24789170  0.91544896  0.55138129  1
  Se  Se139  1  0.58532822  0.26285131  0.06226556  1
  Se  Se140  1  0.58337450  0.24681787  0.55121034  1
  Se  Se141  1  0.58768664  0.59632724  0.06122720  1
  Se  Se142  1  0.58201911  0.57918910  0.55354593  1
  Se  Se143  1  0.57628824  0.91707423  0.04941336  1
  Se  Se144  1  0.58293549  0.91209501  0.55549057  1
  Se  Se145  1  0.91918811  0.25579121  0.06144156  1
  Se  Se146  1  0.93879537  0.26951951  0.55069233  1
  Se  Se147  1  0.92763054  0.58872089  0.05954593  1
  Se  Se148  1  0.91952922  0.59551729  0.55788473  1
  Se  Se149  1  0.91404119  0.90962451  0.04564521  1
  Se  Se150  1  0.91741897  0.92228144  0.56372045  1
  Se  Se151  1  0.10013749  0.24391296  0.44894751  1
  Se  Se152  1  0.07508394  0.25709331  0.94898225  1
  Se  Se153  1  0.08356465  0.58568127  0.45065763  1
  Se  Se154  1  0.08286225  0.58433852  0.93920578  1
  Se  Se155  1  0.07881594  0.91891666  0.45026343  1
  Se  Se156  1  0.08885358  0.91078953  0.93926200  1
  Se  Se157  1  0.42325868  0.24734906  0.44781219  1
  Se  Se158  1  0.40593535  0.25974756  0.94884101  1
  Se  Se159  1  0.41876377  0.58587867  0.44788479  1
  Se  Se160  1  0.40853083  0.59220000  0.93639334  1
  Se  Se161  1  0.41808391  0.91161831  0.44761665  1
  Se  Se162  1  0.41999847  0.91752122  0.94290415  1
  Se  Se163  1  0.75611218  0.24927988  0.45373202  1
  Se  Se164  1  0.74294756  0.25254495  0.94427619  1
  Se  Se165  1  0.74374987  0.58984682  0.44097655  1
  Se  Se166  1  0.74064298  0.58989645  0.93770890  1
  Se  Se167  1  0.73783627  0.92376340  0.43701827  1
  Se  Se168  1  0.75349117  0.91202287  0.94358491  1
  Se  Se169  1  0.25460105  0.08483131  0.44977484  1
  Se  Se170  1  0.25178383  0.07751972  0.93434093  1
  Se  Se171  1  0.25171250  0.41906438  0.44403877  1
  Se  Se172  1  0.24788352  0.41606631  0.95187512  1
  Se  Se173  1  0.24714458  0.75318629  0.44590886  1
  Se  Se174  1  0.25007946  0.75041314  0.94821341  1
  Se  Se175  1  0.58171313  0.08129762  0.45322425  1
  Se  Se176  1  0.58620756  0.08090679  0.93651824  1
  Se  Se177  1  0.58135980  0.41772641  0.44851599  1
  Se  Se178  1  0.59035599  0.41437565  0.93556256  1
  Se  Se179  1  0.57860124  0.75362244  0.44693338  1
  Se  Se180  1  0.58170208  0.75432744  0.94523185  1
  Se  Se181  1  0.91476125  0.08787789  0.45353065  1
  Se  Se182  1  0.92100846  0.07692335  0.93649323  1
  Se  Se183  1  0.92129347  0.41299502  0.43415505  1
  Se  Se184  1  0.92828870  0.40478598  0.94743035  1
  Se  Se185  1  0.92057207  0.74084784  0.44382530  1
  Se  Se186  1  0.91797534  0.74624707  0.94231836  1
  Se  Se187  1  0.25864531  0.25435034  0.30369111  1
  Se  Se188  1  0.24584906  0.24261469  0.80540831  1
  Se  Se189  1  0.25592937  0.58994307  0.30711269  1
  Se  Se190  1  0.24718576  0.57411388  0.80511633  1
  Se  Se191  1  0.24213750  0.91016716  0.31466635  1
  Se  Se192  1  0.25364752  0.91502165  0.79891229  1
  Se  Se193  1  0.59079233  0.25375012  0.30848604  1
  Se  Se194  1  0.58224726  0.24916644  0.79894718  1
  Se  Se195  1  0.58874852  0.59049256  0.30865000  1
  Se  Se196  1  0.57524844  0.58320646  0.79473406  1
  Se  Se197  1  0.57310022  0.90972621  0.30465951  1
  Se  Se198  1  0.58606043  0.91382154  0.80129592  1
  Se  Se199  1  0.91667944  0.24630502  0.31008505  1
  Se  Se200  1  0.90974001  0.24387323  0.81169017  1
  Se  Se201  1  0.92362548  0.58361529  0.30333019  1
  Se  Se202  1  0.91878228  0.57976520  0.79892602  1
  Se  Se203  1  0.90756524  0.90445375  0.31071762  1
  Se  Se204  1  0.92129318  0.91597890  0.80248857  1
  Se  Se205  1  0.08796505  0.09160778  0.31554319  1
  Se  Se206  1  0.07998663  0.08390584  0.79448240  1
  Se  Se207  1  0.08728247  0.41572168  0.30695429  1
  Se  Se208  1  0.09107350  0.41944644  0.80544893  1
  Se  Se209  1  0.08299575  0.74497654  0.30595472  1
  Se  Se210  1  0.08364577  0.74621181  0.80007262  1
  Se  Se211  1  0.42330293  0.08828566  0.31582075  1
  Se  Se212  1  0.41621174  0.08265568  0.79605645  1
  Se  Se213  1  0.41915889  0.41969300  0.30949213  1
  Se  Se214  1  0.42781502  0.42419441  0.80312908  1
  Se  Se215  1  0.41889325  0.74959646  0.30114211  1
  Se  Se216  1  0.41664953  0.75533252  0.80797723  1
  Se  Se217  1  0.74946053  0.08910769  0.31664568  1
  Se  Se218  1  0.75049714  0.08132494  0.79800601  1
  Se  Se219  1  0.74799047  0.41602495  0.30499011  1
  Se  Se220  1  0.74884590  0.41032792  0.79848066  1
  Se  Se221  1  0.75136658  0.74782052  0.30132089  1
  Se  Se222  1  0.75004798  0.74887902  0.80306580  1
  Se  Se223  1  0.23254037  0.08867032  0.19739711  1
  Se  Se224  1  0.25521571  0.07645434  0.69275741  1
  Se  Se225  1  0.25574762  0.41529861  0.20627779  1
  Se  Se226  1  0.23853379  0.41346960  0.68296286  1
  Se  Se227  1  0.25482235  0.75291315  0.19627442  1
  Se  Se228  1  0.23912647  0.75574382  0.68198870  1
  Se  Se229  1  0.56791255  0.09585761  0.19598590  1
  Se  Se230  1  0.58848670  0.07790073  0.69197624  1
  Se  Se231  1  0.58546378  0.41862494  0.20432485  1
  Se  Se232  1  0.58771940  0.40252740  0.69538430  1
  Se  Se233  1  0.60292634  0.74602706  0.19516155  1
  Se  Se234  1  0.58039584  0.74484704  0.69374797  1
  Se  Se235  1  0.90238365  0.08729912  0.19592149  1
  Se  Se236  1  0.92280679  0.08558376  0.69327408  1
  Se  Se237  1  0.91964831  0.41171707  0.20443639  1
  Se  Se238  1  0.90832490  0.42335175  0.68306891  1
  Se  Se239  1  0.92471831  0.74793353  0.19228673  1
  Se  Se240  1  0.91751353  0.74909161  0.69618070  1
  Se  Se241  1  0.07725501  0.24554084  0.20506783  1
  Se  Se242  1  0.09389236  0.24874911  0.68542546  1
  Se  Se243  1  0.09077414  0.58053848  0.19927961  1
  Se  Se244  1  0.08089072  0.58575579  0.69091066  1
  Se  Se245  1  0.08598953  0.90978096  0.19362635  1
  Se  Se246  1  0.07981242  0.91891839  0.69597642  1
  Se  Se247  1  0.40717839  0.25331841  0.20905836  1
  Se  Se248  1  0.42338837  0.24042118  0.68130779  1
  Se  Se249  1  0.42038401  0.58580801  0.20425720  1
  Se  Se250  1  0.42021527  0.57100719  0.68780627  1
  Se  Se251  1  0.41857393  0.91543699  0.19169683  1
  Se  Se252  1  0.41639542  0.91547546  0.69470388  1
  Se  Se253  1  0.74367110  0.25344620  0.20159535  1
  Se  Se254  1  0.75149509  0.24877988  0.69273490  1
  Se  Se255  1  0.75647535  0.58046547  0.19796758  1
  Se  Se256  1  0.74439048  0.58682178  0.69947635  1
  Se  Se257  1  0.75465955  0.91174787  0.18850051  1
  Se  Se258  1  0.74985463  0.91612047  0.69902825  1
