# generated using pymatgen
data_In86Cu29Se144
_symmetry_space_group_name_H-M   'P 1'
_cell_length_a   17.58571694
_cell_length_b   17.58303328
_cell_length_c   23.44999765
_cell_angle_alpha   89.98347483
_cell_angle_beta   89.95392473
_cell_angle_gamma   89.97850829
_symmetry_Int_Tables_number   1
_chemical_formula_structural   In86Cu29Se144
_chemical_formula_sum   'In86 Cu29 Se144'
_cell_volume   7250.97639173
_cell_formula_units_Z   1
loop_
 _symmetry_equiv_pos_site_id
 _symmetry_equiv_pos_as_xyz
  1  'x, y, z'
loop_
 _atom_site_type_symbol
 _atom_site_label
 _atom_site_symmetry_multiplicity
 _atom_site_fract_x
 _atom_site_fract_y
 _atom_site_fract_z
 _atom_site_occupancy
  In  In0  1  0.00137775  0.16795688  0.12518931  1
  In  In1  1  -0.01250258  0.16158173  0.62269690  1
  In  In2  1  -0.00217178  0.48331218  0.12783553  1
  In  In3  1  0.00919992  0.51061529  0.61453201  1
  In  In4  1  0.01978449  0.83706182  0.12865695  1
  In  In5  1  0.00209419  0.83774592  0.62624940  1
  In  In6  1  0.32339396  0.15487199  0.11609098  1
  In  In7  1  0.34110524  0.14978209  0.63413004  1
  In  In8  1  0.33091776  0.51879250  0.12763294  1
  In  In9  1  0.32640089  0.49447647  0.61819530  1
  In  In10  1  0.33291304  0.83687124  0.12924238  1
  In  In11  1  0.34241916  0.85467879  0.61082083  1
  In  In12  1  0.66519078  0.17416732  0.10719880  1
  In  In13  1  0.65266092  0.15130745  0.61967639  1
  In  In14  1  0.66057938  0.49837321  0.12568516  1
  In  In15  1  0.66475090  0.49920007  0.61710374  1
  In  In16  1  0.66361533  0.84524515  0.12168684  1
  In  In17  1  0.66872087  0.83974144  0.62504669  1
  In  In18  1  0.16396556  -0.00183081  0.37592306  1
  In  In19  1  0.17176264  0.00567519  0.86468905  1
  In  In20  1  0.16996309  0.33848999  0.37105701  1
  In  In21  1  0.17565030  0.32111118  0.88370495  1
  In  In22  1  0.17910104  0.65819897  0.38171314  1
  In  In23  1  0.15649246  0.67391308  0.87328091  1
  In  In24  1  0.49002596  0.00402250  0.39023075  1
  In  In25  1  0.50004607  0.00049105  0.87232021  1
  In  In26  1  0.49841292  0.33126316  0.38150091  1
  In  In27  1  0.48804231  0.33506527  0.87638871  1
  In  In28  1  0.49017354  0.67170350  0.37988082  1
  In  In29  1  0.50575206  0.68161769  0.87635123  1
  In  In30  1  0.84168319  -0.00535975  0.38678681  1
  In  In31  1  0.84300753  0.00707241  0.87000383  1
  In  In32  1  0.84230289  0.32116256  0.38197479  1
  In  In33  1  0.82203528  0.32130265  0.87803830  1
  In  In34  1  0.83018825  0.66963158  0.38624436  1
  In  In35  1  0.83910110  0.66004277  0.86750073  1
  In  In36  1  -0.00180114  0.15248647  0.36857350  1
  In  In37  1  0.00286402  0.16088778  0.88307263  1
  In  In38  1  0.01025428  0.48979022  0.37997165  1
  In  In39  1  0.00319840  0.51160625  0.87023414  1
  In  In40  1  -0.00168097  0.84184888  0.38375954  1
  In  In41  1  0.01527455  0.83649118  0.85633127  1
  In  In42  1  0.33732457  0.16442283  0.37317409  1
  In  In43  1  0.33257415  0.16496992  0.87509091  1
  In  In44  1  0.32660587  0.50232241  0.37802514  1
  In  In45  1  0.33499720  0.48441030  0.87251191  1
  In  In46  1  0.33560637  0.83327803  0.38061216  1
  In  In47  1  0.33834622  0.86356571  0.85901009  1
  In  In48  1  0.66690561  0.16339059  0.38236790  1
  In  In49  1  0.67662334  0.15994056  0.88522667  1
  In  In50  1  0.65974372  0.50619908  0.38453655  1
  In  In51  1  0.66966637  0.50513313  0.87417759  1
  In  In52  1  0.66276211  0.83932003  0.38596096  1
  In  In53  1  0.64085600  0.83967439  0.87589546  1
  In  In54  1  0.15819497  0.02054054  0.14425214  1
  In  In55  1  0.18104868  -0.01900937  0.64083053  1
  In  In56  1  0.15585751  0.32215059  0.11757969  1
  In  In57  1  0.17042270  0.34491951  0.62171498  1
  In  In58  1  0.18195195  0.67526177  0.12080666  1
  In  In59  1  0.16262652  0.66292614  0.61970494  1
  In  In60  1  0.49037243  -0.00290756  0.11815063  1
  In  In61  1  0.49571813  -0.00108533  0.62829271  1
  In  In62  1  0.50777036  0.32695950  0.12284592  1
  In  In63  1  0.48777604  0.31919600  0.61920801  1
  In  In64  1  0.48050881  0.66544970  0.12446563  1
  In  In65  1  0.50396453  0.67632914  0.61731793  1
  In  In66  1  0.83212067  0.01438219  0.12503340  1
  In  In67  1  0.83442383  -0.00148746  0.62639054  1
  In  In68  1  0.84699270  0.33290171  0.12651788  1
  In  In69  1  0.82722010  0.32722809  0.61574437  1
  In  In70  1  0.83551868  0.66681850  0.12936746  1
  In  In71  1  0.84450186  0.67925393  0.61617583  1
  In  In72  1  0.32931617  0.67298433  0.74441440  1
  In  In73  1  0.16855806  0.16134435  0.49783742  1
  In  In74  1  0.66342052  0.32986498  0.75603058  1
  In  In75  1  0.32674452  0.32850695  0.25159012  1
  In  In76  1  0.67044554  0.67495225  0.74471239  1
  In  In77  1  0.17634709  0.84049805  -0.00899549  1
  In  In78  1  0.65979072  0.67113839  0.25949326  1
  In  In79  1  0.00898529  0.66438115  0.25911657  1
  In  In80  1  0.00493563  0.33085476  0.74698997  1
  In  In81  1  0.66738707  0.33585994  0.24273125  1
  In  In82  1  0.83171190  0.83100201  -0.00121949  1
  In  In83  1  0.66400465  0.00279127  0.25278281  1
  In  In84  1  0.49874708  0.49626287  0.00163863  1
  In  In85  1  0.83395612  0.49369386  -0.00486972  1
  Cu  Cu86  1  0.16630145  0.49993112  0.25113356  1
  Cu  Cu87  1  0.33331331  0.00075921  -0.00321403  1
  Cu  Cu88  1  0.00267406  0.32845453  0.00264560  1
  Cu  Cu89  1  0.66574739  0.66334836  0.50341322  1
  Cu  Cu90  1  0.33445010  0.33087062  0.49785312  1
  Cu  Cu91  1  0.00124903  -0.00042292  0.50337471  1
  Cu  Cu92  1  0.49645550  0.49813150  0.74613353  1
  Cu  Cu93  1  0.49423808  0.15984642  0.74970298  1
  Cu  Cu94  1  0.33499429  0.66987294  -0.00048368  1
  Cu  Cu95  1  0.49986584  0.16116639  0.25039543  1
  Cu  Cu96  1  0.82802159  0.16003810  0.74903487  1
  Cu  Cu97  1  0.66691701  0.33465146  0.49922500  1
  Cu  Cu98  1  0.84573966  0.84188125  0.25832058  1
  Cu  Cu99  1  0.83410047  0.83630969  0.74453129  1
  Cu  Cu100  1  0.65917061  -0.00252403  -0.00243180  1
  Cu  Cu101  1  0.17663961  0.83990419  0.25444951  1
  Cu  Cu102  1  0.49041720  0.83128728  0.25197928  1
  Cu  Cu103  1  -0.00267886  0.66972875  0.49854199  1
  Cu  Cu104  1  0.17054790  0.49798891  0.74360205  1
  Cu  Cu105  1  0.16978975  0.16844007  0.75465530  1
  Cu  Cu106  1  0.33033276  0.66708270  0.50254556  1
  Cu  Cu107  1  0.66732264  0.00295279  0.50660358  1
  Cu  Cu108  1  -0.00188394  0.00617713  0.00325338  1
  Cu  Cu109  1  0.00090376  0.66198382  -0.00783357  1
  Cu  Cu110  1  0.32847262  0.33074611  -0.00052260  1
  Cu  Cu111  1  -0.00066198  0.33463234  0.50067331  1
  Cu  Cu112  1  0.83109802  0.49388299  0.25688438  1
  Cu  Cu113  1  0.84534709  0.16670399  0.25097822  1
  Cu  Cu114  1  0.84479131  0.50292666  0.74266383  1
  Se  Se115  1  0.08664281  0.08147806  0.05848158  1
  Se  Se116  1  0.08371523  0.07586130  0.56463850  1
  Se  Se117  1  0.08236608  0.41936399  0.05160711  1
  Se  Se118  1  0.08669349  0.41803345  0.54934696  1
  Se  Se119  1  0.08060788  0.74591735  0.05060068  1
  Se  Se120  1  0.07881865  0.75039033  0.55530695  1
  Se  Se121  1  0.41841800  0.08636299  0.04773672  1
  Se  Se122  1  0.42469407  0.08976518  0.55735563  1
  Se  Se123  1  0.40482975  0.41125507  0.06336123  1
  Se  Se124  1  0.41698255  0.41499739  0.55267897  1
  Se  Se125  1  0.41178735  0.75652607  0.05455362  1
  Se  Se126  1  0.41570355  0.75330384  0.55034525  1
  Se  Se127  1  0.74738221  0.07804867  0.04932610  1
  Se  Se128  1  0.75534444  0.08598548  0.55636702  1
  Se  Se129  1  0.74503361  0.40953528  0.06092605  1
  Se  Se130  1  0.75139489  0.41894880  0.55040528  1
  Se  Se131  1  0.74361421  0.74129403  0.06165735  1
  Se  Se132  1  0.74520428  0.75188833  0.55538241  1
  Se  Se133  1  0.24528736  0.24515655  0.05086907  1
  Se  Se134  1  0.25683045  0.25053685  0.56078583  1
  Se  Se135  1  0.24969198  0.58543087  0.04900292  1
  Se  Se136  1  0.24560037  0.57985382  0.55106386  1
  Se  Se137  1  0.24971035  0.92910813  0.06174056  1
  Se  Se138  1  0.23708164  0.92028198  0.55077138  1
  Se  Se139  1  0.57758612  0.25501080  0.04428306  1
  Se  Se140  1  0.58544733  0.25041107  0.55429381  1
  Se  Se141  1  0.58579320  0.59264376  0.05957647  1
  Se  Se142  1  0.57728760  0.58097445  0.55244172  1
  Se  Se143  1  0.57649503  0.91425397  0.05058343  1
  Se  Se144  1  0.58209955  0.91872242  0.55727817  1
  Se  Se145  1  0.91565479  0.24688061  0.05355262  1
  Se  Se146  1  0.91670130  0.24776995  0.55042617  1
  Se  Se147  1  0.92255491  0.58772616  0.05759168  1
  Se  Se148  1  0.91337380  0.58238982  0.54945921  1
  Se  Se149  1  0.92490943  0.91754802  0.06176843  1
  Se  Se150  1  0.91503774  0.91589463  0.55531844  1
  Se  Se151  1  0.07900430  0.25368478  0.43894615  1
  Se  Se152  1  0.08621824  0.24403798  0.94987251  1
  Se  Se153  1  0.08119183  0.58558368  0.44514829  1
  Se  Se154  1  0.08964374  0.58011592  0.94407529  1
  Se  Se155  1  0.08787967  0.91833007  0.45111703  1
  Se  Se156  1  0.07326310  0.92512140  0.93913092  1
  Se  Se157  1  0.41587304  0.24443710  0.44581758  1
  Se  Se158  1  0.41314296  0.24933932  0.94632099  1
  Se  Se159  1  0.41196862  0.58198683  0.44711435  1
  Se  Se160  1  0.41295440  0.58810910  0.93701291  1
  Se  Se161  1  0.43211470  0.89696708  0.45031365  1
  Se  Se162  1  0.41565740  0.91648421  0.94319045  1
  Se  Se163  1  0.75009781  0.24728683  0.44856774  1
  Se  Se164  1  0.74527850  0.25329720  0.95400255  1
  Se  Se165  1  0.75101489  0.58056406  0.45118129  1
  Se  Se166  1  0.74590239  0.59575857  0.94411515  1
  Se  Se167  1  0.75020166  0.91824813  0.45225809  1
  Se  Se168  1  0.74569335  0.92144102  0.93742761  1
  Se  Se169  1  0.26363911  0.07168619  0.44436229  1
  Se  Se170  1  0.24643066  0.08032204  0.94210453  1
  Se  Se171  1  0.24792991  0.41330000  0.44606062  1
  Se  Se172  1  0.24893405  0.41927268  0.94767926  1
  Se  Se173  1  0.24770797  0.75216389  0.44933606  1
  Se  Se174  1  0.26414284  0.74876090  0.93171289  1
  Se  Se175  1  0.58320472  0.08506463  0.45130874  1
  Se  Se176  1  0.57796589  0.08302029  0.94484014  1
  Se  Se177  1  0.57916763  0.41638872  0.44881478  1
  Se  Se178  1  0.59226350  0.41148635  0.93936393  1
  Se  Se179  1  0.58407947  0.74488588  0.44663333  1
  Se  Se180  1  0.59203083  0.74393609  0.95009425  1
  Se  Se181  1  0.92094332  0.08763685  0.45015771  1
  Se  Se182  1  0.91073933  0.08521886  0.94987507  1
  Se  Se183  1  0.91561400  0.41784698  0.44646467  1
  Se  Se184  1  0.92754188  0.40591968  0.93478563  1
  Se  Se185  1  0.91351782  0.75681642  0.44935620  1
  Se  Se186  1  0.92623763  0.74887939  0.93461068  1
  Se  Se187  1  0.23649251  0.23385086  0.30575446  1
  Se  Se188  1  0.25367402  0.25336848  0.80505620  1
  Se  Se189  1  0.25046385  0.58255621  0.30271613  1
  Se  Se190  1  0.24793700  0.57729833  0.80800022  1
  Se  Se191  1  0.25752176  0.92033102  0.31075187  1
  Se  Se192  1  0.21456939  0.88919479  0.80511980  1
  Se  Se193  1  0.58136284  0.24359965  0.30694181  1
  Se  Se194  1  0.57373776  0.23840613  0.81351316  1
  Se  Se195  1  0.57036195  0.57473821  0.30982152  1
  Se  Se196  1  0.57621993  0.57955000  0.80449722  1
  Se  Se197  1  0.57475123  0.91088667  0.31042777  1
  Se  Se198  1  0.58513362  0.92564360  0.79976213  1
  Se  Se199  1  0.92333209  0.25202386  0.30561228  1
  Se  Se200  1  0.90950272  0.24424521  0.80632980  1
  Se  Se201  1  0.90923429  0.57906238  0.31386044  1
  Se  Se202  1  0.92488986  0.58783629  0.79537199  1
  Se  Se203  1  0.92541447  0.92686811  0.30978584  1
  Se  Se204  1  0.91712240  0.91801366  0.80108946  1
  Se  Se205  1  0.09002604  0.08111935  0.30307228  1
  Se  Se206  1  0.07822207  0.08969536  0.80451133  1
  Se  Se207  1  0.08269313  0.41515511  0.30104577  1
  Se  Se208  1  0.09346259  0.41879215  0.80911946  1
  Se  Se209  1  0.09506689  0.75942624  0.31531274  1
  Se  Se210  1  0.08373268  0.73864931  0.79276880  1
  Se  Se211  1  0.42320003  0.07879315  0.30796837  1
  Se  Se212  1  0.40919530  0.07853162  0.80462402  1
  Se  Se213  1  0.41825921  0.41687626  0.31009796  1
  Se  Se214  1  0.41652009  0.41167826  0.79817717  1
  Se  Se215  1  0.40996295  0.74705685  0.30575975  1
  Se  Se216  1  0.42349512  0.76035445  0.80366673  1
  Se  Se217  1  0.76051754  0.08889042  0.31046039  1
  Se  Se218  1  0.74513510  0.08188754  0.80653664  1
  Se  Se219  1  0.74850464  0.41687418  0.31570839  1
  Se  Se220  1  0.76398022  0.42633592  0.80498120  1
  Se  Se221  1  0.75826832  0.76292654  0.31157508  1
  Se  Se222  1  0.75542251  0.76140251  0.81186624  1
  Se  Se223  1  0.26966487  0.07833244  0.19994955  1
  Se  Se224  1  0.25175811  0.07912719  0.70482243  1
  Se  Se225  1  0.24300929  0.42017018  0.18663618  1
  Se  Se226  1  0.25628971  0.41340829  0.69606186  1
  Se  Se227  1  0.25138410  0.75172541  0.19839944  1
  Se  Se228  1  0.25005177  0.75852287  0.67743807  1
  Se  Se229  1  0.58301119  0.09108590  0.18512872  1
  Se  Se230  1  0.58270482  0.07910966  0.69959104  1
  Se  Se231  1  0.56630317  0.42813602  0.19584059  1
  Se  Se232  1  0.57913211  0.41667482  0.68909091  1
  Se  Se233  1  0.57788330  0.75896184  0.19134748  1
  Se  Se234  1  0.57152240  0.76296782  0.69456437  1
  Se  Se235  1  0.92219704  0.07960019  0.19604050  1
  Se  Se236  1  0.91676977  0.08079654  0.69822892  1
  Se  Se237  1  0.91605929  0.41341219  0.20341104  1
  Se  Se238  1  0.91579347  0.41639536  0.68282972  1
  Se  Se239  1  0.91819954  0.75732192  0.19585247  1
  Se  Se240  1  0.91772436  0.75061683  0.69490670  1
  Se  Se241  1  0.07601130  0.25705060  0.19407793  1
  Se  Se242  1  0.09348213  0.24089654  0.68578788  1
  Se  Se243  1  0.08936055  0.58108025  0.18670503  1
  Se  Se244  1  0.08476922  0.58039843  0.69351159  1
  Se  Se245  1  0.08546079  0.91854954  0.20452895  1
  Se  Se246  1  0.06642017  0.93130961  0.69732913  1
  Se  Se247  1  0.42122135  0.24283603  0.19020715  1
  Se  Se248  1  0.41374659  0.24858897  0.69884469  1
  Se  Se249  1  0.41589825  0.58522359  0.20104108  1
  Se  Se250  1  0.42163810  0.58110726  0.68578175  1
  Se  Se251  1  0.41751894  0.92112622  0.19615411  1
  Se  Se252  1  0.40460180  0.92307769  0.69551241  1
  Se  Se253  1  0.75660052  0.23712225  0.18966532  1
  Se  Se254  1  0.74901369  0.24256835  0.69056838  1
  Se  Se255  1  0.75347494  0.57628062  0.19773391  1
  Se  Se256  1  0.75728771  0.57976380  0.68657997  1
  Se  Se257  1  0.76008095  0.91167783  0.19470635  1
  Se  Se258  1  0.74770728  0.92030234  0.69684985  1
