# generated using pymatgen
data_In86Cu29Se144
_symmetry_space_group_name_H-M   'P 1'
_cell_length_a   17.59244943
_cell_length_b   17.59080434
_cell_length_c   23.44362113
_cell_angle_alpha   90.00695348
_cell_angle_beta   89.99316816
_cell_angle_gamma   89.95714103
_symmetry_Int_Tables_number   1
_chemical_formula_structural   In86Cu29Se144
_chemical_formula_sum   'In86 Cu29 Se144'
_cell_volume   7254.98594952
_cell_formula_units_Z   1
loop_
 _symmetry_equiv_pos_site_id
 _symmetry_equiv_pos_as_xyz
  1  'x, y, z'
loop_
 _atom_site_type_symbol
 _atom_site_label
 _atom_site_symmetry_multiplicity
 _atom_site_fract_x
 _atom_site_fract_y
 _atom_site_fract_z
 _atom_site_occupancy
  In  In0  1  0.01689589  0.17601209  0.10691448  1
  In  In1  1  0.00511383  0.16029870  0.63497119  1
  In  In2  1  -0.00017494  0.50092934  0.11887655  1
  In  In3  1  -0.00653828  0.50074652  0.63410012  1
  In  In4  1  -0.00992308  0.82498125  0.10755898  1
  In  In5  1  0.01432745  0.85125275  0.62019124  1
  In  In6  1  0.33870396  0.17428292  0.11271220  1
  In  In7  1  0.33240425  0.16445917  0.62072894  1
  In  In8  1  0.33220023  0.49531353  0.12437846  1
  In  In9  1  0.33160627  0.49880007  0.62488326  1
  In  In10  1  0.31783499  0.83228663  0.12801903  1
  In  In11  1  0.33018727  0.83345509  0.61864540  1
  In  In12  1  0.65806839  0.15690866  0.12442066  1
  In  In13  1  0.65207352  0.15287529  0.62384295  1
  In  In14  1  0.66449443  0.50215436  0.11258792  1
  In  In15  1  0.68342484  0.49938403  0.63239586  1
  In  In16  1  0.68023563  0.83500403  0.12625455  1
  In  In17  1  0.66705352  0.83542373  0.62873374  1
  In  In18  1  0.16989781  0.00083983  0.38138531  1
  In  In19  1  0.15528683  0.00657381  0.88485997  1
  In  In20  1  0.16531540  0.32862365  0.36457066  1
  In  In21  1  0.16401531  0.34309165  0.88903581  1
  In  In22  1  0.16761842  0.67006759  0.36497058  1
  In  In23  1  0.14693818  0.67882063  0.90471127  1
  In  In24  1  0.49995112  -0.00123841  0.37801521  1
  In  In25  1  0.51196875  0.00735291  0.86913187  1
  In  In26  1  0.48462333  0.32934222  0.36979339  1
  In  In27  1  0.50088270  0.32989680  0.88746918  1
  In  In28  1  0.49866258  0.68019332  0.37012708  1
  In  In29  1  0.49875120  0.65628049  0.87513769  1
  In  In30  1  0.82194036  -0.00259685  0.37301190  1
  In  In31  1  0.83454354  0.00147042  0.88163342  1
  In  In32  1  0.84437011  0.32805158  0.36630892  1
  In  In33  1  0.84476796  0.31531798  0.88407206  1
  In  In34  1  0.84444694  0.67552719  0.36879177  1
  In  In35  1  0.83143434  0.68025870  0.88660613  1
  In  In36  1  0.00927111  0.17922184  0.36768413  1
  In  In37  1  -0.00497604  0.16489869  0.87555082  1
  In  In38  1  0.00251433  0.50549366  0.35940416  1
  In  In39  1  0.01029750  0.49168888  0.89190813  1
  In  In40  1  0.00559534  0.83155654  0.37992852  1
  In  In41  1  -0.00643367  0.84096747  0.89228873  1
  In  In42  1  0.33093446  0.16622343  0.37550504  1
  In  In43  1  0.32909023  0.17525391  0.89046779  1
  In  In44  1  0.32617125  0.49442640  0.35929743  1
  In  In45  1  0.32612605  0.49842998  0.89395615  1
  In  In46  1  0.33055245  0.83360976  0.37265570  1
  In  In47  1  0.32690319  0.82424456  0.87393243  1
  In  In48  1  0.66431133  0.14787522  0.36884063  1
  In  In49  1  0.66771426  0.16172634  0.87894810  1
  In  In50  1  0.66407208  0.50460420  0.37305910  1
  In  In51  1  0.66162723  0.50923375  0.88147652  1
  In  In52  1  0.65170458  0.85305780  0.39532303  1
  In  In53  1  0.68043640  0.84771809  0.86228300  1
  In  In54  1  0.15395207  0.00071718  0.10413924  1
  In  In55  1  0.15600054  -0.00327288  0.62183879  1
  In  In56  1  0.17063711  0.32963272  0.12074521  1
  In  In57  1  0.17162278  0.32346614  0.63055184  1
  In  In58  1  0.16146230  0.66553787  0.12300646  1
  In  In59  1  0.15219979  0.68095758  0.63063668  1
  In  In60  1  0.50516044  0.02195279  0.13085642  1
  In  In61  1  0.51106453  0.00794034  0.61885783  1
  In  In62  1  0.47943681  0.31656347  0.10785894  1
  In  In63  1  0.51252934  0.31563618  0.62574078  1
  In  In64  1  0.49687067  0.65238262  0.12653621  1
  In  In65  1  0.49677361  0.68415036  0.62421562  1
  In  In66  1  0.83186851  -0.00689660  0.11596359  1
  In  In67  1  0.83974603  -0.00573250  0.63092296  1
  In  In68  1  0.84394863  0.34694670  0.11441503  1
  In  In69  1  0.84218238  0.34016827  0.63219540  1
  In  In70  1  0.84778609  0.67580809  0.10835795  1
  In  In71  1  0.81938417  0.67033683  0.63563966  1
  In  In72  1  0.32970333  0.66144079  0.74997008  1
  In  In73  1  0.49719075  0.50354640  0.49723453  1
  In  In74  1  0.83731209  0.15990795  0.50480055  1
  In  In75  1  0.33180273  0.00240871  0.75717874  1
  In  In76  1  0.67041552  0.66902512  0.25191056  1
  In  In77  1  0.66982728  0.33523036  0.24838735  1
  In  In78  1  0.33190530  -0.00054196  0.24719392  1
  In  In79  1  0.33506154  0.33330025  0.75299217  1
  In  In80  1  -0.00630331  0.67402272  0.76771122  1
  In  In81  1  0.83484867  0.50282380  0.50097620  1
  In  In82  1  0.16807441  0.50438835  0.49459207  1
  In  In83  1  0.67541273  0.32335541  0.75526628  1
  In  In84  1  0.50058442  0.83718024  -0.00555148  1
  In  In85  1  -0.00142421  0.00136179  0.23853564  1
  Cu  Cu86  1  0.17271969  0.16529003  0.23977343  1
  Cu  Cu87  1  0.15329379  0.82385748  0.24445107  1
  Cu  Cu88  1  0.84002444  0.17210979  0.24344810  1
  Cu  Cu89  1  0.33547170  0.32138191  0.49952435  1
  Cu  Cu90  1  0.66457703  0.67308204  0.50630412  1
  Cu  Cu91  1  -0.00353930  0.68029129  0.50052872  1
  Cu  Cu92  1  -0.00057661  0.32861216  0.00113131  1
  Cu  Cu93  1  0.50665298  0.83490382  0.74318135  1
  Cu  Cu94  1  0.01074768  0.33297794  0.49667885  1
  Cu  Cu95  1  0.83570945  0.83520514  0.24242873  1
  Cu  Cu96  1  0.33644836  0.00158885  0.00189044  1
  Cu  Cu97  1  0.15699213  0.16797914  0.75603408  1
  Cu  Cu98  1  0.49909766  0.83515632  0.25385174  1
  Cu  Cu99  1  0.66888174  0.33169279  0.00125727  1
  Cu  Cu100  1  0.16240870  0.49633986  0.23925548  1
  Cu  Cu101  1  0.49045513  0.49014856  0.24030337  1
  Cu  Cu102  1  0.83925223  0.50799772  0.23697645  1
  Cu  Cu103  1  0.83840430  0.83544027  0.75395786  1
  Cu  Cu104  1  0.16426383  0.50574840  0.76948040  1
  Cu  Cu105  1  0.83823801  0.49287321  0.75934071  1
  Cu  Cu106  1  0.50792059  0.49751444  0.75830681  1
  Cu  Cu107  1  0.33263226  0.00159085  0.49936619  1
  Cu  Cu108  1  0.32418383  0.67358526  0.49292436  1
  Cu  Cu109  1  0.66826731  0.67687997  -0.00154326  1
  Cu  Cu110  1  0.66438038  -0.00169259  -0.00291217  1
  Cu  Cu111  1  0.33494053  0.66270231  0.00560605  1
  Cu  Cu112  1  0.83375000  0.15765347  0.75638917  1
  Cu  Cu113  1  -0.00108928  0.00734175  0.50132295  1
  Cu  Cu114  1  0.66527982  0.31857578  0.49616517  1
  Se  Se115  1  0.05549156  0.06550557  0.03824070  1
  Se  Se116  1  0.08143421  0.09075471  0.55530954  1
  Se  Se117  1  0.08333002  0.41178850  0.05431014  1
  Se  Se118  1  0.08049463  0.41741499  0.56174754  1
  Se  Se119  1  0.09388588  0.75420520  0.05040142  1
  Se  Se120  1  0.08758665  0.75752744  0.55122107  1
  Se  Se121  1  0.42354182  0.08335643  0.05131359  1
  Se  Se122  1  0.41648481  0.08282099  0.55391695  1
  Se  Se123  1  0.43845586  0.43990980  0.05881721  1
  Se  Se124  1  0.41376536  0.40516223  0.55998913  1
  Se  Se125  1  0.41510407  0.74994671  0.06077413  1
  Se  Se126  1  0.41147962  0.74950829  0.54914705  1
  Se  Se127  1  0.74471081  0.08145106  0.05400269  1
  Se  Se128  1  0.74479133  0.06963076  0.55936323  1
  Se  Se129  1  0.75183137  0.42145212  0.04716037  1
  Se  Se130  1  0.74345389  0.40213050  0.55555607  1
  Se  Se131  1  0.75280817  0.75970066  0.04956348  1
  Se  Se132  1  0.75201554  0.75072140  0.55880173  1
  Se  Se133  1  0.23050611  0.22950326  0.05234998  1
  Se  Se134  1  0.24592739  0.24805591  0.55471339  1
  Se  Se135  1  0.24931366  0.58129413  0.05691260  1
  Se  Se136  1  0.25255209  0.59622242  0.56125368  1
  Se  Se137  1  0.25387207  0.91598761  0.05157840  1
  Se  Se138  1  0.24777981  0.92118898  0.55458452  1
  Se  Se139  1  0.58677717  0.24626218  0.05327717  1
  Se  Se140  1  0.58060266  0.23733974  0.54847724  1
  Se  Se141  1  0.58311179  0.59321188  0.04901804  1
  Se  Se142  1  0.59110250  0.58326451  0.56434538  1
  Se  Se143  1  0.58504389  0.92179498  0.06236940  1
  Se  Se144  1  0.56506325  0.89536099  0.56248927  1
  Se  Se145  1  0.90971709  0.24598450  0.04946691  1
  Se  Se146  1  0.92662306  0.25993192  0.55905048  1
  Se  Se147  1  0.90745488  0.56965368  0.04897229  1
  Se  Se148  1  0.92302395  0.59550855  0.56231367  1
  Se  Se149  1  0.91783886  0.92136411  0.04517075  1
  Se  Se150  1  0.91859717  0.92120504  0.55379262  1
  Se  Se151  1  0.09192428  0.25045042  0.44265376  1
  Se  Se152  1  0.08087526  0.24640162  0.94475915  1
  Se  Se153  1  0.06976242  0.59208241  0.44021354  1
  Se  Se154  1  0.09539414  0.56706280  0.96158757  1
  Se  Se155  1  0.08152283  0.92182650  0.44697154  1
  Se  Se156  1  0.09729544  0.90653210  0.95331039  1
  Se  Se157  1  0.42137581  0.24271135  0.44538387  1
  Se  Se158  1  0.40888027  0.26236235  0.95522717  1
  Se  Se159  1  0.40372861  0.58737420  0.43428668  1
  Se  Se160  1  0.42126043  0.58400603  0.95072458  1
  Se  Se161  1  0.40983862  0.91719815  0.44153477  1
  Se  Se162  1  0.41033181  0.92639826  0.93343725  1
  Se  Se163  1  0.75353441  0.24988332  0.43601594  1
  Se  Se164  1  0.74846662  0.24369102  0.94879605  1
  Se  Se165  1  0.74340188  0.59478731  0.44184328  1
  Se  Se166  1  0.74932327  0.58811758  0.94863443  1
  Se  Se167  1  0.76194674  0.91403423  0.44991960  1
  Se  Se168  1  0.74787905  0.91366050  0.94671904  1
  Se  Se169  1  0.24953955  0.08702507  0.44727272  1
  Se  Se170  1  0.24764875  0.08334419  0.95127748  1
  Se  Se171  1  0.25965670  0.40890516  0.44078612  1
  Se  Se172  1  0.26166277  0.40113024  0.95887829  1
  Se  Se173  1  0.23994023  0.75374547  0.43891607  1
  Se  Se174  1  0.25721498  0.75273051  0.95414779  1
  Se  Se175  1  0.59071958  0.07477840  0.44456891  1
  Se  Se176  1  0.57918701  0.08373396  0.94864246  1
  Se  Se177  1  0.58947161  0.40788463  0.43961604  1
  Se  Se178  1  0.58715995  0.41762877  0.94837870  1
  Se  Se179  1  0.57659875  0.74655817  0.44899173  1
  Se  Se180  1  0.59084998  0.75232269  0.93222863  1
  Se  Se181  1  0.92634855  0.08311554  0.43235390  1
  Se  Se182  1  0.91765249  0.08499721  0.94938263  1
  Se  Se183  1  0.92690763  0.41415732  0.43913835  1
  Se  Se184  1  0.91201446  0.41274510  0.95057129  1
  Se  Se185  1  0.90989377  0.75744449  0.44631447  1
  Se  Se186  1  0.93794076  0.73060467  0.95162440  1
  Se  Se187  1  0.25255936  0.24375590  0.30049188  1
  Se  Se188  1  0.24138893  0.24758610  0.81235729  1
  Se  Se189  1  0.24232605  0.58058565  0.29668499  1
  Se  Se190  1  0.24446769  0.58847590  0.82453584  1
  Se  Se191  1  0.23260607  0.91022003  0.30192108  1
  Se  Se192  1  0.23930813  0.91391414  0.81357262  1
  Se  Se193  1  0.58026979  0.24584186  0.30745194  1
  Se  Se194  1  0.57438793  0.24459600  0.81086323  1
  Se  Se195  1  0.56910929  0.57357888  0.30214476  1
  Se  Se196  1  0.58919231  0.58827475  0.80360867  1
  Se  Se197  1  0.58271156  0.91393859  0.30863059  1
  Se  Se198  1  0.58428212  0.92078510  0.79820265  1
  Se  Se199  1  0.92658948  0.25402997  0.29399898  1
  Se  Se200  1  0.91650857  0.24827783  0.80187407  1
  Se  Se201  1  0.91661892  0.59135957  0.29603661  1
  Se  Se202  1  0.91349876  0.57289243  0.82331656  1
  Se  Se203  1  0.91548374  0.91374824  0.30536337  1
  Se  Se204  1  0.91760925  0.91351157  0.81419320  1
  Se  Se205  1  0.09411396  0.08429838  0.30200504  1
  Se  Se206  1  0.07863701  0.07936593  0.80721754  1
  Se  Se207  1  0.08242502  0.41379231  0.29800967  1
  Se  Se208  1  0.08222582  0.41438588  0.81298401  1
  Se  Se209  1  0.07052828  0.74663023  0.30265719  1
  Se  Se210  1  0.09210820  0.75885015  0.81932190  1
  Se  Se211  1  0.42233662  0.08773237  0.30546027  1
  Se  Se212  1  0.41575567  0.09909205  0.81433476  1
  Se  Se213  1  0.40906649  0.40685997  0.29505328  1
  Se  Se214  1  0.41988236  0.42577032  0.81601467  1
  Se  Se215  1  0.41003419  0.75160517  0.30002657  1
  Se  Se216  1  0.42668088  0.75583759  0.80441170  1
  Se  Se217  1  0.76058873  0.08737158  0.29787903  1
  Se  Se218  1  0.74808562  0.07858413  0.80911800  1
  Se  Se219  1  0.76312650  0.43266304  0.30577081  1
  Se  Se220  1  0.75507478  0.41510055  0.81981190  1
  Se  Se221  1  0.75227258  0.76613653  0.31011549  1
  Se  Se222  1  0.75653850  0.74631488  0.80398387  1
  Se  Se223  1  0.24144937  0.07729004  0.17937467  1
  Se  Se224  1  0.24189749  0.09178866  0.69463008  1
  Se  Se225  1  0.24981133  0.41144039  0.19308999  1
  Se  Se226  1  0.23959066  0.43090446  0.69980720  1
  Se  Se227  1  0.24567195  0.74415582  0.19705493  1
  Se  Se228  1  0.24284735  0.76069422  0.69745130  1
  Se  Se229  1  0.59177984  0.08282768  0.20567713  1
  Se  Se230  1  0.57947157  0.07923908  0.70054062  1
  Se  Se231  1  0.58171041  0.41948937  0.18425425  1
  Se  Se232  1  0.58201428  0.41743192  0.69375317  1
  Se  Se233  1  0.57745518  0.75594036  0.18896068  1
  Se  Se234  1  0.58899447  0.74325384  0.69743355  1
  Se  Se235  1  0.91538176  0.09464444  0.17855745  1
  Se  Se236  1  0.91957783  0.07821044  0.70037754  1
  Se  Se237  1  0.92155322  0.41622549  0.19282547  1
  Se  Se238  1  0.92405201  0.41311074  0.70634490  1
  Se  Se239  1  0.91691909  0.75223001  0.18808735  1
  Se  Se240  1  0.91862753  0.75645844  0.69160339  1
  Se  Se241  1  0.08431536  0.24639510  0.19009388  1
  Se  Se242  1  0.08054105  0.25583831  0.70014216  1
  Se  Se243  1  0.07792514  0.58344306  0.19224787  1
  Se  Se244  1  0.08664784  0.58215333  0.70245056  1
  Se  Se245  1  0.08505681  0.90750806  0.18077748  1
  Se  Se246  1  0.08591002  0.92007335  0.69970393  1
  Se  Se247  1  0.41343794  0.24581593  0.19000393  1
  Se  Se248  1  0.42301015  0.23937891  0.69568457  1
  Se  Se249  1  0.40795465  0.58441525  0.19767324  1
  Se  Se250  1  0.42762883  0.57266695  0.69235590  1
  Se  Se251  1  0.42482280  0.91019711  0.18634373  1
  Se  Se252  1  0.41526231  0.91269796  0.69104747  1
  Se  Se253  1  0.75888067  0.25220060  0.18324595  1
  Se  Se254  1  0.75932331  0.23572895  0.68733134  1
  Se  Se255  1  0.75336107  0.58654081  0.18263828  1
  Se  Se256  1  0.75493760  0.57792584  0.70815065  1
  Se  Se257  1  0.75225106  0.92366464  0.19593183  1
  Se  Se258  1  0.75266584  0.91479148  0.69859242  1
