# generated using pymatgen
data_In86Cu29Se144
_symmetry_space_group_name_H-M   'P 1'
_cell_length_a   17.68654329
_cell_length_b   17.68074132
_cell_length_c   23.55008232
_cell_angle_alpha   89.98903511
_cell_angle_beta   90.01410709
_cell_angle_gamma   89.98165521
_symmetry_Int_Tables_number   1
_chemical_formula_structural   In86Cu29Se144
_chemical_formula_sum   'In86 Cu29 Se144'
_cell_volume   7364.37369203
_cell_formula_units_Z   1
loop_
 _symmetry_equiv_pos_site_id
 _symmetry_equiv_pos_as_xyz
  1  'x, y, z'
loop_
 _atom_site_type_symbol
 _atom_site_label
 _atom_site_symmetry_multiplicity
 _atom_site_fract_x
 _atom_site_fract_y
 _atom_site_fract_z
 _atom_site_occupancy
  In  In0  1  -0.01267462  0.16851129  0.14526673  1
  In  In1  1  0.02359758  0.17415676  0.61566386  1
  In  In2  1  -0.00433687  0.48903618  0.13148149  1
  In  In3  1  0.00274661  0.50420793  0.62351870  1
  In  In4  1  -0.00570171  0.84179494  0.12722856  1
  In  In5  1  -0.00894967  0.82598024  0.61994687  1
  In  In6  1  0.34565573  0.17542935  0.12131473  1
  In  In7  1  0.33451822  0.16775984  0.62015548  1
  In  In8  1  0.34481409  0.48498784  0.14275406  1
  In  In9  1  0.33159067  0.50425256  0.62462928  1
  In  In10  1  0.33231582  0.81922001  0.11921730  1
  In  In11  1  0.32930844  0.82907619  0.62387098  1
  In  In12  1  0.65508227  0.17559198  0.12812585  1
  In  In13  1  0.65922759  0.18393390  0.62164703  1
  In  In14  1  0.65493737  0.50166189  0.12834176  1
  In  In15  1  0.66878467  0.50506909  0.62261156  1
  In  In16  1  0.66410925  0.83052503  0.11443773  1
  In  In17  1  0.66564195  0.81756378  0.62855243  1
  In  In18  1  0.16820605  0.01609653  0.38482524  1
  In  In19  1  0.17271515  -0.00965617  0.87132449  1
  In  In20  1  0.15140719  0.33878575  0.36882213  1
  In  In21  1  0.17224491  0.34211794  0.86351832  1
  In  In22  1  0.21661633  0.62835947  0.44249987  1
  In  In23  1  0.17543173  0.65789283  0.84372239  1
  In  In24  1  0.50495159  0.01059489  0.37370658  1
  In  In25  1  0.48313567  0.00705456  0.87898841  1
  In  In26  1  0.49898668  0.33403594  0.37497980  1
  In  In27  1  0.48636059  0.34593467  0.88908413  1
  In  In28  1  0.47667333  0.65436394  0.38032759  1
  In  In29  1  0.49954696  0.66189577  0.86797461  1
  In  In30  1  0.83695773  -0.01752291  0.37705796  1
  In  In31  1  0.82486849  0.00217421  0.87964866  1
  In  In32  1  0.85217732  0.34851252  0.35448876  1
  In  In33  1  0.84253325  0.33314779  0.87499850  1
  In  In34  1  0.84403839  0.66328513  0.38588235  1
  In  In35  1  0.84092143  0.67476027  0.86836390  1
  In  In36  1  0.00885554  0.17709472  0.36187836  1
  In  In37  1  0.00253782  0.17178383  0.87349875  1
  In  In38  1  0.00446760  0.49870387  0.37914014  1
  In  In39  1  0.00854952  0.50526015  0.86558394  1
  In  In40  1  0.01028891  0.82995287  0.37898078  1
  In  In41  1  0.00800820  0.82231332  0.87354178  1
  In  In42  1  0.29761844  0.24106853  0.43066887  1
  In  In43  1  0.34644319  0.18416021  0.86060002  1
  In  In44  1  0.33728579  0.48727918  0.37960757  1
  In  In45  1  0.33783661  0.50113840  0.86310376  1
  In  In46  1  0.32586436  0.81702848  0.37695284  1
  In  In47  1  0.33964478  0.83416541  0.86527331  1
  In  In48  1  0.65353186  0.17221072  0.37665372  1
  In  In49  1  0.65853517  0.16387475  0.87852662  1
  In  In50  1  0.68037016  0.49222242  0.37625507  1
  In  In51  1  0.64994310  0.49837510  0.87475237  1
  In  In52  1  0.66742075  0.84165628  0.37945488  1
  In  In53  1  0.66863082  0.82713029  0.87805216  1
  In  In54  1  0.15545145  -0.00258127  0.13435367  1
  In  In55  1  0.17912533  0.00956850  0.61469289  1
  In  In56  1  0.17237312  0.33158420  0.13701716  1
  In  In57  1  0.17594499  0.34270266  0.61988123  1
  In  In58  1  0.17461355  0.66797776  0.12408441  1
  In  In59  1  0.16025499  0.66490018  0.62231431  1
  In  In60  1  0.49880498  -0.00375384  0.11600841  1
  In  In61  1  0.48606691  -0.00341993  0.62789793  1
  In  In62  1  0.49651616  0.33856359  0.12819593  1
  In  In63  1  0.47622837  0.32787553  0.59932023  1
  In  In64  1  0.48563297  0.65159236  0.11293162  1
  In  In65  1  0.50299976  0.66292172  0.62918588  1
  In  In66  1  0.83767297  -0.00016230  0.12807262  1
  In  In67  1  0.84503042  0.00250445  0.62471692  1
  In  In68  1  0.82788494  0.32968698  0.14794416  1
  In  In69  1  0.83893570  0.35593273  0.61817110  1
  In  In70  1  0.82333403  0.66523314  0.12268371  1
  In  In71  1  0.83303942  0.66519181  0.62656618  1
  In  In72  1  0.66099722  -0.00025428  0.75960318  1
  In  In73  1  0.66439121  0.66370057  0.24596977  1
  In  In74  1  0.01358278  0.66321093  0.26241841  1
  In  In75  1  0.33573080  0.00609762  0.25476970  1
  In  In76  1  0.17186593  0.83079110  -0.00918138  1
  In  In77  1  0.17310481  0.50371543  -0.00941595  1
  In  In78  1  0.82597428  0.16802525  0.01887940  1
  In  In79  1  0.83091389  0.16627292  0.48582194  1
  In  In80  1  0.66203631  0.34269035  0.74778497  1
  In  In81  1  0.17179608  0.16514828  0.00939385  1
  In  In82  1  0.66606579  0.00062206  0.24234820  1
  In  In83  1  0.50445588  0.83342600  0.50625154  1
  In  In84  1  0.82762192  0.50080152  0.00710452  1
  In  In85  1  0.00695158  -0.00009140  0.74927968  1
  Cu  Cu86  1  0.82842950  0.83478246  0.75119934  1
  Cu  Cu87  1  -0.01161323  0.00049624  0.00702639  1
  Cu  Cu88  1  -0.00039073  0.67135648  -0.00572075  1
  Cu  Cu89  1  0.17205627  0.83394692  0.74155049  1
  Cu  Cu90  1  0.66395428  0.34118120  0.49685455  1
  Cu  Cu91  1  0.48867361  0.17781129  0.25561633  1
  Cu  Cu92  1  0.66549461  0.66761192  -0.00461316  1
  Cu  Cu93  1  0.17065007  0.16721033  0.25939640  1
  Cu  Cu94  1  0.00417436  -0.00492571  0.50073718  1
  Cu  Cu95  1  0.16942707  0.82641211  0.25067979  1
  Cu  Cu96  1  0.50203501  0.49818325  0.25104266  1
  Cu  Cu97  1  0.00508178  0.33434632  0.00175885  1
  Cu  Cu98  1  0.49350586  0.82419224  0.24816325  1
  Cu  Cu99  1  0.66090744  0.32933492  0.00441632  1
  Cu  Cu100  1  0.49581259  0.17448312  0.74590428  1
  Cu  Cu101  1  0.84078005  0.17849317  0.74722739  1
  Cu  Cu102  1  -0.00511758  0.67056572  0.50539429  1
  Cu  Cu103  1  0.33026240  -0.00036088  -0.00162860  1
  Cu  Cu104  1  0.49907270  0.49652541  0.74484491  1
  Cu  Cu105  1  -0.00664320  0.33470843  0.49629935  1
  Cu  Cu106  1  0.83572836  0.50472637  0.74528121  1
  Cu  Cu107  1  0.33878543  0.66525881  -0.01016887  1
  Cu  Cu108  1  0.65773358  -0.00936067  -0.00587477  1
  Cu  Cu109  1  0.49389935  0.82449325  0.74806023  1
  Cu  Cu110  1  0.17843476  0.17117041  0.73926818  1
  Cu  Cu111  1  0.83898414  0.82359812  0.25544871  1
  Cu  Cu112  1  0.67365777  0.00119719  0.49825658  1
  Cu  Cu113  1  0.34201545  0.00288902  0.49806815  1
  Cu  Cu114  1  0.67250373  0.66985945  0.50100641  1
  Se  Se115  1  0.06930106  0.08116416  0.06453364  1
  Se  Se116  1  0.08972370  0.08372935  0.54573016  1
  Se  Se117  1  0.08663558  0.41574440  0.05810454  1
  Se  Se118  1  0.07643817  0.41298068  0.55464940  1
  Se  Se119  1  0.07927944  0.74961838  0.05693688  1
  Se  Se120  1  0.08314869  0.75424212  0.55341812  1
  Se  Se121  1  0.41269126  0.08131312  0.05308041  1
  Se  Se122  1  0.42316040  0.08403965  0.55439292  1
  Se  Se123  1  0.42062478  0.42790961  0.06088385  1
  Se  Se124  1  0.42393900  0.44594215  0.54841527  1
  Se  Se125  1  0.41709946  0.74939435  0.04633005  1
  Se  Se126  1  0.41263371  0.73912235  0.55616858  1
  Se  Se127  1  0.73081503  0.06810844  0.06283788  1
  Se  Se128  1  0.74725663  0.08533189  0.56117358  1
  Se  Se129  1  0.74550764  0.40311705  0.06591682  1
  Se  Se130  1  0.74745454  0.42325744  0.54996777  1
  Se  Se131  1  0.75083266  0.74682982  0.04982187  1
  Se  Se132  1  0.75311448  0.75226053  0.55605503  1
  Se  Se133  1  0.25908641  0.26656363  0.05726344  1
  Se  Se134  1  0.25006791  0.24969833  0.55253959  1
  Se  Se135  1  0.26007233  0.59017843  0.05378357  1
  Se  Se136  1  0.24350740  0.58195860  0.55353824  1
  Se  Se137  1  0.24822655  0.92379729  0.06028995  1
  Se  Se138  1  0.26088840  0.91943869  0.55209791  1
  Se  Se139  1  0.57429426  0.25059360  0.05666946  1
  Se  Se140  1  0.58176037  0.25285050  0.54524763  1
  Se  Se141  1  0.58799838  0.58301574  0.05188884  1
  Se  Se142  1  0.58787248  0.59146758  0.55602852  1
  Se  Se143  1  0.57499423  0.90823504  0.04884304  1
  Se  Se144  1  0.59550424  0.92588578  0.56526150  1
  Se  Se145  1  0.92439953  0.26131667  0.06624234  1
  Se  Se146  1  0.91610544  0.25096154  0.55632951  1
  Se  Se147  1  0.92901720  0.59013741  0.05898125  1
  Se  Se148  1  0.91288072  0.58353047  0.55613045  1
  Se  Se149  1  0.90768712  0.91242791  0.05511026  1
  Se  Se150  1  0.91550233  0.91879511  0.55295722  1
  Se  Se151  1  0.07477059  0.25219935  0.44184703  1
  Se  Se152  1  0.08556215  0.25506313  0.94360687  1
  Se  Se153  1  0.07341125  0.58534641  0.45167305  1
  Se  Se154  1  0.08504533  0.60072586  0.93341030  1
  Se  Se155  1  0.09075178  0.91916854  0.44541758  1
  Se  Se156  1  0.07217669  0.92844343  0.94343870  1
  Se  Se157  1  0.44234523  0.24029438  0.44913518  1
  Se  Se158  1  0.42304350  0.23687965  0.94391894  1
  Se  Se159  1  0.42544259  0.55887357  0.45411995  1
  Se  Se160  1  0.41712939  0.57804206  0.93656565  1
  Se  Se161  1  0.41953426  0.91835372  0.43789260  1
  Se  Se162  1  0.40799723  0.91303036  0.94379764  1
  Se  Se163  1  0.74488446  0.26492804  0.43455382  1
  Se  Se164  1  0.74670523  0.25539635  0.94439248  1
  Se  Se165  1  0.75077564  0.58382677  0.44627234  1
  Se  Se166  1  0.74698438  0.58593157  0.93721187  1
  Se  Se167  1  0.75333987  0.91147932  0.45171430  1
  Se  Se168  1  0.74951869  0.91420268  0.94542091  1
  Se  Se169  1  0.26916358  0.08955387  0.44143755  1
  Se  Se170  1  0.25185170  0.07999194  0.93885622  1
  Se  Se171  1  0.25604433  0.39033842  0.44164498  1
  Se  Se172  1  0.26209569  0.40842943  0.93802189  1
  Se  Se173  1  0.24811668  0.77062767  0.46134782  1
  Se  Se174  1  0.25099448  0.73490941  0.92852901  1
  Se  Se175  1  0.58683280  0.08164713  0.44855146  1
  Se  Se176  1  0.57844901  0.08004768  0.94475987  1
  Se  Se177  1  0.58325959  0.42253190  0.44040037  1
  Se  Se178  1  0.58406214  0.41816701  0.95193892  1
  Se  Se179  1  0.58599135  0.74164768  0.43849678  1
  Se  Se180  1  0.57927317  0.74432869  0.93998689  1
  Se  Se181  1  0.92820313  0.07510638  0.43643345  1
  Se  Se182  1  0.91660773  0.08788788  0.94659245  1
  Se  Se183  1  0.91135226  0.41597802  0.44139483  1
  Se  Se184  1  0.92451726  0.41797290  0.94572828  1
  Se  Se185  1  0.91863593  0.75707714  0.44849772  1
  Se  Se186  1  0.91612672  0.75517632  0.94342528  1
  Se  Se187  1  0.24672784  0.24268227  0.32234393  1
  Se  Se188  1  0.25409642  0.25778652  0.79647004  1
  Se  Se189  1  0.24786178  0.58993298  0.33866246  1
  Se  Se190  1  0.23287202  0.54429163  0.79128214  1
  Se  Se191  1  0.24593449  0.91286404  0.31051394  1
  Se  Se192  1  0.25208435  0.91603164  0.79891998  1
  Se  Se193  1  0.58340121  0.25439935  0.30220175  1
  Se  Se194  1  0.57801496  0.24879754  0.80852243  1
  Se  Se195  1  0.57721149  0.58106614  0.31242801  1
  Se  Se196  1  0.58326347  0.57871566  0.79849382  1
  Se  Se197  1  0.57451454  0.90812558  0.30345088  1
  Se  Se198  1  0.56800842  0.90751716  0.81208254  1
  Se  Se199  1  0.89591991  0.22686895  0.30468159  1
  Se  Se200  1  0.92358671  0.25467726  0.80422735  1
  Se  Se201  1  0.90849068  0.57901668  0.30822977  1
  Se  Se202  1  0.91783176  0.58543101  0.80297107  1
  Se  Se203  1  0.92172557  0.90544138  0.30787487  1
  Se  Se204  1  0.91072529  0.91587715  0.81032909  1
  Se  Se205  1  0.08752946  0.07703472  0.30432317  1
  Se  Se206  1  0.09936530  0.09476046  0.80539547  1
  Se  Se207  1  0.06616242  0.41596097  0.30063297  1
  Se  Se208  1  0.06057738  0.39524258  0.80736982  1
  Se  Se209  1  0.10613959  0.74622814  0.31980552  1
  Se  Se210  1  0.08541521  0.75514383  0.79579037  1
  Se  Se211  1  0.41334782  0.09868552  0.31725369  1
  Se  Se212  1  0.41782723  0.08451692  0.79848713  1
  Se  Se213  1  0.41743455  0.41501489  0.30350124  1
  Se  Se214  1  0.42390390  0.41025593  0.80224385  1
  Se  Se215  1  0.41407459  0.74529092  0.30632328  1
  Se  Se216  1  0.41023392  0.73963648  0.79970169  1
  Se  Se217  1  0.74476940  0.07479887  0.31771400  1
  Se  Se218  1  0.75989232  0.09903052  0.80627293  1
  Se  Se219  1  0.74473661  0.41341582  0.29785426  1
  Se  Se220  1  0.75812675  0.42606459  0.81054426  1
  Se  Se221  1  0.75148669  0.75039022  0.31267505  1
  Se  Se222  1  0.74717027  0.75071709  0.80411783  1
  Se  Se223  1  0.24538092  0.09350247  0.18920902  1
  Se  Se224  1  0.25752463  0.08105948  0.69118342  1
  Se  Se225  1  0.23516431  0.43101463  0.20065444  1
  Se  Se226  1  0.23871326  0.43438215  0.69403738  1
  Se  Se227  1  0.25366879  0.74802658  0.19535204  1
  Se  Se228  1  0.24970811  0.74348452  0.69151469  1
  Se  Se229  1  0.56151951  0.08981169  0.19455459  1
  Se  Se230  1  0.58079674  0.09187411  0.69161913  1
  Se  Se231  1  0.58472837  0.41410100  0.19861302  1
  Se  Se232  1  0.57066327  0.41533370  0.67971257  1
  Se  Se233  1  0.57369968  0.75062144  0.18436656  1
  Se  Se234  1  0.58443060  0.74492931  0.70063182  1
  Se  Se235  1  0.92133915  0.06338533  0.20225868  1
  Se  Se236  1  0.92202774  0.09816475  0.68995965  1
  Se  Se237  1  0.92373475  0.40889743  0.20375573  1
  Se  Se238  1  0.91887069  0.42053761  0.69490105  1
  Se  Se239  1  0.91507507  0.74414574  0.19252132  1
  Se  Se240  1  0.91121590  0.75484406  0.69547831  1
  Se  Se241  1  0.08788928  0.24587727  0.20076770  1
  Se  Se242  1  0.09391918  0.25474774  0.68904180  1
  Se  Se243  1  0.09065187  0.57889117  0.18855108  1
  Se  Se244  1  0.06706435  0.59964038  0.69224005  1
  Se  Se245  1  0.08183693  0.90773552  0.20119073  1
  Se  Se246  1  0.09086778  0.91538048  0.68312684  1
  Se  Se247  1  0.40920737  0.25852470  0.19765781  1
  Se  Se248  1  0.41864925  0.25541991  0.68584955  1
  Se  Se249  1  0.42069923  0.58700765  0.19924139  1
  Se  Se250  1  0.41576786  0.58367535  0.69594272  1
  Se  Se251  1  0.41761317  0.90998034  0.18944558  1
  Se  Se252  1  0.41285937  0.90917197  0.69536558  1
  Se  Se253  1  0.76227054  0.21563566  0.19413156  1
  Se  Se254  1  0.75817597  0.25451244  0.68856358  1
  Se  Se255  1  0.75977690  0.57014966  0.19373619  1
  Se  Se256  1  0.74726306  0.58414607  0.69551263  1
  Se  Se257  1  0.75498745  0.89768063  0.19266920  1
  Se  Se258  1  0.75329060  0.92009447  0.69283365  1
