# generated using pymatgen
data_In86Cu29Se144
_symmetry_space_group_name_H-M   'P 1'
_cell_length_a   17.58682280
_cell_length_b   17.58744633
_cell_length_c   23.44955047
_cell_angle_alpha   90.03521760
_cell_angle_beta   90.02225449
_cell_angle_gamma   90.02176344
_symmetry_Int_Tables_number   1
_chemical_formula_structural   In86Cu29Se144
_chemical_formula_sum   'In86 Cu29 Se144'
_cell_volume   7253.11475095
_cell_formula_units_Z   1
loop_
 _symmetry_equiv_pos_site_id
 _symmetry_equiv_pos_as_xyz
  1  'x, y, z'
loop_
 _atom_site_type_symbol
 _atom_site_label
 _atom_site_symmetry_multiplicity
 _atom_site_fract_x
 _atom_site_fract_y
 _atom_site_fract_z
 _atom_site_occupancy
  In  In0  1  0.00773722  0.15609692  0.12246355  1
  In  In1  1  -0.00675146  0.15813062  0.62901542  1
  In  In2  1  0.01134687  0.51506755  0.11957273  1
  In  In3  1  0.01229897  0.49145200  0.62267755  1
  In  In4  1  0.00689270  0.82276615  0.12875653  1
  In  In5  1  0.00895032  0.83787435  0.62416795  1
  In  In6  1  0.35327859  0.17661526  0.10239037  1
  In  In7  1  0.34426228  0.15780263  0.63087929  1
  In  In8  1  0.32124239  0.50862703  0.12334311  1
  In  In9  1  0.32794907  0.50709718  0.63845083  1
  In  In10  1  0.33692189  0.82063556  0.10369048  1
  In  In11  1  0.33337475  0.83709278  0.63133359  1
  In  In12  1  0.63986659  0.17265846  0.13503896  1
  In  In13  1  0.65680826  0.17531387  0.63203971  1
  In  In14  1  0.67037834  0.48846591  0.13088103  1
  In  In15  1  0.65792634  0.50585668  0.63304785  1
  In  In16  1  0.65819812  0.84366065  0.13431586  1
  In  In17  1  0.67474369  0.82523329  0.62737758  1
  In  In18  1  0.15938700  -0.01025075  0.37431201  1
  In  In19  1  0.17260053  0.00168156  0.87492019  1
  In  In20  1  0.19245090  0.33502983  0.36842913  1
  In  In21  1  0.17678893  0.32093082  0.88315667  1
  In  In22  1  0.15720121  0.68094096  0.38150489  1
  In  In23  1  0.18775100  0.65896240  0.89407246  1
  In  In24  1  0.51144543  -0.00110288  0.37744734  1
  In  In25  1  0.49773062  0.00021590  0.87855086  1
  In  In26  1  0.48983539  0.33067637  0.36496311  1
  In  In27  1  0.48969256  0.32239199  0.87051696  1
  In  In28  1  0.50113178  0.65636438  0.37299516  1
  In  In29  1  0.50514303  0.67523316  0.87171841  1
  In  In30  1  0.81846789  -0.00117515  0.37598093  1
  In  In31  1  0.82863073  -0.00238840  0.86563816  1
  In  In32  1  0.82064061  0.34489145  0.37428501  1
  In  In33  1  0.83196003  0.34593456  0.87827745  1
  In  In34  1  0.83528269  0.66754502  0.37061236  1
  In  In35  1  0.81906527  0.66890896  0.87567615  1
  In  In36  1  0.00126921  0.15758984  0.37322070  1
  In  In37  1  0.01571648  0.16627203  0.87417302  1
  In  In38  1  -0.00390459  0.51957874  0.37278704  1
  In  In39  1  0.00402182  0.49864586  0.88427106  1
  In  In40  1  0.01032752  0.81621652  0.38465612  1
  In  In41  1  0.00613596  0.84576554  0.86921419  1
  In  In42  1  0.34189239  0.17919755  0.36929994  1
  In  In43  1  0.33302472  0.16407923  0.87754597  1
  In  In44  1  0.33969502  0.49393612  0.37606988  1
  In  In45  1  0.33080918  0.49308251  0.87125387  1
  In  In46  1  0.31328797  0.82539027  0.37645794  1
  In  In47  1  0.33958564  0.83839418  0.87775311  1
  In  In48  1  0.64951323  0.16031492  0.36855816  1
  In  In49  1  0.65291285  0.15510853  0.87082715  1
  In  In50  1  0.65844742  0.49873046  0.35810445  1
  In  In51  1  0.66918591  0.50593784  0.87333299  1
  In  In52  1  0.66956982  0.83539656  0.37481027  1
  In  In53  1  0.65628869  0.83104800  0.87048827  1
  In  In54  1  0.18225754  -0.00338790  0.10361046  1
  In  In55  1  0.17869375  -0.01392690  0.63737974  1
  In  In56  1  0.17964276  0.34275121  0.12124236  1
  In  In57  1  0.17199070  0.34913185  0.62576273  1
  In  In58  1  0.17120037  0.66248324  0.11855794  1
  In  In59  1  0.18235095  0.67541964  0.61674713  1
  In  In60  1  0.49816079  0.00045691  0.10914713  1
  In  In61  1  0.49052676  0.00994421  0.63004391  1
  In  In62  1  0.50379599  0.32611757  0.13241560  1
  In  In63  1  0.50574637  0.32788227  0.63234735  1
  In  In64  1  0.49644743  0.67876912  0.12467318  1
  In  In65  1  0.50013423  0.66591011  0.63365655  1
  In  In66  1  0.82488618  -0.01136931  0.12574602  1
  In  In67  1  0.84093657  -0.00935242  0.63328907  1
  In  In68  1  0.81346386  0.33569338  0.12670569  1
  In  In69  1  0.83062819  0.32447730  0.62521694  1
  In  In70  1  0.84214322  0.66376398  0.12934494  1
  In  In71  1  0.81313837  0.67105606  0.62130720  1
  In  In72  1  0.49614007  0.50460568  0.49949265  1
  In  In73  1  0.83259439  0.50612879  0.49541608  1
  In  In74  1  0.17440864  0.16057269  0.50323146  1
  In  In75  1  -0.00565758  0.33619907  0.25470343  1
  In  In76  1  0.34034569  0.00289324  0.24244314  1
  In  In77  1  0.00074543  0.32756018  0.74776293  1
  In  In78  1  -0.00257423  -0.00678836  0.24538411  1
  In  In79  1  0.49544683  0.83388053  0.50252227  1
  In  In80  1  0.33371908  0.66549613  0.24594640  1
  In  In81  1  0.83151371  0.16398120  0.50186350  1
  In  In82  1  0.83073370  0.17029609  0.00448377  1
  In  In83  1  0.00218354  0.66991270  0.75031784  1
  In  In84  1  0.83809377  0.83043204  -0.00041417  1
  In  In85  1  0.49829461  0.50395970  0.00040618  1
  Cu  Cu86  1  0.66567238  0.00023555  0.50044030  1
  Cu  Cu87  1  0.00472750  0.00562920  -0.00507136  1
  Cu  Cu88  1  0.33228275  0.33495822  -0.00330820  1
  Cu  Cu89  1  0.65891045  0.00051873  0.00102390  1
  Cu  Cu90  1  0.17700029  0.16932151  0.24086566  1
  Cu  Cu91  1  0.83030031  0.83261761  0.25342364  1
  Cu  Cu92  1  0.00043265  0.34131138  0.00364494  1
  Cu  Cu93  1  0.82602830  0.50307872  0.75218034  1
  Cu  Cu94  1  0.00177107  0.66485696  0.00238295  1
  Cu  Cu95  1  0.50182164  0.49882719  0.75512861  1
  Cu  Cu96  1  0.67320380  0.66491355  -0.00051910  1
  Cu  Cu97  1  0.82757511  0.16479503  0.74887626  1
  Cu  Cu98  1  0.00270179  -0.01444415  0.50624269  1
  Cu  Cu99  1  0.01621681  0.33417693  0.49518157  1
  Cu  Cu100  1  -0.00105338  0.66848315  0.50000199  1
  Cu  Cu101  1  0.49919619  0.16699241  0.75430971  1
  Cu  Cu102  1  0.17170464  0.83168562  0.75326698  1
  Cu  Cu103  1  0.16644454  0.50666803  0.24612371  1
  Cu  Cu104  1  0.33055147  -0.00092196  0.50600275  1
  Cu  Cu105  1  0.17312725  0.16309080  0.75608744  1
  Cu  Cu106  1  0.49880870  0.84121361  0.75213115  1
  Cu  Cu107  1  0.81773025  0.16543580  0.25065344  1
  Cu  Cu108  1  0.65891025  0.33429398  0.50355538  1
  Cu  Cu109  1  0.17149898  0.50070292  0.75608098  1
  Cu  Cu110  1  0.50109900  0.83442269  0.24818296  1
  Cu  Cu111  1  0.82649416  0.83320604  0.75044682  1
  Cu  Cu112  1  0.83420082  0.50522706  0.24693257  1
  Cu  Cu113  1  0.34125276  0.33503795  0.49774297  1
  Cu  Cu114  1  0.66157369  0.33348941  0.00411834  1
  Se  Se115  1  0.08927957  0.08716016  0.04791839  1
  Se  Se116  1  0.08152692  0.07201783  0.56283456  1
  Se  Se117  1  0.08811485  0.42124844  0.05621804  1
  Se  Se118  1  0.09435588  0.42053539  0.54782286  1
  Se  Se119  1  0.08439827  0.74976311  0.05347519  1
  Se  Se120  1  0.08329317  0.74880670  0.55572962  1
  Se  Se121  1  0.39457005  0.05918159  0.04475162  1
  Se  Se122  1  0.41719010  0.08549319  0.55111661  1
  Se  Se123  1  0.41134995  0.41198575  0.06114832  1
  Se  Se124  1  0.41430706  0.41390987  0.56463044  1
  Se  Se125  1  0.42661602  0.74050958  0.04140656  1
  Se  Se126  1  0.40953740  0.74119192  0.56204593  1
  Se  Se127  1  0.73973670  0.07949606  0.06251389  1
  Se  Se128  1  0.74464920  0.07805900  0.56540514  1
  Se  Se129  1  0.74802559  0.41934297  0.05033558  1
  Se  Se130  1  0.74466798  0.41380888  0.55913912  1
  Se  Se131  1  0.74622833  0.74916742  0.06300012  1
  Se  Se132  1  0.74526694  0.75321264  0.54738876  1
  Se  Se133  1  0.24629150  0.25153997  0.04969748  1
  Se  Se134  1  0.26009683  0.25651551  0.56113867  1
  Se  Se135  1  0.25708772  0.58984193  0.04717988  1
  Se  Se136  1  0.24173201  0.56422312  0.56062878  1
  Se  Se137  1  0.24320846  0.89522320  0.03767339  1
  Se  Se138  1  0.24985508  0.91335475  0.55711539  1
  Se  Se139  1  0.57637403  0.24895328  0.05306273  1
  Se  Se140  1  0.57844758  0.24810976  0.55517942  1
  Se  Se141  1  0.59281739  0.58744675  0.06174185  1
  Se  Se142  1  0.59012416  0.59375608  0.55717631  1
  Se  Se143  1  0.58427896  0.90594107  0.05101290  1
  Se  Se144  1  0.58435617  0.92377016  0.56356712  1
  Se  Se145  1  0.92280598  0.25987675  0.06569934  1
  Se  Se146  1  0.93185621  0.25802486  0.55449870  1
  Se  Se147  1  0.91370288  0.58363238  0.05273685  1
  Se  Se148  1  0.92276270  0.58790392  0.56389445  1
  Se  Se149  1  0.92805172  0.92486477  0.05800503  1
  Se  Se150  1  0.91210196  0.90930245  0.55766086  1
  Se  Se151  1  0.08845839  0.24922309  0.43511307  1
  Se  Se152  1  0.07762091  0.25407990  0.94927808  1
  Se  Se153  1  0.08180791  0.58457864  0.44711857  1
  Se  Se154  1  0.08747060  0.58102722  0.95138742  1
  Se  Se155  1  0.08898624  0.90970857  0.44967833  1
  Se  Se156  1  0.08483537  0.91883487  0.94357220  1
  Se  Se157  1  0.42268592  0.25094021  0.44487622  1
  Se  Se158  1  0.41685400  0.24811636  0.94822463  1
  Se  Se159  1  0.40219823  0.59733677  0.44550815  1
  Se  Se160  1  0.41225533  0.58953803  0.93642870  1
  Se  Se161  1  0.40567699  0.92150161  0.43814082  1
  Se  Se162  1  0.42842233  0.91028556  0.94871285  1
  Se  Se163  1  0.74161377  0.25522329  0.44308971  1
  Se  Se164  1  0.74054148  0.25393517  0.94038441  1
  Se  Se165  1  0.73719285  0.58423483  0.43432501  1
  Se  Se166  1  0.75382924  0.57862281  0.94803124  1
  Se  Se167  1  0.74839466  0.91525129  0.44983057  1
  Se  Se168  1  0.74550229  0.92276757  0.94309088  1
  Se  Se169  1  0.25926712  0.07602260  0.43476023  1
  Se  Se170  1  0.23172776  0.10187244  0.94290856  1
  Se  Se171  1  0.25435862  0.41657059  0.44732529  1
  Se  Se172  1  0.24845472  0.42019566  0.94618686  1
  Se  Se173  1  0.24778278  0.74802834  0.45357770  1
  Se  Se174  1  0.24004556  0.77540607  0.94885490  1
  Se  Se175  1  0.58198729  0.08578344  0.45047701  1
  Se  Se176  1  0.57774107  0.08737731  0.95006381  1
  Se  Se177  1  0.58609919  0.41500821  0.43903606  1
  Se  Se178  1  0.58362071  0.41056499  0.93880689  1
  Se  Se179  1  0.58376098  0.74492035  0.44142089  1
  Se  Se180  1  0.58942515  0.74747683  0.94669064  1
  Se  Se181  1  0.92626310  0.06984016  0.44593002  1
  Se  Se182  1  0.91594410  0.08043768  0.93900974  1
  Se  Se183  1  0.92694455  0.41050764  0.43928049  1
  Se  Se184  1  0.91426590  0.42031784  0.95058083  1
  Se  Se185  1  0.91006844  0.74620709  0.44720156  1
  Se  Se186  1  0.92747238  0.74335689  0.93597413  1
  Se  Se187  1  0.26061547  0.25137197  0.29379293  1
  Se  Se188  1  0.25449236  0.25141270  0.80527690  1
  Se  Se189  1  0.24396270  0.58330386  0.31240468  1
  Se  Se190  1  0.25061027  0.58831630  0.80855607  1
  Se  Se191  1  0.24366975  0.91310421  0.30059175  1
  Se  Se192  1  0.25344761  0.91706499  0.80630350  1
  Se  Se193  1  0.59277500  0.26332344  0.30473721  1
  Se  Se194  1  0.58574173  0.25241753  0.80370863  1
  Se  Se195  1  0.57554612  0.58621597  0.29603142  1
  Se  Se196  1  0.58536456  0.58628545  0.80487431  1
  Se  Se197  1  0.58363900  0.91490362  0.30499452  1
  Se  Se198  1  0.58359931  0.92442581  0.80497125  1
  Se  Se199  1  0.90227189  0.23932049  0.31218198  1
  Se  Se200  1  0.90873305  0.24273058  0.81193643  1
  Se  Se201  1  0.91840784  0.59044200  0.29704042  1
  Se  Se202  1  0.91322657  0.57703546  0.81094993  1
  Se  Se203  1  0.91362170  0.91102580  0.31510327  1
  Se  Se204  1  0.91468493  0.91492428  0.80021611  1
  Se  Se205  1  0.09522793  0.09024451  0.30043269  1
  Se  Se206  1  0.08411978  0.07933870  0.80212391  1
  Se  Se207  1  0.09113891  0.42430515  0.31074940  1
  Se  Se208  1  0.08761974  0.41680984  0.81084145  1
  Se  Se209  1  0.08576200  0.75467315  0.30324712  1
  Se  Se210  1  0.09581120  0.74832589  0.81434154  1
  Se  Se211  1  0.42899388  0.08741587  0.30693004  1
  Se  Se212  1  0.41659668  0.08343873  0.80786290  1
  Se  Se213  1  0.41473755  0.42289361  0.30027846  1
  Se  Se214  1  0.41539514  0.41350736  0.80281293  1
  Se  Se215  1  0.41905968  0.75967302  0.31060913  1
  Se  Se216  1  0.41741782  0.75500254  0.80489781  1
  Se  Se217  1  0.74077296  0.07855602  0.30496146  1
  Se  Se218  1  0.74342001  0.08185217  0.80168578  1
  Se  Se219  1  0.75083219  0.41705890  0.29524053  1
  Se  Se220  1  0.74701770  0.41550964  0.80468120  1
  Se  Se221  1  0.74632720  0.74831852  0.30506874  1
  Se  Se222  1  0.74428486  0.74938541  0.80334729  1
  Se  Se223  1  0.24951552  0.08704885  0.17940450  1
  Se  Se224  1  0.25512778  0.08146647  0.69879266  1
  Se  Se225  1  0.25194425  0.42164862  0.19765816  1
  Se  Se226  1  0.25257214  0.41248220  0.70468325  1
  Se  Se227  1  0.25039275  0.75939834  0.18556801  1
  Se  Se228  1  0.25208129  0.74776790  0.69779452  1
  Se  Se229  1  0.57801087  0.06260790  0.18946653  1
  Se  Se230  1  0.58174756  0.08409497  0.69849039  1
  Se  Se231  1  0.58164835  0.41465733  0.19747818  1
  Se  Se232  1  0.58497716  0.41548936  0.70008592  1
  Se  Se233  1  0.58401572  0.74728706  0.19826107  1
  Se  Se234  1  0.58094556  0.75648593  0.69682556  1
  Se  Se235  1  0.90430655  0.09138645  0.19111072  1
  Se  Se236  1  0.91694052  0.08100168  0.70218420  1
  Se  Se237  1  0.91406292  0.42294140  0.18648300  1
  Se  Se238  1  0.90890305  0.42512697  0.69174198  1
  Se  Se239  1  0.91607460  0.75442503  0.19841563  1
  Se  Se240  1  0.90780941  0.75381222  0.68909825  1
  Se  Se241  1  0.08550453  0.24968682  0.19070808  1
  Se  Se242  1  0.09627311  0.23998492  0.68823214  1
  Se  Se243  1  0.08606128  0.59299594  0.19513748  1
  Se  Se244  1  0.09254805  0.57775332  0.69277723  1
  Se  Se245  1  0.09663252  0.92005399  0.18354620  1
  Se  Se246  1  0.08233760  0.91295687  0.70230204  1
  Se  Se247  1  0.41819511  0.23292644  0.18996201  1
  Se  Se248  1  0.41608146  0.24988854  0.69912990  1
  Se  Se249  1  0.42552250  0.57575628  0.18885308  1
  Se  Se250  1  0.41823649  0.58517053  0.70341606  1
  Se  Se251  1  0.41798360  0.90222364  0.18278555  1
  Se  Se252  1  0.41308652  0.92290975  0.69887691  1
  Se  Se253  1  0.73917995  0.24937611  0.19565548  1
  Se  Se254  1  0.74831655  0.25394175  0.69843006  1
  Se  Se255  1  0.74908962  0.58540390  0.19283760  1
  Se  Se256  1  0.74670202  0.58796387  0.69774713  1
  Se  Se257  1  0.74804411  0.91946715  0.20331566  1
  Se  Se258  1  0.74415038  0.91817781  0.69732812  1
