# generated using pymatgen
data_In86Cu29Se144
_symmetry_space_group_name_H-M   'P 1'
_cell_length_a   17.58269929
_cell_length_b   17.57829605
_cell_length_c   23.44381759
_cell_angle_alpha   89.99296773
_cell_angle_beta   90.01431408
_cell_angle_gamma   90.01231612
_symmetry_Int_Tables_number   1
_chemical_formula_structural   In86Cu29Se144
_chemical_formula_sum   'In86 Cu29 Se144'
_cell_volume   7245.87153201
_cell_formula_units_Z   1
loop_
 _symmetry_equiv_pos_site_id
 _symmetry_equiv_pos_as_xyz
  1  'x, y, z'
loop_
 _atom_site_type_symbol
 _atom_site_label
 _atom_site_symmetry_multiplicity
 _atom_site_fract_x
 _atom_site_fract_y
 _atom_site_fract_z
 _atom_site_occupancy
  In  In0  1  -0.01474108  0.14966573  0.11372694  1
  In  In1  1  0.00983442  0.16788667  0.62578689  1
  In  In2  1  -0.00283151  0.50268161  0.12516227  1
  In  In3  1  0.00389660  0.49274816  0.62678619  1
  In  In4  1  -0.03555796  0.85613875  0.16380928  1
  In  In5  1  -0.01430953  0.82756179  0.60559684  1
  In  In6  1  0.32869312  0.15830060  0.11575652  1
  In  In7  1  0.32879041  0.16866223  0.63698625  1
  In  In8  1  0.32070090  0.51129049  0.12055979  1
  In  In9  1  0.32787955  0.49410846  0.62472038  1
  In  In10  1  0.34801426  0.83465338  0.12395388  1
  In  In11  1  0.33959060  0.84052352  0.62042616  1
  In  In12  1  0.66043805  0.15941521  0.11889222  1
  In  In13  1  0.67613202  0.17526026  0.63073103  1
  In  In14  1  0.68003979  0.50056819  0.12710911  1
  In  In15  1  0.66455067  0.50674923  0.63231586  1
  In  In16  1  0.66663141  0.82992527  0.13046384  1
  In  In17  1  0.65201442  0.81610601  0.59866472  1
  In  In18  1  0.15229739  -0.02169680  0.35788708  1
  In  In19  1  0.18112929  0.00041763  0.87334709  1
  In  In20  1  0.17534786  0.33551940  0.38091973  1
  In  In21  1  0.16342363  0.33414759  0.87440447  1
  In  In22  1  0.16139019  0.67544855  0.38645829  1
  In  In23  1  0.15273785  0.65959371  0.87753670  1
  In  In24  1  0.49293677  -0.00828760  0.37200074  1
  In  In25  1  0.49722429  0.00691243  0.88218088  1
  In  In26  1  0.51025066  0.34730698  0.38098337  1
  In  In27  1  0.49231054  0.32200012  0.86781255  1
  In  In28  1  0.51549670  0.67065415  0.39074059  1
  In  In29  1  0.51658129  0.65908950  0.87634067  1
  In  In30  1  0.82781843  -0.02105568  0.34453061  1
  In  In31  1  0.82863164  -0.00237698  0.88853011  1
  In  In32  1  0.83293673  0.33376625  0.37647709  1
  In  In33  1  0.83595383  0.33595881  0.87648576  1
  In  In34  1  0.84189575  0.68589418  0.34883109  1
  In  In35  1  0.82482453  0.67141482  0.88549910  1
  In  In36  1  -0.00463970  0.15518688  0.36269541  1
  In  In37  1  -0.01325204  0.17519396  0.88690480  1
  In  In38  1  -0.00389651  0.52257961  0.37368459  1
  In  In39  1  0.01001181  0.48878031  0.88595853  1
  In  In40  1  0.00457256  0.83497010  0.36785475  1
  In  In41  1  -0.01053254  0.82383913  0.87773516  1
  In  In42  1  0.33999823  0.16087228  0.37418752  1
  In  In43  1  0.33342520  0.16425326  0.87798085  1
  In  In44  1  0.33236628  0.51272675  0.38970603  1
  In  In45  1  0.32740771  0.48575032  0.86946986  1
  In  In46  1  0.32764896  0.83709927  0.38138137  1
  In  In47  1  0.33501104  0.84937801  0.86927554  1
  In  In48  1  0.67855585  0.14744262  0.36755864  1
  In  In49  1  0.66158751  0.16872070  0.88175694  1
  In  In50  1  0.66488044  0.51228195  0.37960914  1
  In  In51  1  0.67670441  0.50934019  0.87079410  1
  In  In52  1  0.67098508  0.84201957  0.37394892  1
  In  In53  1  0.66763832  0.82786170  0.88303943  1
  In  In54  1  0.16051014  0.00579184  0.12752913  1
  In  In55  1  0.16709544  0.00532443  0.62000021  1
  In  In56  1  0.16781270  0.33392383  0.11447728  1
  In  In57  1  0.16418683  0.34399989  0.64111364  1
  In  In58  1  0.15152141  0.65471048  0.11863899  1
  In  In59  1  0.16100259  0.66537172  0.61640742  1
  In  In60  1  0.50368587  -0.00328041  0.12761397  1
  In  In61  1  0.49596615  -0.01451331  0.62000386  1
  In  In62  1  0.51369746  0.32848368  0.11980115  1
  In  In63  1  0.48935706  0.34166748  0.63723225  1
  In  In64  1  0.49820710  0.68177608  0.12295946  1
  In  In65  1  0.51472562  0.66914253  0.61775931  1
  In  In66  1  0.82677239  -0.00350246  0.13435301  1
  In  In67  1  0.83083960  -0.01227417  0.61632218  1
  In  In68  1  0.83530781  0.33520157  0.11495163  1
  In  In69  1  0.83886634  0.33369091  0.63764147  1
  In  In70  1  0.82882349  0.66693740  0.13662911  1
  In  In71  1  0.81680062  0.66975250  0.62117923  1
  In  In72  1  0.33856099  0.66509133  0.75339235  1
  In  In73  1  0.50107505  0.16954368  0.49507283  1
  In  In74  1  0.66763423  0.32880683  0.25105264  1
  In  In75  1  0.15605510  0.83019764  0.00101920  1
  In  In76  1  0.33603768  0.67352788  0.25275938  1
  In  In77  1  0.66224860  0.00458792  0.74693293  1
  In  In78  1  0.00036213  0.33259918  0.24000500  1
  In  In79  1  0.82910917  0.51143946  0.49440799  1
  In  In80  1  0.00131048  0.00319838  0.74566100  1
  In  In81  1  -0.00447225  0.66062902  0.74515183  1
  In  In82  1  0.16482649  0.16492452  0.50352004  1
  In  In83  1  0.49437313  0.49379835  -0.00673893  1
  In  In84  1  0.33606844  0.32699626  0.24811455  1
  In  In85  1  0.83236801  0.15589397  0.49232162  1
  Cu  Cu86  1  0.17449225  0.82294249  0.25255101  1
  Cu  Cu87  1  -0.00304999  -0.00505126  0.00988328  1
  Cu  Cu88  1  0.50635258  0.83646490  0.25136267  1
  Cu  Cu89  1  0.33322924  0.32874621  -0.00726906  1
  Cu  Cu90  1  0.00431351  0.33173869  0.50468150  1
  Cu  Cu91  1  0.50609140  0.83341606  0.74061903  1
  Cu  Cu92  1  0.00163044  0.33822393  -0.00063921  1
  Cu  Cu93  1  0.16608406  0.17026568  0.75510352  1
  Cu  Cu94  1  0.50956582  0.50175019  0.75144076  1
  Cu  Cu95  1  0.16861558  0.15651109  0.23927601  1
  Cu  Cu96  1  -0.01615566  0.67087330  0.00829781  1
  Cu  Cu97  1  0.66981468  -0.01057703  0.00780322  1
  Cu  Cu98  1  0.33896638  -0.00059046  -0.00067298  1
  Cu  Cu99  1  0.33397067  0.34582599  0.50878955  1
  Cu  Cu100  1  0.34130804  0.66737519  0.50724734  1
  Cu  Cu101  1  0.66990744  0.32863144  -0.00377522  1
  Cu  Cu102  1  0.83677822  0.17238314  0.75532378  1
  Cu  Cu103  1  0.66496437  0.66904438  0.00581883  1
  Cu  Cu104  1  0.32727796  0.00005698  0.49883833  1
  Cu  Cu105  1  0.00189651  0.66442833  0.49156748  1
  Cu  Cu106  1  0.16695785  0.83678356  0.74330329  1
  Cu  Cu107  1  0.50506207  0.15475441  0.24963343  1
  Cu  Cu108  1  0.49681514  0.16479465  0.75804503  1
  Cu  Cu109  1  0.16035283  0.50293990  0.25294821  1
  Cu  Cu110  1  0.32616777  0.67015458  -0.00018269  1
  Cu  Cu111  1  0.83868318  0.49957043  0.75410793  1
  Cu  Cu112  1  0.50118291  0.50800669  0.25918690  1
  Cu  Cu113  1  0.82191376  0.83474932  0.75280817  1
  Cu  Cu114  1  0.66435300  0.34208202  0.50457960  1
  Se  Se115  1  0.08768481  0.08232328  0.05015183  1
  Se  Se116  1  0.06492878  0.07108356  0.55054425  1
  Se  Se117  1  0.08196590  0.42302091  0.05480801  1
  Se  Se118  1  0.08850132  0.41127886  0.55877428  1
  Se  Se119  1  0.06432395  0.75397225  0.06625278  1
  Se  Se120  1  0.08335571  0.74949995  0.54685035  1
  Se  Se121  1  0.42408753  0.07991330  0.05478623  1
  Se  Se122  1  0.40493835  0.08590284  0.55768320  1
  Se  Se123  1  0.40582327  0.40829707  0.06150735  1
  Se  Se124  1  0.42567709  0.42324976  0.55805069  1
  Se  Se125  1  0.41533233  0.75114097  0.04746917  1
  Se  Se126  1  0.42403901  0.75410070  0.55664608  1
  Se  Se127  1  0.75276360  0.07674389  0.05763579  1
  Se  Se128  1  0.73576292  0.07903260  0.55777558  1
  Se  Se129  1  0.74595408  0.41703319  0.05043821  1
  Se  Se130  1  0.75573593  0.41277977  0.56159630  1
  Se  Se131  1  0.74999222  0.74685744  0.06133823  1
  Se  Se132  1  0.77618459  0.77181235  0.54995653  1
  Se  Se133  1  0.25051402  0.24759484  0.04973210  1
  Se  Se134  1  0.25379777  0.25725182  0.56251599  1
  Se  Se135  1  0.24063596  0.58372236  0.04607656  1
  Se  Se136  1  0.25320513  0.58309402  0.55560765  1
  Se  Se137  1  0.25435726  0.91837401  0.05747494  1
  Se  Se138  1  0.24650499  0.91679436  0.55444831  1
  Se  Se139  1  0.58380901  0.24532679  0.04662653  1
  Se  Se140  1  0.58545263  0.25828556  0.56218706  1
  Se  Se141  1  0.57987292  0.58171705  0.05949714  1
  Se  Se142  1  0.60893484  0.59270994  0.55429007  1
  Se  Se143  1  0.58248610  0.90889506  0.05962541  1
  Se  Se144  1  0.58443021  0.92579767  0.54695426  1
  Se  Se145  1  0.91843001  0.25052050  0.04954940  1
  Se  Se146  1  0.91724079  0.25158213  0.55770930  1
  Se  Se147  1  0.90546795  0.58261790  0.06144942  1
  Se  Se148  1  0.92489833  0.59077471  0.56082955  1
  Se  Se149  1  0.91705254  0.91331869  0.06716484  1
  Se  Se150  1  0.91047120  0.91861092  0.54134897  1
  Se  Se151  1  0.07260051  0.24997298  0.43739999  1
  Se  Se152  1  0.08407816  0.25210853  0.94721396  1
  Se  Se153  1  0.08948832  0.57446749  0.44935943  1
  Se  Se154  1  0.07195120  0.59190375  0.95361187  1
  Se  Se155  1  0.09259424  0.90688520  0.44059515  1
  Se  Se156  1  0.07301418  0.92536943  0.93687351  1
  Se  Se157  1  0.40583356  0.26642392  0.44141416  1
  Se  Se158  1  0.42192475  0.24521777  0.94620049  1
  Se  Se159  1  0.42658486  0.58529729  0.45405704  1
  Se  Se160  1  0.40413850  0.58967128  0.93589624  1
  Se  Se161  1  0.41492592  0.91838678  0.44864932  1
  Se  Se162  1  0.41889449  0.91273071  0.94651468  1
  Se  Se163  1  0.73600362  0.25594086  0.44188788  1
  Se  Se164  1  0.75627462  0.24623767  0.94448946  1
  Se  Se165  1  0.75420540  0.60914245  0.43366337  1
  Se  Se166  1  0.74550786  0.58223366  0.95228796  1
  Se  Se167  1  0.76115752  0.92949123  0.43378125  1
  Se  Se168  1  0.75223415  0.90645946  0.95308485  1
  Se  Se169  1  0.24759925  0.07728705  0.43654988  1
  Se  Se170  1  0.25085896  0.08136409  0.94888346  1
  Se  Se171  1  0.24796314  0.42180417  0.45137088  1
  Se  Se172  1  0.24820158  0.41628392  0.94598560  1
  Se  Se173  1  0.25626120  0.74736495  0.45144825  1
  Se  Se174  1  0.25128953  0.74960834  0.93440372  1
  Se  Se175  1  0.58906259  0.07571943  0.43954398  1
  Se  Se176  1  0.59182743  0.07500616  0.94992038  1
  Se  Se177  1  0.58573926  0.42969107  0.45208455  1
  Se  Se178  1  0.58891732  0.40906156  0.93436315  1
  Se  Se179  1  0.58542265  0.77214426  0.44875305  1
  Se  Se180  1  0.57900485  0.74769888  0.95088688  1
  Se  Se181  1  0.91571148  0.06826169  0.42931560  1
  Se  Se182  1  0.91551565  0.07941310  0.95300044  1
  Se  Se183  1  0.92556093  0.41333907  0.44308968  1
  Se  Se184  1  0.91125412  0.42020035  0.95020691  1
  Se  Se185  1  0.92230060  0.74303292  0.43228545  1
  Se  Se186  1  0.90673491  0.75784000  0.95321902  1
  Se  Se187  1  0.23939442  0.23831947  0.30563430  1
  Se  Se188  1  0.25174798  0.24913339  0.80981408  1
  Se  Se189  1  0.24631414  0.58010027  0.31060501  1
  Se  Se190  1  0.23943098  0.57899910  0.80716542  1
  Se  Se191  1  0.25960200  0.91094158  0.29963403  1
  Se  Se192  1  0.25002083  0.92003154  0.79573761  1
  Se  Se193  1  0.57380349  0.24120354  0.31372113  1
  Se  Se194  1  0.58866159  0.24583857  0.80439012  1
  Se  Se195  1  0.58253293  0.59302041  0.30951924  1
  Se  Se196  1  0.59324843  0.58909226  0.79914311  1
  Se  Se197  1  0.58630159  0.92473088  0.30286179  1
  Se  Se198  1  0.57927429  0.91193867  0.80980382  1
  Se  Se199  1  0.90650433  0.24761758  0.30280849  1
  Se  Se200  1  0.92231397  0.25421621  0.80667112  1
  Se  Se201  1  0.90337783  0.56945797  0.29894500  1
  Se  Se202  1  0.91324706  0.58171454  0.81748615  1
  Se  Se203  1  0.93649957  0.91341023  0.28804127  1
  Se  Se204  1  0.90735306  0.91496976  0.80792341  1
  Se  Se205  1  0.08328012  0.07916027  0.29512980  1
  Se  Se206  1  0.08377943  0.08907156  0.81391781  1
  Se  Se207  1  0.08530756  0.41659355  0.31191792  1
  Se  Se208  1  0.08375181  0.42160896  0.80715714  1
  Se  Se209  1  0.08910293  0.74121641  0.30461935  1
  Se  Se210  1  0.08714235  0.75885743  0.80435460  1
  Se  Se211  1  0.41373527  0.07936315  0.30206414  1
  Se  Se212  1  0.41407425  0.07820308  0.80762719  1
  Se  Se213  1  0.41614658  0.42538518  0.31188236  1
  Se  Se214  1  0.42295520  0.41953194  0.80215320  1
  Se  Se215  1  0.42765144  0.75657527  0.31482876  1
  Se  Se216  1  0.43083747  0.75735190  0.80946198  1
  Se  Se217  1  0.76609352  0.09358420  0.29140720  1
  Se  Se218  1  0.75820905  0.08545068  0.81035453  1
  Se  Se219  1  0.75169224  0.42405798  0.31117811  1
  Se  Se220  1  0.75226926  0.41646407  0.80565201  1
  Se  Se221  1  0.75472900  0.77853967  0.29223825  1
  Se  Se222  1  0.74700986  0.74881208  0.80960283  1
  Se  Se223  1  0.26021465  0.07648304  0.19247860  1
  Se  Se224  1  0.23987613  0.08199995  0.69750793  1
  Se  Se225  1  0.24174570  0.42293601  0.19417176  1
  Se  Se226  1  0.26700294  0.40942016  0.70183061  1
  Se  Se227  1  0.24539950  0.74844013  0.18199684  1
  Se  Se228  1  0.24727861  0.75065080  0.68864078  1
  Se  Se229  1  0.59189358  0.07730740  0.19594890  1
  Se  Se230  1  0.56938064  0.09234470  0.68623359  1
  Se  Se231  1  0.57341363  0.42353937  0.19540148  1
  Se  Se232  1  0.59003396  0.41411691  0.69871222  1
  Se  Se233  1  0.58131850  0.74514948  0.19932452  1
  Se  Se234  1  0.59281239  0.75373677  0.68914571  1
  Se  Se235  1  0.91950770  0.08093363  0.19565381  1
  Se  Se236  1  0.90402596  0.08992681  0.68717709  1
  Se  Se237  1  0.90113495  0.42393567  0.19285673  1
  Se  Se238  1  0.92464596  0.41802760  0.70178880  1
  Se  Se239  1  0.93645942  0.72231812  0.20139191  1
  Se  Se240  1  0.90817937  0.76001994  0.69182355  1
  Se  Se241  1  0.08946938  0.23980699  0.18189944  1
  Se  Se242  1  0.08020582  0.24933131  0.69992946  1
  Se  Se243  1  0.07803988  0.58310727  0.19823531  1
  Se  Se244  1  0.09680504  0.57510047  0.69422539  1
  Se  Se245  1  0.09645730  0.90915564  0.19618287  1
  Se  Se246  1  0.07972616  0.90655887  0.68224562  1
  Se  Se247  1  0.42927164  0.24046005  0.18908262  1
  Se  Se248  1  0.41432189  0.24961220  0.70333830  1
  Se  Se249  1  0.42066467  0.57695623  0.19093328  1
  Se  Se250  1  0.42884926  0.58135202  0.68922609  1
  Se  Se251  1  0.41851099  0.91640030  0.19865276  1
  Se  Se252  1  0.41523690  0.91777338  0.69740102  1
  Se  Se253  1  0.75336655  0.24622465  0.18448793  1
  Se  Se254  1  0.74961923  0.25561038  0.70464947  1
  Se  Se255  1  0.73297798  0.59147104  0.20138212  1
  Se  Se256  1  0.75764007  0.58356141  0.69884021  1
  Se  Se257  1  0.75989962  0.89544202  0.20248864  1
  Se  Se258  1  0.74559728  0.90981769  0.68769958  1
