# generated using pymatgen
data_In86Cu29Se144
_symmetry_space_group_name_H-M   'P 1'
_cell_length_a   17.61392567
_cell_length_b   17.60670129
_cell_length_c   23.46108708
_cell_angle_alpha   89.98024875
_cell_angle_beta   89.97886453
_cell_angle_gamma   89.98449282
_symmetry_Int_Tables_number   1
_chemical_formula_structural   In86Cu29Se144
_chemical_formula_sum   'In86 Cu29 Se144'
_cell_volume   7275.82451372
_cell_formula_units_Z   1
loop_
 _symmetry_equiv_pos_site_id
 _symmetry_equiv_pos_as_xyz
  1  'x, y, z'
loop_
 _atom_site_type_symbol
 _atom_site_label
 _atom_site_symmetry_multiplicity
 _atom_site_fract_x
 _atom_site_fract_y
 _atom_site_fract_z
 _atom_site_occupancy
  In  In0  1  -0.02587546  0.18277434  0.14678116  1
  In  In1  1  -0.00642502  0.18396146  0.61774063  1
  In  In2  1  0.00513902  0.48959760  0.13343804  1
  In  In3  1  0.00331860  0.51332138  0.61059128  1
  In  In4  1  0.02033938  0.82873183  0.14627860  1
  In  In5  1  -0.00995737  0.81377961  0.61772600  1
  In  In6  1  0.35965125  0.17555631  0.13258147  1
  In  In7  1  0.33795727  0.15452789  0.62001162  1
  In  In8  1  0.33664141  0.50387960  0.13157551  1
  In  In9  1  0.32768945  0.50851662  0.61995739  1
  In  In10  1  0.33995153  0.80749054  0.13413489  1
  In  In11  1  0.33290108  0.83084028  0.61161501  1
  In  In12  1  0.67292276  0.17462153  0.12859779  1
  In  In13  1  0.66765202  0.16867449  0.62058902  1
  In  In14  1  0.64658568  0.50568478  0.15465125  1
  In  In15  1  0.67296543  0.48934718  0.62961409  1
  In  In16  1  0.65732769  0.82603715  0.12066629  1
  In  In17  1  0.66293345  0.83985442  0.62950263  1
  In  In18  1  0.15361939  0.00043249  0.37384684  1
  In  In19  1  0.16395316  -0.01434845  0.87489043  1
  In  In20  1  0.16906882  0.34693877  0.36884729  1
  In  In21  1  0.17614618  0.33688157  0.88370367  1
  In  In22  1  0.16576096  0.66615399  0.37050085  1
  In  In23  1  0.16169375  0.66578933  0.87370879  1
  In  In24  1  0.49863639  0.00321750  0.37949874  1
  In  In25  1  0.50885149  -0.00527283  0.88283626  1
  In  In26  1  0.49926753  0.32985478  0.36384401  1
  In  In27  1  0.51164106  0.32710935  0.88646723  1
  In  In28  1  0.50542028  0.67164050  0.36098407  1
  In  In29  1  0.50876505  0.65641264  0.88576896  1
  In  In30  1  0.84616450  0.00035198  0.37851561  1
  In  In31  1  0.83254003  0.01615920  0.88008540  1
  In  In32  1  0.82887407  0.33985213  0.36672611  1
  In  In33  1  0.81821221  0.33236398  0.87909615  1
  In  In34  1  0.82425636  0.65052474  0.36016812  1
  In  In35  1  0.83458931  0.66509055  0.86924946  1
  In  In36  1  -0.01708890  0.16834505  0.36228853  1
  In  In37  1  -0.00870473  0.15281289  0.88503766  1
  In  In38  1  -0.00493010  0.50440878  0.36622301  1
  In  In39  1  0.00490008  0.50892022  0.87991859  1
  In  In40  1  0.01168120  0.83421715  0.36639672  1
  In  In41  1  0.01174505  0.82435417  0.87345997  1
  In  In42  1  0.34026658  0.17941276  0.36827027  1
  In  In43  1  0.34180659  0.18508024  0.88294553  1
  In  In44  1  0.33426070  0.48495750  0.36194074  1
  In  In45  1  0.33618280  0.50365400  0.88649414  1
  In  In46  1  0.34280383  0.82640158  0.38100558  1
  In  In47  1  0.33862314  0.84055163  0.87740267  1
  In  In48  1  0.66306831  0.17902296  0.37113386  1
  In  In49  1  0.66702087  0.16836785  0.87872622  1
  In  In50  1  0.67212144  0.51783392  0.35277935  1
  In  In51  1  0.66844832  0.49176892  0.87050854  1
  In  In52  1  0.66072205  0.80835652  0.38218288  1
  In  In53  1  0.65731052  0.82402514  0.86989774  1
  In  In54  1  0.16138616  -0.00762487  0.12943362  1
  In  In55  1  0.17757937  -0.00565673  0.61865292  1
  In  In56  1  0.16066578  0.34428766  0.12670730  1
  In  In57  1  0.15798615  0.34321031  0.61781697  1
  In  In58  1  0.18945455  0.65917572  0.13935377  1
  In  In59  1  0.14798787  0.65228932  0.60717666  1
  In  In60  1  0.51007950  0.00284531  0.11207040  1
  In  In61  1  0.50869326  0.01059293  0.61652372  1
  In  In62  1  0.50425866  0.33513217  0.13570334  1
  In  In63  1  0.52136692  0.33856144  0.62123614  1
  In  In64  1  0.50187256  0.66294086  0.12859819  1
  In  In65  1  0.50063230  0.67639258  0.62302466  1
  In  In66  1  0.83609607  0.01604005  0.12982060  1
  In  In67  1  0.81572181  0.00051832  0.62438353  1
  In  In68  1  0.83479565  0.33211867  0.14150450  1
  In  In69  1  0.82182330  0.32788388  0.61318851  1
  In  In70  1  0.84013922  0.64482981  0.14775936  1
  In  In71  1  0.83852273  0.66110995  0.62554320  1
  In  In72  1  -0.00922969  0.34439539  0.75614368  1
  In  In73  1  0.16742204  0.17443135  0.48596505  1
  In  In74  1  0.66808902  0.00058270  0.24939444  1
  In  In75  1  0.83471573  0.83364763  0.49873551  1
  In  In76  1  0.34184068  0.00059010  0.75472727  1
  In  In77  1  0.82849480  0.49144960  0.01155208  1
  In  In78  1  0.33254413  0.66751766  0.74837314  1
  In  In79  1  0.50007701  0.50199190  0.49489832  1
  In  In80  1  -0.00732554  -0.00875804  0.74934012  1
  In  In81  1  0.32968370  0.00182640  0.24901001  1
  In  In82  1  0.16967029  0.16778185  0.00403855  1
  In  In83  1  0.17171346  0.83121751  0.00149323  1
  In  In84  1  0.83103974  0.83346015  0.01033531  1
  In  In85  1  0.34099660  0.33760880  0.74059628  1
  Cu  Cu86  1  0.15850702  0.81908274  0.74101123  1
  Cu  Cu87  1  0.82928558  0.82934687  0.74759711  1
  Cu  Cu88  1  0.66508953  0.00650269  0.49847346  1
  Cu  Cu89  1  0.50122345  0.83355807  0.24801635  1
  Cu  Cu90  1  0.33523340  0.00182550  0.00104195  1
  Cu  Cu91  1  0.00571582  0.66519997  0.00171159  1
  Cu  Cu92  1  0.82653977  0.16646152  0.74761164  1
  Cu  Cu93  1  0.50088951  0.83516104  0.74824229  1
  Cu  Cu94  1  -0.01173847  0.34435968  0.49221048  1
  Cu  Cu95  1  0.66661143  0.65795609  0.00891548  1
  Cu  Cu96  1  0.34005929  -0.00473887  0.49666603  1
  Cu  Cu97  1  0.00479378  0.00633392  0.49623573  1
  Cu  Cu98  1  0.51243436  0.16817595  0.75136221  1
  Cu  Cu99  1  -0.00706339  0.33035676  0.01099602  1
  Cu  Cu100  1  -0.01060077  0.00542375  0.01163411  1
  Cu  Cu101  1  -0.00346391  0.66583435  0.48759142  1
  Cu  Cu102  1  0.66782738  0.00035621  -0.00102683  1
  Cu  Cu103  1  0.16327052  0.17375852  0.24801895  1
  Cu  Cu104  1  0.16399874  0.50441695  0.25012908  1
  Cu  Cu105  1  0.83727032  0.50141800  0.74746720  1
  Cu  Cu106  1  0.33742694  0.33033770  0.49044053  1
  Cu  Cu107  1  0.32870760  0.66196194  0.49425639  1
  Cu  Cu108  1  0.50647982  0.49849411  0.75647684  1
  Cu  Cu109  1  0.66310796  0.33424377  0.00854906  1
  Cu  Cu110  1  0.16102504  0.17072587  0.75180324  1
  Cu  Cu111  1  0.66862443  0.33437490  0.49088781  1
  Cu  Cu112  1  0.34193695  0.34337555  0.01028494  1
  Cu  Cu113  1  0.83209075  0.83528889  0.25466583  1
  Cu  Cu114  1  0.34124564  0.65986927  0.00842690  1
  Se  Se115  1  0.07774814  0.08418350  0.06483205  1
  Se  Se116  1  0.08438359  0.08689411  0.55885647  1
  Se  Se117  1  0.07938413  0.41901437  0.05263798  1
  Se  Se118  1  0.08014007  0.41911100  0.54504028  1
  Se  Se119  1  0.08235983  0.74496647  0.06294282  1
  Se  Se120  1  0.07803079  0.75110025  0.54307752  1
  Se  Se121  1  0.41601211  0.08756618  0.05393437  1
  Se  Se122  1  0.42019057  0.08557106  0.54613388  1
  Se  Se123  1  0.42544096  0.42242032  0.06571311  1
  Se  Se124  1  0.41134198  0.40873900  0.55931855  1
  Se  Se125  1  0.42405857  0.74940010  0.05548278  1
  Se  Se126  1  0.41510236  0.74280829  0.54791499  1
  Se  Se127  1  0.74578851  0.08172580  0.05799900  1
  Se  Se128  1  0.75252279  0.08763601  0.54995175  1
  Se  Se129  1  0.73636895  0.41203823  0.07434057  1
  Se  Se130  1  0.74637763  0.42074139  0.54768314  1
  Se  Se131  1  0.75492078  0.72988578  0.06785326  1
  Se  Se132  1  0.74529183  0.74806390  0.56094823  1
  Se  Se133  1  0.25977013  0.25587950  0.06481019  1
  Se  Se134  1  0.25678845  0.25600160  0.55759400  1
  Se  Se135  1  0.25030892  0.58115381  0.05780963  1
  Se  Se136  1  0.24520969  0.57607859  0.54505479  1
  Se  Se137  1  0.26067924  0.92038065  0.06258649  1
  Se  Se138  1  0.24914957  0.91475061  0.54440739  1
  Se  Se139  1  0.58051057  0.25078726  0.06268158  1
  Se  Se140  1  0.58690124  0.25144189  0.54808730  1
  Se  Se141  1  0.58877943  0.57471425  0.06572931  1
  Se  Se142  1  0.58706458  0.58236117  0.56310672  1
  Se  Se143  1  0.58635913  0.91047479  0.04711362  1
  Se  Se144  1  0.58760057  0.91784580  0.55313963  1
  Se  Se145  1  0.90731317  0.25210711  0.06277643  1
  Se  Se146  1  0.91185334  0.25289245  0.54373999  1
  Se  Se147  1  0.92356034  0.58724848  0.06102290  1
  Se  Se148  1  0.91060376  0.58821426  0.54500403  1
  Se  Se149  1  0.92582894  0.91382589  0.07187749  1
  Se  Se150  1  0.92328668  0.92855584  0.56030535  1
  Se  Se151  1  0.07111098  0.26265591  0.43347044  1
  Se  Se152  1  0.07256426  0.25626303  0.94424890  1
  Se  Se153  1  0.08139077  0.58070504  0.43774726  1
  Se  Se154  1  0.09140425  0.58388009  0.94987617  1
  Se  Se155  1  0.08063158  0.91555439  0.44613445  1
  Se  Se156  1  0.06809756  0.92548459  0.94965467  1
  Se  Se157  1  0.42492319  0.24977814  0.44197070  1
  Se  Se158  1  0.42164584  0.25481735  0.95743722  1
  Se  Se159  1  0.40705427  0.58332232  0.43255656  1
  Se  Se160  1  0.42546749  0.57673769  0.95481221  1
  Se  Se161  1  0.42659453  0.91141200  0.44754296  1
  Se  Se162  1  0.41825826  0.91607651  0.94910728  1
  Se  Se163  1  0.75448141  0.25192814  0.43971863  1
  Se  Se164  1  0.74585622  0.25133316  0.95233439  1
  Se  Se165  1  0.73720089  0.58862097  0.43547015  1
  Se  Se166  1  0.74982838  0.58623900  0.94476883  1
  Se  Se167  1  0.74005420  0.92030999  0.43752333  1
  Se  Se168  1  0.74750939  0.91752495  0.94070719  1
  Se  Se169  1  0.26120348  0.07818759  0.43510008  1
  Se  Se170  1  0.25435211  0.07506326  0.93688480  1
  Se  Se171  1  0.25466377  0.41729794  0.44266962  1
  Se  Se172  1  0.25394157  0.41781672  0.95385901  1
  Se  Se173  1  0.24707456  0.74864472  0.44266591  1
  Se  Se174  1  0.26393017  0.73863262  0.94254510  1
  Se  Se175  1  0.58710041  0.08875247  0.44067087  1
  Se  Se176  1  0.58300616  0.08662861  0.94872899  1
  Se  Se177  1  0.58660117  0.41396410  0.43222918  1
  Se  Se178  1  0.59030483  0.42101450  0.94865501  1
  Se  Se179  1  0.57232862  0.73325674  0.44753076  1
  Se  Se180  1  0.59168219  0.74468213  0.95009237  1
  Se  Se181  1  0.92130718  0.09047287  0.44631684  1
  Se  Se182  1  0.90617711  0.08795919  0.95986257  1
  Se  Se183  1  0.90766462  0.42647369  0.43664941  1
  Se  Se184  1  0.92008391  0.41033463  0.94267642  1
  Se  Se185  1  0.91504666  0.74686029  0.42954991  1
  Se  Se186  1  0.92267339  0.74533319  0.94521079  1
  Se  Se187  1  0.24585109  0.25213451  0.30448874  1
  Se  Se188  1  0.24797598  0.24764482  0.80651326  1
  Se  Se189  1  0.25220627  0.58138798  0.30381115  1
  Se  Se190  1  0.24863644  0.57383358  0.80905461  1
  Se  Se191  1  0.24966402  0.91398698  0.31494395  1
  Se  Se192  1  0.24064825  0.89986220  0.79957625  1
  Se  Se193  1  0.58398570  0.24993603  0.29345005  1
  Se  Se194  1  0.58738845  0.25440283  0.80851038  1
  Se  Se195  1  0.55795825  0.56710390  0.29473118  1
  Se  Se196  1  0.58686917  0.58535976  0.80825805  1
  Se  Se197  1  0.58062193  0.90909062  0.31157923  1
  Se  Se198  1  0.58102581  0.91864282  0.80509969  1
  Se  Se199  1  0.91563894  0.26324177  0.29667997  1
  Se  Se200  1  0.91082637  0.23849611  0.81191698  1
  Se  Se201  1  0.91438470  0.57934644  0.29139979  1
  Se  Se202  1  0.91985468  0.57822370  0.80628479  1
  Se  Se203  1  0.91748139  0.91689014  0.30556210  1
  Se  Se204  1  0.90573585  0.90545237  0.81559896  1
  Se  Se205  1  0.08476903  0.09138620  0.30475300  1
  Se  Se206  1  0.08723156  0.08518686  0.80976728  1
  Se  Se207  1  0.07957873  0.41797058  0.29936034  1
  Se  Se208  1  0.09463273  0.42146703  0.81235140  1
  Se  Se209  1  0.08424228  0.74498112  0.29897019  1
  Se  Se210  1  0.07972040  0.73966254  0.79941993  1
  Se  Se211  1  0.42718242  0.08984028  0.30247785  1
  Se  Se212  1  0.42580259  0.09752420  0.81346370  1
  Se  Se213  1  0.41030701  0.40076013  0.29065005  1
  Se  Se214  1  0.42219555  0.41903264  0.81363274  1
  Se  Se215  1  0.41238784  0.75408515  0.29954147  1
  Se  Se216  1  0.42421816  0.75372906  0.81037525  1
  Se  Se217  1  0.75659770  0.08478434  0.31260336  1
  Se  Se218  1  0.74813533  0.08471695  0.80653876  1
  Se  Se219  1  0.72376245  0.39802913  0.30008373  1
  Se  Se220  1  0.75644048  0.41516919  0.80117355  1
  Se  Se221  1  0.74521158  0.75212958  0.30283427  1
  Se  Se222  1  0.74781525  0.74647896  0.80423076  1
  Se  Se223  1  0.24588533  0.09749140  0.18597032  1
  Se  Se224  1  0.24260436  0.08854160  0.69548501  1
  Se  Se225  1  0.24670701  0.42060359  0.19564944  1
  Se  Se226  1  0.24029621  0.42573094  0.69130936  1
  Se  Se227  1  0.22091295  0.78317737  0.19367430  1
  Se  Se228  1  0.24352440  0.74701170  0.68023906  1
  Se  Se229  1  0.57483325  0.08786675  0.19102442  1
  Se  Se230  1  0.58718080  0.08409804  0.69211384  1
  Se  Se231  1  0.61309379  0.37721148  0.20733965  1
  Se  Se232  1  0.58708050  0.41261449  0.70187997  1
  Se  Se233  1  0.58589690  0.74879164  0.19697312  1
  Se  Se234  1  0.58267623  0.74978653  0.69616300  1
  Se  Se235  1  0.93085824  0.06587765  0.20417575  1
  Se  Se236  1  0.91423958  0.09271442  0.68896406  1
  Se  Se237  1  0.89645495  0.44170427  0.19824686  1
  Se  Se238  1  0.91124491  0.42180144  0.68137887  1
  Se  Se239  1  0.91487200  0.75300486  0.19889581  1
  Se  Se240  1  0.91627376  0.74662811  0.69767795  1
  Se  Se241  1  0.08053790  0.26004113  0.19656089  1
  Se  Se242  1  0.08500119  0.25222123  0.69367617  1
  Se  Se243  1  0.08298882  0.58731074  0.19451637  1
  Se  Se244  1  0.08367017  0.57882361  0.68819145  1
  Se  Se245  1  0.08315924  0.93150467  0.20900898  1
  Se  Se246  1  0.08547895  0.90939852  0.68481562  1
  Se  Se247  1  0.40511438  0.27338030  0.20652389  1
  Se  Se248  1  0.42848196  0.23895344  0.68685423  1
  Se  Se249  1  0.39136904  0.61401305  0.19269780  1
  Se  Se250  1  0.42630018  0.57310139  0.69221141  1
  Se  Se251  1  0.42508184  0.91601937  0.18601428  1
  Se  Se252  1  0.42067464  0.91173273  0.68653575  1
  Se  Se253  1  0.77949288  0.21688659  0.19794237  1
  Se  Se254  1  0.74965214  0.25193693  0.69127186  1
  Se  Se255  1  0.73570319  0.59110906  0.21304677  1
  Se  Se256  1  0.75171291  0.58193188  0.69385197  1
  Se  Se257  1  0.75436672  0.90795199  0.18660799  1
  Se  Se258  1  0.74794208  0.91909902  0.70013804  1
