# generated using pymatgen
data_In86Cu29Se144
_symmetry_space_group_name_H-M   'P 1'
_cell_length_a   17.56842246
_cell_length_b   17.57235986
_cell_length_c   23.42897813
_cell_angle_alpha   90.03562730
_cell_angle_beta   89.99441036
_cell_angle_gamma   89.98400332
_symmetry_Int_Tables_number   1
_chemical_formula_structural   In86Cu29Se144
_chemical_formula_sum   'In86 Cu29 Se144'
_cell_volume   7232.96058712
_cell_formula_units_Z   1
loop_
 _symmetry_equiv_pos_site_id
 _symmetry_equiv_pos_as_xyz
  1  'x, y, z'
loop_
 _atom_site_type_symbol
 _atom_site_label
 _atom_site_symmetry_multiplicity
 _atom_site_fract_x
 _atom_site_fract_y
 _atom_site_fract_z
 _atom_site_occupancy
  In  In0  1  0.00778135  0.17626352  0.11598992  1
  In  In1  1  -0.00274482  0.16654440  0.62830273  1
  In  In2  1  -0.01013275  0.50972346  0.13456341  1
  In  In3  1  0.00762674  0.50924883  0.61702359  1
  In  In4  1  -0.01866622  0.83259910  0.12790989  1
  In  In5  1  -0.01862435  0.82609621  0.62403157  1
  In  In6  1  0.34551351  0.17683756  0.11316453  1
  In  In7  1  0.35456400  0.16814765  0.64271211  1
  In  In8  1  0.31979871  0.49324588  0.12460635  1
  In  In9  1  0.34230374  0.50010774  0.62729899  1
  In  In10  1  0.34041134  0.83763690  0.12248282  1
  In  In11  1  0.34645748  0.81950112  0.63794425  1
  In  In12  1  0.66145167  0.16573163  0.12335616  1
  In  In13  1  0.63340164  0.20964275  0.67851970  1
  In  In14  1  0.66263576  0.48715676  0.12365831  1
  In  In15  1  0.64917586  0.49165631  0.60285627  1
  In  In16  1  0.68334010  0.83485241  0.12650057  1
  In  In17  1  0.67716265  0.83389644  0.61545404  1
  In  In18  1  0.17550299  -0.00313015  0.37800755  1
  In  In19  1  0.18182305  0.00635388  0.86848171  1
  In  In20  1  0.17155021  0.34156990  0.37248353  1
  In  In21  1  0.17245353  0.32643901  0.87857813  1
  In  In22  1  0.15100354  0.65308192  0.37123794  1
  In  In23  1  0.16904611  0.67963411  0.85812229  1
  In  In24  1  0.51520039  -0.00525590  0.38690049  1
  In  In25  1  0.52448628  0.02512559  0.84524280  1
  In  In26  1  0.50074288  0.32411164  0.37895274  1
  In  In27  1  0.48638494  0.31236283  0.85152275  1
  In  In28  1  0.51202451  0.66365223  0.39727877  1
  In  In29  1  0.50204527  0.67480746  0.86358397  1
  In  In30  1  0.81703937  0.01144208  0.37674985  1
  In  In31  1  0.81913235  0.01118979  0.87917600  1
  In  In32  1  0.83792685  0.33938183  0.36708803  1
  In  In33  1  0.82816300  0.33667718  0.87647997  1
  In  In34  1  0.83587484  0.65502975  0.39066157  1
  In  In35  1  0.83713713  0.65310555  0.88256377  1
  In  In36  1  -0.01547095  0.16937323  0.36898987  1
  In  In37  1  -0.00160567  0.17166284  0.88745827  1
  In  In38  1  -0.00273519  0.49920206  0.37667946  1
  In  In39  1  -0.01187646  0.50395472  0.87485975  1
  In  In40  1  0.00044417  0.81206260  0.37208156  1
  In  In41  1  -0.00196498  0.81823919  0.87167697  1
  In  In42  1  0.33884236  0.18555555  0.37880831  1
  In  In43  1  0.33694061  0.16566763  0.87109186  1
  In  In44  1  0.34962708  0.46487563  0.40266905  1
  In  In45  1  0.34667008  0.49551565  0.85371579  1
  In  In46  1  0.34470845  0.83841286  0.38449558  1
  In  In47  1  0.33491110  0.85038887  0.85190855  1
  In  In48  1  0.66031987  0.16028109  0.36801946  1
  In  In49  1  0.67336721  0.16440716  0.87155743  1
  In  In50  1  0.67178584  0.49241552  0.38304924  1
  In  In51  1  0.67291137  0.49394081  0.86964229  1
  In  In52  1  0.66593010  0.83940302  0.38897064  1
  In  In53  1  0.66961467  0.83671552  0.87617774  1
  In  In54  1  0.15459460  0.00299858  0.11803767  1
  In  In55  1  0.17744701  0.00789044  0.62947456  1
  In  In56  1  0.17451447  0.32374242  0.13005990  1
  In  In57  1  0.17709381  0.35101424  0.61652129  1
  In  In58  1  0.15952208  0.64623214  0.12528921  1
  In  In59  1  0.18077442  0.65611670  0.64155577  1
  In  In60  1  0.49581282  0.01565633  0.12470241  1
  In  In61  1  0.51438768  0.01152210  0.63610221  1
  In  In62  1  0.51090421  0.32338241  0.13634930  1
  In  In63  1  0.49909672  0.34286654  0.62632777  1
  In  In64  1  0.50534871  0.66322625  0.12609816  1
  In  In65  1  0.49170003  0.65105261  0.60885378  1
  In  In66  1  0.82075883  -0.00959018  0.11872812  1
  In  In67  1  0.82706544  -0.00542716  0.62801288  1
  In  In68  1  0.82805962  0.33657703  0.12255959  1
  In  In69  1  0.80431018  0.34104898  0.63207591  1
  In  In70  1  0.83694917  0.67814953  0.11751222  1
  In  In71  1  0.82979374  0.67251935  0.61813724  1
  In  In72  1  0.33278524  0.00556663  0.25279778  1
  In  In73  1  0.67325989  0.66072692  0.25908089  1
  In  In74  1  0.33004601  0.65633723  0.26434331  1
  In  In75  1  0.17134679  0.17306072  0.50542828  1
  In  In76  1  0.16231127  0.83934185  -0.00969886  1
  In  In77  1  0.66129042  0.65795744  0.74122073  1
  In  In78  1  0.00056719  0.33753567  0.75517120  1
  In  In79  1  0.16180279  0.49488311  -0.00542183  1
  In  In80  1  0.51088461  0.49224080  -0.00390921  1
  In  In81  1  0.17209826  0.82621141  0.50606181  1
  In  In82  1  0.82406883  0.16853894  0.50774562  1
  In  In83  1  -0.00889524  0.00387144  0.24461223  1
  In  In84  1  0.00068110  -0.00668886  0.75463405  1
  In  In85  1  0.50761813  0.84188232  -0.01905480  1
  Cu  Cu86  1  0.33512572  0.01354374  -0.01033225  1
  Cu  Cu87  1  0.83318416  0.50144909  0.25303377  1
  Cu  Cu88  1  0.65803972  0.00308156  -0.00487488  1
  Cu  Cu89  1  0.17136993  0.17598008  0.74893229  1
  Cu  Cu90  1  0.34922228  0.00482579  0.51111004  1
  Cu  Cu91  1  -0.00318208  -0.01232509  0.50276319  1
  Cu  Cu92  1  0.16950837  0.50465688  0.74497427  1
  Cu  Cu93  1  0.82659826  0.17545002  0.24410294  1
  Cu  Cu94  1  0.51265531  0.83625826  0.26312091  1
  Cu  Cu95  1  0.66123698  0.32406359  0.50657906  1
  Cu  Cu96  1  -0.00284117  0.33892735  0.00246784  1
  Cu  Cu97  1  0.16749520  0.16793142  0.24814547  1
  Cu  Cu98  1  0.49052028  0.49174423  0.25835529  1
  Cu  Cu99  1  0.34364298  0.33121676  -0.00396615  1
  Cu  Cu100  1  0.16382312  0.49119888  0.25259179  1
  Cu  Cu101  1  0.49583441  0.82653684  0.74032077  1
  Cu  Cu102  1  0.50071763  0.17013827  0.24918805  1
  Cu  Cu103  1  -0.00735370  0.33464963  0.49512342  1
  Cu  Cu104  1  0.83166866  0.82508220  0.74801054  1
  Cu  Cu105  1  0.34263304  0.67203232  -0.01206167  1
  Cu  Cu106  1  0.66448245  0.01038205  0.50699270  1
  Cu  Cu107  1  0.66229151  0.32501299  -0.00259449  1
  Cu  Cu108  1  -0.00044014  0.67093693  -0.00035818  1
  Cu  Cu109  1  -0.00488263  0.00470468  -0.00031565  1
  Cu  Cu110  1  0.83554075  0.50491080  0.74782805  1
  Cu  Cu111  1  0.00028845  0.66382032  0.50125223  1
  Cu  Cu112  1  0.32492713  0.66009679  0.50725723  1
  Cu  Cu113  1  0.83541841  0.83085620  0.25171985  1
  Cu  Cu114  1  0.16729316  0.81598088  0.24673234  1
  Se  Se115  1  0.08481641  0.08798934  0.04590846  1
  Se  Se116  1  0.07593494  0.07337033  0.55764944  1
  Se  Se117  1  0.07823526  0.41523529  0.06523180  1
  Se  Se118  1  0.07893676  0.41466256  0.54958676  1
  Se  Se119  1  0.08320128  0.74785714  0.06104053  1
  Se  Se120  1  0.08116695  0.73910856  0.56533243  1
  Se  Se121  1  0.42275054  0.08825354  0.04555732  1
  Se  Se122  1  0.42711538  0.09010686  0.56576270  1
  Se  Se123  1  0.41602666  0.41217332  0.06196490  1
  Se  Se124  1  0.42986840  0.43136305  0.55438180  1
  Se  Se125  1  0.42066484  0.74739581  0.05261872  1
  Se  Se126  1  0.40896372  0.75080123  0.55221129  1
  Se  Se127  1  0.74247086  0.08105608  0.05379050  1
  Se  Se128  1  0.73655021  0.08886930  0.57282363  1
  Se  Se129  1  0.74278289  0.41329448  0.04932783  1
  Se  Se130  1  0.75229710  0.41455683  0.54528601  1
  Se  Se131  1  0.74521614  0.75037192  0.05139007  1
  Se  Se132  1  0.75658814  0.75447199  0.54468270  1
  Se  Se133  1  0.25188730  0.25619872  0.04986363  1
  Se  Se134  1  0.26708099  0.25119909  0.56655792  1
  Se  Se135  1  0.25939239  0.59216781  0.04868906  1
  Se  Se136  1  0.24432191  0.57747975  0.56146117  1
  Se  Se137  1  0.26007867  0.92799040  0.05155599  1
  Se  Se138  1  0.26206342  0.92046492  0.56250699  1
  Se  Se139  1  0.57602725  0.24893354  0.05427552  1
  Se  Se140  1  0.59071857  0.24542575  0.57381081  1
  Se  Se141  1  0.59432930  0.59016470  0.05546950  1
  Se  Se142  1  0.60276942  0.60633257  0.54291300  1
  Se  Se143  1  0.58314309  0.92101800  0.06102319  1
  Se  Se144  1  0.58451189  0.92491808  0.56127140  1
  Se  Se145  1  0.91351120  0.25390228  0.05364769  1
  Se  Se146  1  0.91793099  0.26095523  0.56367656  1
  Se  Se147  1  0.92044446  0.58581189  0.05515620  1
  Se  Se148  1  0.91194206  0.58222811  0.55218426  1
  Se  Se149  1  0.91646239  0.91698921  0.05260096  1
  Se  Se150  1  0.90666331  0.91347011  0.55462184  1
  Se  Se151  1  0.07177394  0.24802008  0.43989449  1
  Se  Se152  1  0.08481390  0.25780843  0.95060926  1
  Se  Se153  1  0.08221216  0.57707488  0.44968046  1
  Se  Se154  1  0.08270253  0.59681428  0.93626047  1
  Se  Se155  1  0.08028003  0.91451371  0.44148884  1
  Se  Se156  1  0.07149494  0.92987362  0.93164379  1
  Se  Se157  1  0.41768630  0.25228514  0.45418416  1
  Se  Se158  1  0.42318912  0.24845259  0.93949020  1
  Se  Se159  1  0.41292880  0.58174840  0.45233793  1
  Se  Se160  1  0.41803234  0.58282602  0.93393081  1
  Se  Se161  1  0.42460783  0.91844804  0.45428785  1
  Se  Se162  1  0.41138831  0.93015816  0.92834734  1
  Se  Se163  1  0.74476145  0.25411928  0.43729493  1
  Se  Se164  1  0.75171798  0.24660616  0.94425218  1
  Se  Se165  1  0.72155993  0.60173060  0.44735051  1
  Se  Se166  1  0.74888488  0.57005787  0.94383434  1
  Se  Se167  1  0.75041910  0.92895409  0.45264310  1
  Se  Se168  1  0.74674454  0.91792933  0.94834724  1
  Se  Se169  1  0.26260393  0.07579792  0.44752206  1
  Se  Se170  1  0.24395840  0.09472970  0.94329211  1
  Se  Se171  1  0.23698650  0.40611753  0.45754634  1
  Se  Se172  1  0.26897874  0.41885856  0.93801867  1
  Se  Se173  1  0.25341492  0.73682832  0.43630969  1
  Se  Se174  1  0.26041452  0.75400699  0.93251380  1
  Se  Se175  1  0.58506211  0.09521107  0.45026458  1
  Se  Se176  1  0.57908940  0.08478999  0.93733328  1
  Se  Se177  1  0.58470388  0.40892201  0.44744773  1
  Se  Se178  1  0.58393720  0.39731966  0.93011219  1
  Se  Se179  1  0.56248264  0.77826094  0.45250037  1
  Se  Se180  1  0.59528565  0.73367612  0.94025872  1
  Se  Se181  1  0.92138714  0.07789557  0.44621731  1
  Se  Se182  1  0.90852875  0.08708701  0.94798943  1
  Se  Se183  1  0.90805728  0.41870377  0.44439417  1
  Se  Se184  1  0.91544499  0.41794925  0.94491825  1
  Se  Se185  1  0.91831988  0.75123371  0.45052441  1
  Se  Se186  1  0.91303700  0.75097571  0.94659756  1
  Se  Se187  1  0.24751858  0.24883126  0.30590097  1
  Se  Se188  1  0.25480394  0.25648805  0.80439486  1
  Se  Se189  1  0.24809558  0.55871374  0.32026446  1
  Se  Se190  1  0.25420041  0.58596218  0.79979690  1
  Se  Se191  1  0.24575641  0.89914839  0.30669153  1
  Se  Se192  1  0.22535011  0.90924749  0.79380693  1
  Se  Se193  1  0.58456883  0.25342699  0.30240636  1
  Se  Se194  1  0.60205692  0.25396841  0.79815533  1
  Se  Se195  1  0.57121177  0.57701236  0.31394285  1
  Se  Se196  1  0.57287426  0.56898195  0.80295527  1
  Se  Se197  1  0.59613176  0.92255735  0.31073823  1
  Se  Se198  1  0.57727908  0.89852102  0.80373104  1
  Se  Se199  1  0.91562703  0.25364363  0.29585093  1
  Se  Se200  1  0.91413549  0.24185458  0.81063896  1
  Se  Se201  1  0.91109017  0.58566409  0.31061581  1
  Se  Se202  1  0.91706244  0.58819557  0.80141757  1
  Se  Se203  1  0.91296996  0.91408347  0.31460337  1
  Se  Se204  1  0.90172716  0.90934052  0.81288903  1
  Se  Se205  1  0.08997297  0.08492670  0.30900543  1
  Se  Se206  1  0.08583608  0.09913359  0.80758370  1
  Se  Se207  1  0.07524321  0.41214951  0.30672445  1
  Se  Se208  1  0.09479830  0.42832944  0.81386577  1
  Se  Se209  1  0.07921496  0.73707656  0.29713235  1
  Se  Se210  1  0.07710457  0.75430052  0.79377266  1
  Se  Se211  1  0.42472249  0.08870168  0.31481100  1
  Se  Se212  1  0.39995801  0.07020810  0.80034876  1
  Se  Se213  1  0.41032097  0.40773834  0.31173181  1
  Se  Se214  1  0.41895319  0.40830223  0.78408424  1
  Se  Se215  1  0.42871117  0.75081115  0.31522858  1
  Se  Se216  1  0.41090710  0.74662275  0.79568428  1
  Se  Se217  1  0.74923919  0.08613866  0.29705341  1
  Se  Se218  1  0.72998727  0.06218868  0.80017711  1
  Se  Se219  1  0.74518327  0.41978808  0.30357705  1
  Se  Se220  1  0.75647662  0.41570681  0.79855203  1
  Se  Se221  1  0.75796650  0.75585097  0.31855401  1
  Se  Se222  1  0.75090909  0.74300531  0.80834754  1
  Se  Se223  1  0.24507875  0.08804793  0.18475579  1
  Se  Se224  1  0.25462885  0.08798573  0.70049873  1
  Se  Se225  1  0.25160958  0.41176934  0.19973024  1
  Se  Se226  1  0.25239570  0.41892593  0.69559492  1
  Se  Se227  1  0.25468193  0.74393178  0.18667634  1
  Se  Se228  1  0.23802946  0.76600863  0.69921972  1
  Se  Se229  1  0.58233654  0.08310440  0.19757677  1
  Se  Se230  1  0.60437654  0.07140241  0.71281605  1
  Se  Se231  1  0.58151764  0.42040010  0.20147786  1
  Se  Se232  1  0.60421736  0.41258275  0.68768465  1
  Se  Se233  1  0.58318031  0.75361317  0.19722250  1
  Se  Se234  1  0.57808471  0.75036950  0.67916623  1
  Se  Se235  1  0.90635899  0.09300808  0.18209873  1
  Se  Se236  1  0.91114242  0.08616607  0.69660888  1
  Se  Se237  1  0.91090970  0.41572169  0.19565617  1
  Se  Se238  1  0.91550893  0.42160833  0.68695560  1
  Se  Se239  1  0.91454792  0.74294834  0.19993857  1
  Se  Se240  1  0.91279989  0.73889337  0.69714219  1
  Se  Se241  1  0.08052930  0.24925852  0.19604877  1
  Se  Se242  1  0.09183005  0.25377217  0.68774660  1
  Se  Se243  1  0.08243198  0.58106526  0.20457983  1
  Se  Se244  1  0.07542159  0.58281853  0.69871904  1
  Se  Se245  1  0.08937494  0.90661109  0.19202342  1
  Se  Se246  1  0.08089300  0.91442769  0.68139248  1
  Se  Se247  1  0.41018243  0.24850914  0.19719979  1
  Se  Se248  1  0.41733851  0.27222358  0.70588857  1
  Se  Se249  1  0.41862487  0.57451953  0.19266885  1
  Se  Se250  1  0.41651711  0.59504992  0.69262587  1
  Se  Se251  1  0.42877537  0.90959027  0.19813678  1
  Se  Se252  1  0.41900740  0.92396096  0.69518154  1
  Se  Se253  1  0.74119625  0.25541885  0.19044500  1
  Se  Se254  1  0.77638726  0.23501010  0.70204402  1
  Se  Se255  1  0.75460666  0.57872299  0.18776787  1
  Se  Se256  1  0.75220338  0.57116262  0.68110659  1
  Se  Se257  1  0.75303156  0.91757539  0.20157758  1
  Se  Se258  1  0.74762507  0.90802811  0.69667486  1
