# generated using pymatgen
data_In86Cu29Se144
_symmetry_space_group_name_H-M   'P 1'
_cell_length_a   17.58886838
_cell_length_b   17.59146626
_cell_length_c   23.45497437
_cell_angle_alpha   89.98324001
_cell_angle_beta   90.00722957
_cell_angle_gamma   89.98873093
_symmetry_Int_Tables_number   1
_chemical_formula_structural   In86Cu29Se144
_chemical_formula_sum   'In86 Cu29 Se144'
_cell_volume   7257.29656693
_cell_formula_units_Z   1
loop_
 _symmetry_equiv_pos_site_id
 _symmetry_equiv_pos_as_xyz
  1  'x, y, z'
loop_
 _atom_site_type_symbol
 _atom_site_label
 _atom_site_symmetry_multiplicity
 _atom_site_fract_x
 _atom_site_fract_y
 _atom_site_fract_z
 _atom_site_occupancy
  In  In0  1  0.01913507  0.16984647  0.11745414  1
  In  In1  1  0.00406671  0.17113086  0.62862003  1
  In  In2  1  -0.00181295  0.48993037  0.12554253  1
  In  In3  1  0.00713381  0.48372061  0.62829442  1
  In  In4  1  0.02370053  0.82375598  0.12984653  1
  In  In5  1  0.01750941  0.85161833  0.61594448  1
  In  In6  1  0.33077752  0.18820324  0.12211451  1
  In  In7  1  0.31825000  0.17380510  0.63325824  1
  In  In8  1  0.33250135  0.50209969  0.13064658  1
  In  In9  1  0.33341668  0.49928591  0.62118613  1
  In  In10  1  0.31134931  0.82768375  0.12824530  1
  In  In11  1  0.34471105  0.85026648  0.60941055  1
  In  In12  1  0.67678241  0.17993291  0.11942169  1
  In  In13  1  0.67177203  0.15780869  0.62976515  1
  In  In14  1  0.65111605  0.48985056  0.12227859  1
  In  In15  1  0.65498591  0.50736536  0.63776105  1
  In  In16  1  0.66994297  0.82733287  0.12774213  1
  In  In17  1  0.66438925  0.83482489  0.62157443  1
  In  In18  1  0.17750600  0.00234809  0.39118885  1
  In  In19  1  0.16619971  0.00194027  0.86852670  1
  In  In20  1  0.17102523  0.33340624  0.37301155  1
  In  In21  1  0.17241895  0.33413456  0.86738185  1
  In  In22  1  0.16984482  0.66110531  0.37936016  1
  In  In23  1  0.17290113  0.65910846  0.88793149  1
  In  In24  1  0.48447593  -0.01424775  0.38647265  1
  In  In25  1  0.50103842  0.00278477  0.85767237  1
  In  In26  1  0.50663782  0.34088134  0.36965570  1
  In  In27  1  0.48954065  0.33642834  0.86818991  1
  In  In28  1  0.49379024  0.66593706  0.37907984  1
  In  In29  1  0.49804205  0.64127233  0.86882717  1
  In  In30  1  0.83884437  0.00035658  0.39163479  1
  In  In31  1  0.84466541  0.00815309  0.85931615  1
  In  In32  1  0.83354426  0.32552108  0.37878595  1
  In  In33  1  0.82736268  0.32919883  0.87124524  1
  In  In34  1  0.84063632  0.67497723  0.37951749  1
  In  In35  1  0.83001652  0.67481153  0.87099578  1
  In  In36  1  0.00139487  0.17038519  0.38121842  1
  In  In37  1  0.04038338  0.19272833  0.83532812  1
  In  In38  1  0.01620071  0.49775457  0.37473257  1
  In  In39  1  0.02217157  0.49905083  0.87648444  1
  In  In40  1  0.00300499  0.83086533  0.38814982  1
  In  In41  1  0.00568113  0.83820839  0.87025761  1
  In  In42  1  0.32071847  0.17019033  0.38182390  1
  In  In43  1  0.32566215  0.16571965  0.86560364  1
  In  In44  1  0.33400589  0.49453098  0.37223509  1
  In  In45  1  0.33996193  0.48950777  0.88720207  1
  In  In46  1  0.33801086  0.82937832  0.38589233  1
  In  In47  1  0.32286960  0.83472275  0.87263953  1
  In  In48  1  0.66757800  0.18349662  0.38594023  1
  In  In49  1  0.66550358  0.16637945  0.86064412  1
  In  In50  1  0.66323155  0.48786815  0.37523689  1
  In  In51  1  0.64205354  0.48041139  0.85385397  1
  In  In52  1  0.66183795  0.83327743  0.38711330  1
  In  In53  1  0.67189648  0.83085105  0.85662013  1
  In  In54  1  0.16559886  -0.00172117  0.11777927  1
  In  In55  1  0.16886470  0.00594316  0.63512864  1
  In  In56  1  0.16762782  0.33102712  0.12315950  1
  In  In57  1  0.16769104  0.33012508  0.62572455  1
  In  In58  1  0.17965220  0.67952137  0.11753365  1
  In  In59  1  0.17377125  0.67057249  0.61742233  1
  In  In60  1  0.49935295  -0.00850505  0.12296498  1
  In  In61  1  0.50629194  -0.00493646  0.63232932  1
  In  In62  1  0.47230348  0.37030844  0.16171934  1
  In  In63  1  0.49221920  0.34540946  0.63201740  1
  In  In64  1  0.48725966  0.62969429  0.12082718  1
  In  In65  1  0.49842777  0.66638827  0.61987865  1
  In  In66  1  0.83753732  0.00374446  0.12157925  1
  In  In67  1  0.83469040  0.00233175  0.62026001  1
  In  In68  1  0.83038585  0.33735851  0.13270341  1
  In  In69  1  0.83914140  0.32230903  0.63093661  1
  In  In70  1  0.83919863  0.66871349  0.12727848  1
  In  In71  1  0.82065133  0.66900647  0.62328213  1
  In  In72  1  0.84810428  0.83414283  -0.00762416  1
  In  In73  1  0.49193040  0.17907604  -0.00385055  1
  In  In74  1  0.33115362  0.00634533  0.26295666  1
  In  In75  1  0.49727788  0.16402873  0.51023008  1
  In  In76  1  0.65924403  0.01286508  0.26556454  1
  In  In77  1  0.00321993  0.01073428  0.24526246  1
  In  In78  1  -0.00343847  0.66813880  0.75209035  1
  In  In79  1  0.49461925  0.82321878  -0.01114516  1
  In  In80  1  0.33628357  0.66652943  0.74610048  1
  In  In81  1  0.00678382  0.66452790  0.25571278  1
  In  In82  1  0.83024698  0.50057589  0.50048867  1
  In  In83  1  0.83936903  0.16399993  -0.01314082  1
  In  In84  1  0.84061948  0.50619327  -0.00053407  1
  In  In85  1  0.66007813  0.66225883  0.25456661  1
  Cu  Cu86  1  0.50981299  0.17006563  0.25299444  1
  Cu  Cu87  1  0.01078589  0.32881847  0.50306120  1
  Cu  Cu88  1  0.49550559  0.17109349  0.74354719  1
  Cu  Cu89  1  0.83407289  0.49451875  0.74739880  1
  Cu  Cu90  1  0.16729315  0.49587927  0.24881322  1
  Cu  Cu91  1  0.83295592  0.84764374  0.25443052  1
  Cu  Cu92  1  0.83374297  0.18118554  0.25572808  1
  Cu  Cu93  1  0.00473072  0.32504537  -0.00580718  1
  Cu  Cu94  1  0.66921066  0.65865279  -0.00650909  1
  Cu  Cu95  1  0.32963321  0.65908089  0.49689419  1
  Cu  Cu96  1  0.64993743  0.34019608  -0.00304067  1
  Cu  Cu97  1  0.66411197  -0.00559374  -0.01304580  1
  Cu  Cu98  1  0.49949837  0.82992899  0.74089634  1
  Cu  Cu99  1  0.16981223  0.83801970  0.74755127  1
  Cu  Cu100  1  0.00076790  0.00924804  0.50761955  1
  Cu  Cu101  1  -0.00353690  0.66618530  0.50254098  1
  Cu  Cu102  1  0.83281727  0.83364347  0.73780782  1
  Cu  Cu103  1  0.66809868  0.33858176  0.50479172  1
  Cu  Cu104  1  0.01150799  -0.00498169  -0.00898170  1
  Cu  Cu105  1  0.48701136  0.82161348  0.25240479  1
  Cu  Cu106  1  0.17217479  0.49602274  0.74858358  1
  Cu  Cu107  1  0.16931897  0.17205929  0.24928045  1
  Cu  Cu108  1  0.33595392  0.66487558  0.00336082  1
  Cu  Cu109  1  0.66538982  -0.00137537  0.50650571  1
  Cu  Cu110  1  0.82806934  0.49352299  0.25101458  1
  Cu  Cu111  1  0.33268402  0.33682002  0.50269492  1
  Cu  Cu112  1  0.82953964  0.16136411  0.74486902  1
  Cu  Cu113  1  0.65816097  0.66855422  0.50447375  1
  Cu  Cu114  1  0.32647826  0.00584681  -0.00418745  1
  Se  Se115  1  0.08898660  0.08242518  0.04658595  1
  Se  Se116  1  0.08818352  0.08719091  0.56121076  1
  Se  Se117  1  0.07762925  0.41013188  0.05421510  1
  Se  Se118  1  0.09073667  0.41775955  0.55300839  1
  Se  Se119  1  0.08809962  0.75282694  0.04967325  1
  Se  Se120  1  0.08303688  0.74878768  0.55285548  1
  Se  Se121  1  0.41099662  0.07844920  0.05866343  1
  Se  Se122  1  0.40804420  0.07925929  0.57123645  1
  Se  Se123  1  0.41983342  0.41635637  0.06646164  1
  Se  Se124  1  0.42014274  0.41872720  0.55207967  1
  Se  Se125  1  0.41588925  0.74624977  0.06526324  1
  Se  Se126  1  0.41137607  0.74331214  0.55146106  1
  Se  Se127  1  0.74264733  0.07467077  0.04952942  1
  Se  Se128  1  0.74955419  0.08709232  0.55217699  1
  Se  Se129  1  0.74601374  0.40945425  0.05292046  1
  Se  Se130  1  0.74653999  0.41676376  0.56767370  1
  Se  Se131  1  0.74759044  0.74255039  0.05212764  1
  Se  Se132  1  0.74767140  0.75168557  0.55063797  1
  Se  Se133  1  0.23551889  0.24029429  0.05098717  1
  Se  Se134  1  0.25027148  0.25061853  0.55301042  1
  Se  Se135  1  0.25293890  0.58170593  0.05643836  1
  Se  Se136  1  0.24695823  0.57719540  0.55194851  1
  Se  Se137  1  0.25228668  0.91625380  0.05143709  1
  Se  Se138  1  0.22195241  0.90159473  0.56579057  1
  Se  Se139  1  0.57849134  0.26178280  0.06266456  1
  Se  Se140  1  0.58887186  0.25702579  0.56550383  1
  Se  Se141  1  0.58554423  0.57763760  0.04812783  1
  Se  Se142  1  0.58310784  0.57727861  0.55574397  1
  Se  Se143  1  0.59173385  0.91331148  0.05125942  1
  Se  Se144  1  0.57644757  0.91630202  0.55392826  1
  Se  Se145  1  0.91648649  0.25481100  0.05749925  1
  Se  Se146  1  0.92099445  0.25169565  0.55540355  1
  Se  Se147  1  0.93110157  0.59679281  0.05889152  1
  Se  Se148  1  0.92259969  0.58385017  0.56447243  1
  Se  Se149  1  0.93342923  0.92283519  0.05997704  1
  Se  Se150  1  0.91598491  0.91698261  0.55142846  1
  Se  Se151  1  0.09321340  0.24872951  0.44551070  1
  Se  Se152  1  0.08362260  0.24713449  0.93356050  1
  Se  Se153  1  0.08035111  0.58434056  0.44878006  1
  Se  Se154  1  0.08285505  0.58244403  0.95284528  1
  Se  Se155  1  0.08021529  0.92411040  0.45065564  1
  Se  Se156  1  0.09410184  0.90885293  0.94075407  1
  Se  Se157  1  0.41770984  0.25636027  0.44395421  1
  Se  Se158  1  0.39555302  0.26220272  0.93895695  1
  Se  Se159  1  0.41504187  0.57647156  0.44481024  1
  Se  Se160  1  0.41998969  0.58250739  0.95090591  1
  Se  Se161  1  0.40381483  0.91800816  0.46024547  1
  Se  Se162  1  0.41309076  0.92968745  0.93738004  1
  Se  Se163  1  0.75522086  0.25405943  0.45726798  1
  Se  Se164  1  0.73119263  0.25401474  0.94198196  1
  Se  Se165  1  0.73963006  0.59267576  0.43979207  1
  Se  Se166  1  0.74677526  0.57928467  0.93234871  1
  Se  Se167  1  0.74902210  0.91505231  0.45164743  1
  Se  Se168  1  0.75180375  0.91856611  0.93158427  1
  Se  Se169  1  0.26325099  0.08140050  0.45668649  1
  Se  Se170  1  0.24650002  0.08608243  0.93915144  1
  Se  Se171  1  0.24962709  0.41638464  0.44444301  1
  Se  Se172  1  0.22192978  0.43796668  0.93787717  1
  Se  Se173  1  0.24552411  0.74796539  0.44897213  1
  Se  Se174  1  0.25757350  0.75058666  0.94857517  1
  Se  Se175  1  0.58672645  0.07624036  0.44181875  1
  Se  Se176  1  0.58269702  0.08159275  0.93615636  1
  Se  Se177  1  0.58201204  0.41466262  0.44932451  1
  Se  Se178  1  0.57123798  0.42045656  0.93951268  1
  Se  Se179  1  0.57434031  0.75006496  0.44923783  1
  Se  Se180  1  0.59481699  0.74260992  0.93163093  1
  Se  Se181  1  0.91780714  0.09290491  0.45274122  1
  Se  Se182  1  0.93439626  0.07810225  0.93196490  1
  Se  Se183  1  0.92775327  0.41230795  0.44469945  1
  Se  Se184  1  0.92205398  0.40710123  0.93855904  1
  Se  Se185  1  0.91221129  0.75365049  0.45464989  1
  Se  Se186  1  0.93418997  0.73601099  0.93821099  1
  Se  Se187  1  0.25582927  0.25054227  0.30327986  1
  Se  Se188  1  0.23337138  0.23554881  0.79575831  1
  Se  Se189  1  0.24467786  0.57872695  0.30680836  1
  Se  Se190  1  0.24664282  0.58126807  0.80829898  1
  Se  Se191  1  0.24355581  0.90992968  0.31574906  1
  Se  Se192  1  0.25483369  0.92085566  0.79971486  1
  Se  Se193  1  0.59280924  0.25164892  0.30629061  1
  Se  Se194  1  0.57589555  0.25277109  0.80221233  1
  Se  Se195  1  0.57086202  0.56975811  0.30914449  1
  Se  Se196  1  0.60043575  0.59974078  0.79834609  1
  Se  Se197  1  0.57010606  0.90457588  0.31004577  1
  Se  Se198  1  0.58438176  0.91529526  0.79404007  1
  Se  Se199  1  0.92514997  0.25457772  0.30840367  1
  Se  Se200  1  0.90708625  0.24324090  0.80403846  1
  Se  Se201  1  0.90733707  0.57498177  0.31081776  1
  Se  Se202  1  0.91270803  0.57148203  0.81193425  1
  Se  Se203  1  0.91780871  0.92060964  0.31291278  1
  Se  Se204  1  0.91549456  0.90599470  0.79928414  1
  Se  Se205  1  0.09638390  0.08784021  0.31165035  1
  Se  Se206  1  0.06212324  0.05686596  0.80070451  1
  Se  Se207  1  0.08409522  0.41264610  0.30170391  1
  Se  Se208  1  0.08280105  0.41595303  0.79867160  1
  Se  Se209  1  0.08937031  0.76133708  0.31274606  1
  Se  Se210  1  0.09978373  0.74845984  0.80822405  1
  Se  Se211  1  0.43142077  0.09415504  0.31723827  1
  Se  Se212  1  0.41229087  0.08590872  0.79678283  1
  Se  Se213  1  0.40857293  0.40389216  0.30358399  1
  Se  Se214  1  0.41050333  0.42747889  0.80389737  1
  Se  Se215  1  0.40684923  0.74409214  0.31014623  1
  Se  Se216  1  0.42623368  0.75541840  0.81152051  1
  Se  Se217  1  0.76282943  0.09501869  0.31763451  1
  Se  Se218  1  0.74383215  0.07556741  0.79619694  1
  Se  Se219  1  0.75235985  0.41062046  0.30983454  1
  Se  Se220  1  0.74970194  0.41033452  0.79951700  1
  Se  Se221  1  0.75372425  0.76134058  0.30945744  1
  Se  Se222  1  0.75542438  0.74489783  0.79147215  1
  Se  Se223  1  0.24729361  0.08703622  0.18982595  1
  Se  Se224  1  0.23737394  0.09836370  0.70711993  1
  Se  Se225  1  0.24788564  0.41211778  0.19440868  1
  Se  Se226  1  0.25398197  0.41650196  0.69182516  1
  Se  Se227  1  0.24331134  0.74654850  0.20280524  1
  Se  Se228  1  0.25027387  0.75988763  0.68809721  1
  Se  Se229  1  0.58010441  0.08889139  0.18656937  1
  Se  Se230  1  0.58327934  0.08361985  0.69958498  1
  Se  Se231  1  0.60080906  0.40907444  0.20426257  1
  Se  Se232  1  0.58878486  0.40848447  0.70114596  1
  Se  Se233  1  0.57156479  0.74903456  0.18900309  1
  Se  Se234  1  0.58230944  0.74778795  0.68875449  1
  Se  Se235  1  0.90730295  0.10218798  0.18870167  1
  Se  Se236  1  0.91571212  0.08292846  0.69114179  1
  Se  Se237  1  0.91789037  0.41539840  0.19981314  1
  Se  Se238  1  0.91952766  0.41137251  0.69764148  1
  Se  Se239  1  0.91320037  0.76343163  0.19737226  1
  Se  Se240  1  0.92047586  0.75547162  0.68156969  1
  Se  Se241  1  0.08136871  0.25102540  0.19578208  1
  Se  Se242  1  0.07868886  0.25915407  0.69789322  1
  Se  Se243  1  0.08942499  0.57924657  0.18828425  1
  Se  Se244  1  0.09198543  0.58238140  0.69173355  1
  Se  Se245  1  0.09919355  0.91327690  0.19978520  1
  Se  Se246  1  0.07914174  0.92048553  0.70162415  1
  Se  Se247  1  0.41689983  0.24332695  0.20108218  1
  Se  Se248  1  0.41059629  0.25589648  0.69539398  1
  Se  Se249  1  0.40833957  0.58584216  0.20445799  1
  Se  Se250  1  0.42775913  0.57320644  0.69329932  1
  Se  Se251  1  0.41559055  0.91355894  0.19577226  1
  Se  Se252  1  0.41154251  0.91503873  0.69543601  1
  Se  Se253  1  0.74537905  0.25421932  0.19938957  1
  Se  Se254  1  0.74538867  0.24959494  0.69778182  1
  Se  Se255  1  0.75367218  0.57745770  0.18978012  1
  Se  Se256  1  0.75494040  0.58372348  0.69750055  1
  Se  Se257  1  0.74822280  0.92507402  0.19561492  1
  Se  Se258  1  0.74920576  0.91870701  0.68842795  1
