# generated using pymatgen
data_In86Cu29Se144
_symmetry_space_group_name_H-M   'P 1'
_cell_length_a   17.57595256
_cell_length_b   17.57544399
_cell_length_c   23.43295920
_cell_angle_alpha   89.98843885
_cell_angle_beta   90.00708659
_cell_angle_gamma   90.01303517
_symmetry_Int_Tables_number   1
_chemical_formula_structural   In86Cu29Se144
_chemical_formula_sum   'In86 Cu29 Se144'
_cell_volume   7238.56184817
_cell_formula_units_Z   1
loop_
 _symmetry_equiv_pos_site_id
 _symmetry_equiv_pos_as_xyz
  1  'x, y, z'
loop_
 _atom_site_type_symbol
 _atom_site_label
 _atom_site_symmetry_multiplicity
 _atom_site_fract_x
 _atom_site_fract_y
 _atom_site_fract_z
 _atom_site_occupancy
  In  In0  1  0.01088434  0.16390119  0.12584522  1
  In  In1  1  0.00106785  0.16806550  0.62279135  1
  In  In2  1  -0.00113212  0.50097386  0.13447638  1
  In  In3  1  -0.01779527  0.50613703  0.64772213  1
  In  In4  1  -0.01527924  0.83597223  0.11911280  1
  In  In5  1  -0.00796629  0.84149550  0.62897471  1
  In  In6  1  0.32578841  0.17717499  0.13279898  1
  In  In7  1  0.33132185  0.16994101  0.62057817  1
  In  In8  1  0.33228909  0.48538808  0.12163290  1
  In  In9  1  0.34199147  0.49672390  0.62697335  1
  In  In10  1  0.34415200  0.83704764  0.12848776  1
  In  In11  1  0.33206297  0.83655198  0.63587649  1
  In  In12  1  0.67603067  0.17511633  0.13183712  1
  In  In13  1  0.67386190  0.18092503  0.61048615  1
  In  In14  1  0.66198664  0.50259556  0.12961484  1
  In  In15  1  0.66052500  0.50895774  0.62548889  1
  In  In16  1  0.66881619  0.81576111  0.12802011  1
  In  In17  1  0.67594719  0.81140313  0.62200662  1
  In  In18  1  0.17325102  0.00172838  0.37375455  1
  In  In19  1  0.17183245  0.00738637  0.86980072  1
  In  In20  1  0.15704636  0.32485719  0.37200593  1
  In  In21  1  0.16123356  0.32116793  0.86964200  1
  In  In22  1  0.16297533  0.67528254  0.37403270  1
  In  In23  1  0.17044463  0.66935360  0.86736485  1
  In  In24  1  0.49704697  0.01608960  0.37789690  1
  In  In25  1  0.49455780  0.01199720  0.86938966  1
  In  In26  1  0.49747034  0.33643803  0.37620868  1
  In  In27  1  0.50698150  0.34566405  0.86687340  1
  In  In28  1  0.50780549  0.63991609  0.38869989  1
  In  In29  1  0.48834832  0.65023540  0.86824276  1
  In  In30  1  0.83498494  0.00583754  0.39026100  1
  In  In31  1  0.83554480  -0.01569824  0.87479536  1
  In  In32  1  0.82833117  0.33157990  0.37547083  1
  In  In33  1  0.83498906  0.34145861  0.85525201  1
  In  In34  1  0.83495604  0.66855735  0.37146882  1
  In  In35  1  0.84342157  0.67219244  0.86035731  1
  In  In36  1  -0.01429921  0.17922612  0.39525087  1
  In  In37  1  0.00803966  0.17303272  0.86838909  1
  In  In38  1  -0.00161841  0.50038751  0.36873346  1
  In  In39  1  -0.00059689  0.50074308  0.86001255  1
  In  In40  1  0.00115510  0.82870589  0.37463026  1
  In  In41  1  -0.00490982  0.83028899  0.86765579  1
  In  In42  1  0.32935894  0.16975915  0.37542504  1
  In  In43  1  0.32481255  0.15932114  0.86615366  1
  In  In44  1  0.35991701  0.49484562  0.38365717  1
  In  In45  1  0.34745254  0.50876868  0.87095834  1
  In  In46  1  0.32138541  0.83488428  0.37309791  1
  In  In47  1  0.32949801  0.83043453  0.86726986  1
  In  In48  1  0.64698973  0.19420085  0.40376020  1
  In  In49  1  0.65867757  0.17633160  0.86765244  1
  In  In50  1  0.65866379  0.49095441  0.37342494  1
  In  In51  1  0.65914214  0.49136003  0.86378324  1
  In  In52  1  0.68066773  0.83187971  0.37597612  1
  In  In53  1  0.68329799  0.82905996  0.87441578  1
  In  In54  1  0.16178690  0.01903619  0.12055845  1
  In  In55  1  0.15144865  0.01737681  0.62946386  1
  In  In56  1  0.17489895  0.32845758  0.12998399  1
  In  In57  1  0.17287790  0.32763472  0.62833273  1
  In  In58  1  0.16469902  0.65178986  0.12519332  1
  In  In59  1  0.16776671  0.66302347  0.63703625  1
  In  In60  1  0.49219735  -0.01005916  0.13179599  1
  In  In61  1  0.48670747  0.00493975  0.62585874  1
  In  In62  1  0.49346724  0.34001922  0.12957215  1
  In  In63  1  0.49991121  0.33214871  0.61742806  1
  In  In64  1  0.51305670  0.66727174  0.12516125  1
  In  In65  1  0.50601158  0.65810575  0.62656179  1
  In  In66  1  0.85204511  -0.00844069  0.12202395  1
  In  In67  1  0.85269791  0.00611944  0.61024432  1
  In  In68  1  0.82781740  0.33527031  0.13769719  1
  In  In69  1  0.83055363  0.33599298  0.63273468  1
  In  In70  1  0.83152799  0.66669023  0.12789911  1
  In  In71  1  0.82173484  0.67507949  0.63087234  1
  In  In72  1  0.83661009  0.16830787  -0.00407616  1
  In  In73  1  0.33499774  0.66332608  0.25654643  1
  In  In74  1  0.50304292  0.82811707  0.00083250  1
  In  In75  1  0.66632578  -0.00099055  0.74619834  1
  In  In76  1  0.50006582  0.16805012  -0.00074052  1
  In  In77  1  0.16897159  0.49412981  0.51083223  1
  In  In78  1  0.16409919  0.83754939  0.50001064  1
  In  In79  1  0.82553497  0.49981882  0.50796926  1
  In  In80  1  0.83439744  0.49953137  -0.01411261  1
  In  In81  1  0.16736747  0.83105914  -0.01027372  1
  In  In82  1  0.00377844  0.00292286  0.24896628  1
  In  In83  1  0.17199590  0.49610116  -0.00391585  1
  In  In84  1  0.66762870  0.00794506  0.25796294  1
  In  In85  1  0.50415608  0.83505784  0.50527313  1
  Cu  Cu86  1  0.49499416  0.17557245  0.74433095  1
  Cu  Cu87  1  0.67062743  0.66306725  0.00107750  1
  Cu  Cu88  1  0.83158098  0.50322454  0.25324598  1
  Cu  Cu89  1  0.83579254  0.83532981  0.74517407  1
  Cu  Cu90  1  -0.00152474  0.33497371  0.50954102  1
  Cu  Cu91  1  0.00766541  0.32588363  -0.00159673  1
  Cu  Cu92  1  0.83422384  0.83138688  0.24833583  1
  Cu  Cu93  1  0.16584575  0.16990560  0.25189956  1
  Cu  Cu94  1  0.67631389  -0.00553194  -0.00025237  1
  Cu  Cu95  1  0.33351200  0.32613813  0.00114938  1
  Cu  Cu96  1  0.83505331  0.16108407  0.74038153  1
  Cu  Cu97  1  0.67132083  -0.00110842  0.50259833  1
  Cu  Cu98  1  0.49622004  0.50054987  0.74485234  1
  Cu  Cu99  1  0.32797000  0.00621703  0.50101126  1
  Cu  Cu100  1  -0.00490627  0.66940421  -0.00682988  1
  Cu  Cu101  1  0.17074278  0.16597196  0.74548740  1
  Cu  Cu102  1  0.83134942  0.17307472  0.26388270  1
  Cu  Cu103  1  0.33243337  0.33077066  0.50069885  1
  Cu  Cu104  1  0.32912382  0.00296943  -0.00281429  1
  Cu  Cu105  1  -0.00155287  0.66928238  0.49912171  1
  Cu  Cu106  1  0.17125999  0.49504359  0.74960666  1
  Cu  Cu107  1  0.49625158  0.83134634  0.25263415  1
  Cu  Cu108  1  0.66485653  0.34252220  -0.00545304  1
  Cu  Cu109  1  0.16276181  0.83280482  0.25158284  1
  Cu  Cu110  1  0.49717907  0.17239748  0.25953801  1
  Cu  Cu111  1  0.16422896  0.83599243  0.75123780  1
  Cu  Cu112  1  0.50463513  0.82930400  0.74497933  1
  Cu  Cu113  1  0.16748388  0.49803602  0.25231341  1
  Cu  Cu114  1  0.50350012  0.49504689  0.25190525  1
  Se  Se115  1  0.06864023  0.07781812  0.04954156  1
  Se  Se116  1  0.08030771  0.08694631  0.55023808  1
  Se  Se117  1  0.07814037  0.41342364  0.05974043  1
  Se  Se118  1  0.06926871  0.41906322  0.57215164  1
  Se  Se119  1  0.08035037  0.74096329  0.05598730  1
  Se  Se120  1  0.08124526  0.74283318  0.56209430  1
  Se  Se121  1  0.41125160  0.07769925  0.06084625  1
  Se  Se122  1  0.41655833  0.08738387  0.55090715  1
  Se  Se123  1  0.41876816  0.41178212  0.05019108  1
  Se  Se124  1  0.41472893  0.41853455  0.55022054  1
  Se  Se125  1  0.41003840  0.73984288  0.05930457  1
  Se  Se126  1  0.41102301  0.75046929  0.56453189  1
  Se  Se127  1  0.74779929  0.07868959  0.06201640  1
  Se  Se128  1  0.75553294  0.08574523  0.55115136  1
  Se  Se129  1  0.75098759  0.41448433  0.05652003  1
  Se  Se130  1  0.73536105  0.40432348  0.55928377  1
  Se  Se131  1  0.75351187  0.74708970  0.05364500  1
  Se  Se132  1  0.75517923  0.74145955  0.54677058  1
  Se  Se133  1  0.24718886  0.24651849  0.05414921  1
  Se  Se134  1  0.24451739  0.24953223  0.55066795  1
  Se  Se135  1  0.26168046  0.58821237  0.05501241  1
  Se  Se136  1  0.25590340  0.59309556  0.56197863  1
  Se  Se137  1  0.25420181  0.91871479  0.05859812  1
  Se  Se138  1  0.25302750  0.92444344  0.56305535  1
  Se  Se139  1  0.59379859  0.25703253  0.05766469  1
  Se  Se140  1  0.57057165  0.24096365  0.54713847  1
  Se  Se141  1  0.58632352  0.58109845  0.05368417  1
  Se  Se142  1  0.58574867  0.58767784  0.55082740  1
  Se  Se143  1  0.59247742  0.92163814  0.06276468  1
  Se  Se144  1  0.59310616  0.92375690  0.56815672  1
  Se  Se145  1  0.91807200  0.26052757  0.06157951  1
  Se  Se146  1  0.91078454  0.25450338  0.56063759  1
  Se  Se147  1  0.92247822  0.58334635  0.05477543  1
  Se  Se148  1  0.92472743  0.58729718  0.56180132  1
  Se  Se149  1  0.92132982  0.91903730  0.04346929  1
  Se  Se150  1  0.91229838  0.89996727  0.54827711  1
  Se  Se151  1  0.08503841  0.25705704  0.45429771  1
  Se  Se152  1  0.08947691  0.24193828  0.94695375  1
  Se  Se153  1  0.08070529  0.58541426  0.44414019  1
  Se  Se154  1  0.07683819  0.58639526  0.93737443  1
  Se  Se155  1  0.07484650  0.92662343  0.44053083  1
  Se  Se156  1  0.07792599  0.92278363  0.93487192  1
  Se  Se157  1  0.41515445  0.24924355  0.44399897  1
  Se  Se158  1  0.41412102  0.25341233  0.93455718  1
  Se  Se159  1  0.40294344  0.59450210  0.45615043  1
  Se  Se160  1  0.42183290  0.57878566  0.94960281  1
  Se  Se161  1  0.40757093  0.92152904  0.44285213  1
  Se  Se162  1  0.41348967  0.92336904  0.94104601  1
  Se  Se163  1  0.76775754  0.24441054  0.45177636  1
  Se  Se164  1  0.74613955  0.26113974  0.93666080  1
  Se  Se165  1  0.74559937  0.58426957  0.43759251  1
  Se  Se166  1  0.74352637  0.59086381  0.93062152  1
  Se  Se167  1  0.75210248  0.91284539  0.45059640  1
  Se  Se168  1  0.75675553  0.90851293  0.94980612  1
  Se  Se169  1  0.24512911  0.08741585  0.44572596  1
  Se  Se170  1  0.24858915  0.08794483  0.94488394  1
  Se  Se171  1  0.25221993  0.41199520  0.43947449  1
  Se  Se172  1  0.25830367  0.40583698  0.93552496  1
  Se  Se173  1  0.25737656  0.74123115  0.44726619  1
  Se  Se174  1  0.26434244  0.73652582  0.94252915  1
  Se  Se175  1  0.58080425  0.07989887  0.45432270  1
  Se  Se176  1  0.59588771  0.07522951  0.94174858  1
  Se  Se177  1  0.56715211  0.42880378  0.44559961  1
  Se  Se178  1  0.57976992  0.42428533  0.94372421  1
  Se  Se179  1  0.59076239  0.74678997  0.44244263  1
  Se  Se180  1  0.59004772  0.74156818  0.93747125  1
  Se  Se181  1  0.92641715  0.07543937  0.45754322  1
  Se  Se182  1  0.92229399  0.07944931  0.93513397  1
  Se  Se183  1  0.92369846  0.41688065  0.44589914  1
  Se  Se184  1  0.92920394  0.40353460  0.93530074  1
  Se  Se185  1  0.91653213  0.74906100  0.44307884  1
  Se  Se186  1  0.91233440  0.75062649  0.93946386  1
  Se  Se187  1  0.25060131  0.25410337  0.30375077  1
  Se  Se188  1  0.25297786  0.25213573  0.79864849  1
  Se  Se189  1  0.24719494  0.57240027  0.31773211  1
  Se  Se190  1  0.25252708  0.58085720  0.80406291  1
  Se  Se191  1  0.24738080  0.91804264  0.30036008  1
  Se  Se192  1  0.25124578  0.91953297  0.80221253  1
  Se  Se193  1  0.58614391  0.24947450  0.31206917  1
  Se  Se194  1  0.58200321  0.25643860  0.79657322  1
  Se  Se195  1  0.58308663  0.58322120  0.30387789  1
  Se  Se196  1  0.58192455  0.58399232  0.79804685  1
  Se  Se197  1  0.57590301  0.91264791  0.31439176  1
  Se  Se198  1  0.57875139  0.90940594  0.81163248  1
  Se  Se199  1  0.92337986  0.25339061  0.31107928  1
  Se  Se200  1  0.91575869  0.24355514  0.79903553  1
  Se  Se201  1  0.91840312  0.58726997  0.30218068  1
  Se  Se202  1  0.90405097  0.57033737  0.79614169  1
  Se  Se203  1  0.90779853  0.91759277  0.30866924  1
  Se  Se204  1  0.91849367  0.91975476  0.79782457  1
  Se  Se205  1  0.08206275  0.09533658  0.31386318  1
  Se  Se206  1  0.08563143  0.08448104  0.79990977  1
  Se  Se207  1  0.08144513  0.41468983  0.30345177  1
  Se  Se208  1  0.08623928  0.41124537  0.80113829  1
  Se  Se209  1  0.07890428  0.74817570  0.30119835  1
  Se  Se210  1  0.08168755  0.74809474  0.80179315  1
  Se  Se211  1  0.41113073  0.08435705  0.30456832  1
  Se  Se212  1  0.41538559  0.08563295  0.79589757  1
  Se  Se213  1  0.41480897  0.41407793  0.30165926  1
  Se  Se214  1  0.41324308  0.41620139  0.79908618  1
  Se  Se215  1  0.42513800  0.74977677  0.31890009  1
  Se  Se216  1  0.42019252  0.75071333  0.80372855  1
  Se  Se217  1  0.75023164  0.09469116  0.32339335  1
  Se  Se218  1  0.75695832  0.08806234  0.80949347  1
  Se  Se219  1  0.75046403  0.41680458  0.30612720  1
  Se  Se220  1  0.73930877  0.41222722  0.79335669  1
  Se  Se221  1  0.74919319  0.74870689  0.30030247  1
  Se  Se222  1  0.74943715  0.75100309  0.79558077  1
  Se  Se223  1  0.24611703  0.08432527  0.19666482  1
  Se  Se224  1  0.25480497  0.08252043  0.69206649  1
  Se  Se225  1  0.25250440  0.41673217  0.19840127  1
  Se  Se226  1  0.25438915  0.41556784  0.69373944  1
  Se  Se227  1  0.24519711  0.75217119  0.19095437  1
  Se  Se228  1  0.25032491  0.75057749  0.70228080  1
  Se  Se229  1  0.57341040  0.09301107  0.19281169  1
  Se  Se230  1  0.58010148  0.09339382  0.68775077  1
  Se  Se231  1  0.58698813  0.41148827  0.19711371  1
  Se  Se232  1  0.57707582  0.41839001  0.68859198  1
  Se  Se233  1  0.58218087  0.74861224  0.20197799  1
  Se  Se234  1  0.58808447  0.74467624  0.69531049  1
  Se  Se235  1  0.90467406  0.09516872  0.19538339  1
  Se  Se236  1  0.92127507  0.07813811  0.69190070  1
  Se  Se237  1  0.91588167  0.41766915  0.20104316  1
  Se  Se238  1  0.92088876  0.40004849  0.70639240  1
  Se  Se239  1  0.91883857  0.75028918  0.19394031  1
  Se  Se240  1  0.91908429  0.74717152  0.69570000  1
  Se  Se241  1  0.08224290  0.25161931  0.19603961  1
  Se  Se242  1  0.08380344  0.24851280  0.69454097  1
  Se  Se243  1  0.08413211  0.58409664  0.20146442  1
  Se  Se244  1  0.08320473  0.58328848  0.70525196  1
  Se  Se245  1  0.08892514  0.91077158  0.18510068  1
  Se  Se246  1  0.08344073  0.91802227  0.69466593  1
  Se  Se247  1  0.41750087  0.25202599  0.19836734  1
  Se  Se248  1  0.41169220  0.25634263  0.68911796  1
  Se  Se249  1  0.42164146  0.57619373  0.19041117  1
  Se  Se250  1  0.41261855  0.58944135  0.69664369  1
  Se  Se251  1  0.41087078  0.91812620  0.20640323  1
  Se  Se252  1  0.42002947  0.91912280  0.70102699  1
  Se  Se253  1  0.74592981  0.25371456  0.20807175  1
  Se  Se254  1  0.74453433  0.24440906  0.69544099  1
  Se  Se255  1  0.74898047  0.58390968  0.19553940  1
  Se  Se256  1  0.76749355  0.56383507  0.68991010  1
  Se  Se257  1  0.75365772  0.91719069  0.19125651  1
  Se  Se258  1  0.75624508  0.91506503  0.68302367  1
