# generated using pymatgen
data_In86Cu29Se144
_symmetry_space_group_name_H-M   'P 1'
_cell_length_a   17.57319632
_cell_length_b   17.57125378
_cell_length_c   23.43232335
_cell_angle_alpha   89.98774471
_cell_angle_beta   89.95732705
_cell_angle_gamma   89.99573449
_symmetry_Int_Tables_number   1
_chemical_formula_structural   In86Cu29Se144
_chemical_formula_sum   'In86 Cu29 Se144'
_cell_volume   7235.50307267
_cell_formula_units_Z   1
loop_
 _symmetry_equiv_pos_site_id
 _symmetry_equiv_pos_as_xyz
  1  'x, y, z'
loop_
 _atom_site_type_symbol
 _atom_site_label
 _atom_site_symmetry_multiplicity
 _atom_site_fract_x
 _atom_site_fract_y
 _atom_site_fract_z
 _atom_site_occupancy
  In  In0  1  -0.00278349  0.16559085  0.12138958  1
  In  In1  1  -0.01220901  0.18332748  0.64388491  1
  In  In2  1  0.01424206  0.49799853  0.14649671  1
  In  In3  1  -0.01482079  0.48623803  0.61412229  1
  In  In4  1  0.00562147  0.82807490  0.12952523  1
  In  In5  1  0.00589145  0.83617689  0.62682045  1
  In  In6  1  0.32757990  0.18418991  0.12434429  1
  In  In7  1  0.31793265  0.16417418  0.63054897  1
  In  In8  1  0.32898765  0.48579629  0.12626124  1
  In  In9  1  0.34469761  0.51086931  0.61062131  1
  In  In10  1  0.33579956  0.84321262  0.11933071  1
  In  In11  1  0.33503279  0.82588603  0.63404749  1
  In  In12  1  0.67668720  0.15989571  0.13158494  1
  In  In13  1  0.66863767  0.16239582  0.62347815  1
  In  In14  1  0.66008336  0.50641045  0.13328564  1
  In  In15  1  0.67716143  0.50218147  0.60982198  1
  In  In16  1  0.67007016  0.82869502  0.13272786  1
  In  In17  1  0.66047936  0.84520647  0.63145111  1
  In  In18  1  0.15722172  0.01136463  0.37349785  1
  In  In19  1  0.16410990  0.00180103  0.87964231  1
  In  In20  1  0.17774319  0.35171894  0.35307664  1
  In  In21  1  0.14974871  0.33360740  0.87052632  1
  In  In22  1  0.14853806  0.65634694  0.36639714  1
  In  In23  1  0.18388573  0.66780586  0.87772982  1
  In  In24  1  0.50491491  -0.01373736  0.38361494  1
  In  In25  1  0.50281229  -0.00637127  0.86446845  1
  In  In26  1  0.50977329  0.34334864  0.37349794  1
  In  In27  1  0.50891592  0.34850706  0.87754754  1
  In  In28  1  0.50982543  0.65298018  0.38527833  1
  In  In29  1  0.49842147  0.66560529  0.87136323  1
  In  In30  1  0.83717380  0.01262315  0.37204308  1
  In  In31  1  0.86810788  0.02669018  0.84123750  1
  In  In32  1  0.83077816  0.32917134  0.37911880  1
  In  In33  1  0.83592501  0.31371372  0.87196284  1
  In  In34  1  0.81942847  0.65415405  0.36939558  1
  In  In35  1  0.83342836  0.68412499  0.86738447  1
  In  In36  1  -0.00634998  0.16659750  0.37119743  1
  In  In37  1  0.00181803  0.16689862  0.87754536  1
  In  In38  1  -0.00141219  0.49158212  0.37259987  1
  In  In39  1  0.00872475  0.48859181  0.86873176  1
  In  In40  1  -0.00335481  0.83679169  0.36768842  1
  In  In41  1  0.00311499  0.86030917  0.87130217  1
  In  In42  1  0.32093402  0.17136782  0.37324503  1
  In  In43  1  0.33095581  0.15310267  0.86987052  1
  In  In44  1  0.34056676  0.48494916  0.38744666  1
  In  In45  1  0.33894396  0.51794436  0.87442762  1
  In  In46  1  0.34111376  0.84076318  0.38252372  1
  In  In47  1  0.32387136  0.82551862  0.87404571  1
  In  In48  1  0.68557245  0.18652352  0.36715312  1
  In  In49  1  0.68209332  0.16034269  0.87251170  1
  In  In50  1  0.66459757  0.49416415  0.38135209  1
  In  In51  1  0.65267951  0.50405157  0.87810275  1
  In  In52  1  0.66369782  0.82487989  0.37367912  1
  In  In53  1  0.68426422  0.83832048  0.85586110  1
  In  In54  1  0.15269184  -0.00761711  0.11535547  1
  In  In55  1  0.15510113  0.01714450  0.64655074  1
  In  In56  1  0.17140345  0.33142774  0.12998126  1
  In  In57  1  0.16056327  0.33171709  0.61825095  1
  In  In58  1  0.15933121  0.65839510  0.12585555  1
  In  In59  1  0.17488288  0.67048920  0.62687520  1
  In  In60  1  0.50559956  0.00649302  0.12794607  1
  In  In61  1  0.50682847  -0.00912594  0.63028135  1
  In  In62  1  0.49307066  0.34203441  0.13460156  1
  In  In63  1  0.49888066  0.35074669  0.61269465  1
  In  In64  1  0.51469878  0.67024807  0.12516105  1
  In  In65  1  0.49651061  0.66957912  0.62142394  1
  In  In66  1  0.82744378  0.00685670  0.12617219  1
  In  In67  1  0.81939511  0.01621622  0.64258613  1
  In  In68  1  0.84382979  0.32194104  0.13316112  1
  In  In69  1  0.83509710  0.33594334  0.61439771  1
  In  In70  1  0.83720417  0.66360487  0.13574637  1
  In  In71  1  0.83150053  0.65300584  0.62612626  1
  In  In72  1  0.33475478  0.00612632  0.24926006  1
  In  In73  1  0.67055295  0.33185541  0.74555117  1
  In  In74  1  0.49516957  0.17307453  0.00225555  1
  In  In75  1  0.83402368  0.50155780  0.01121498  1
  In  In76  1  0.17043045  0.49825472  0.00456439  1
  In  In77  1  0.83352211  0.84099967  -0.00936685  1
  In  In78  1  0.17371828  0.83193027  0.50800132  1
  In  In79  1  0.32981277  0.32881077  0.74242797  1
  In  In80  1  0.16290912  0.17192556  0.50467261  1
  In  In81  1  0.49957155  0.82703264  -0.00532072  1
  In  In82  1  0.00010652  0.66464637  0.74936917  1
  In  In83  1  0.33436219  0.66241508  0.25023437  1
  In  In84  1  0.50474902  0.17095753  0.49594391  1
  In  In85  1  0.83283985  0.82992988  0.50369341  1
  Cu  Cu86  1  -0.00611781  0.65365709  0.49390937  1
  Cu  Cu87  1  0.82976579  0.50013385  0.25748585  1
  Cu  Cu88  1  0.51119202  0.82692913  0.25699215  1
  Cu  Cu89  1  0.32243864  0.00266915  -0.00249979  1
  Cu  Cu90  1  0.49702391  0.51079186  0.74539021  1
  Cu  Cu91  1  -0.00667058  0.32769158  0.00118984  1
  Cu  Cu92  1  0.16994364  0.83765348  0.75459283  1
  Cu  Cu93  1  0.49834891  0.82992040  0.74894390  1
  Cu  Cu94  1  0.32833984  0.66868631  0.50083345  1
  Cu  Cu95  1  -0.00428222  0.00231308  0.49995009  1
  Cu  Cu96  1  0.66959282  0.66659201  -0.00012399  1
  Cu  Cu97  1  0.16669492  0.49922434  0.74756251  1
  Cu  Cu98  1  0.00840503  0.67076259  0.00505540  1
  Cu  Cu99  1  0.50413183  0.16441242  0.74570913  1
  Cu  Cu100  1  0.66810106  0.33220810  0.00023830  1
  Cu  Cu101  1  0.83210030  0.16767469  0.24996594  1
  Cu  Cu102  1  0.67208471  0.00147162  0.50623330  1
  Cu  Cu103  1  0.33571600  -0.00340310  0.51077042  1
  Cu  Cu104  1  0.16420730  0.83708531  0.24682633  1
  Cu  Cu105  1  0.15679374  0.16737153  0.24709060  1
  Cu  Cu106  1  0.32823304  0.33476905  0.00045974  1
  Cu  Cu107  1  0.83384544  0.84228193  0.25076419  1
  Cu  Cu108  1  0.66772104  0.00185218  -0.00080530  1
  Cu  Cu109  1  0.50320374  0.16799239  0.25099782  1
  Cu  Cu110  1  -0.00267617  0.00752234  -0.00430116  1
  Cu  Cu111  1  0.00070913  0.32841103  0.49515504  1
  Cu  Cu112  1  0.83018715  0.49082720  0.74289812  1
  Cu  Cu113  1  0.65869758  0.66629678  0.49777530  1
  Cu  Cu114  1  0.50491630  0.49966177  0.25856177  1
  Se  Se115  1  0.08279661  0.08848873  0.04953175  1
  Se  Se116  1  0.07449265  0.08023254  0.56307100  1
  Se  Se117  1  0.07119923  0.41302982  0.06044525  1
  Se  Se118  1  0.08138310  0.41479674  0.54854976  1
  Se  Se119  1  0.09131229  0.75372092  0.05731620  1
  Se  Se120  1  0.07125032  0.73748513  0.55460204  1
  Se  Se121  1  0.40472656  0.07719049  0.06103304  1
  Se  Se122  1  0.41597342  0.08496529  0.56349842  1
  Se  Se123  1  0.41533498  0.41167719  0.05495423  1
  Se  Se124  1  0.41037160  0.41628999  0.54193103  1
  Se  Se125  1  0.41262363  0.74055183  0.05908918  1
  Se  Se126  1  0.40919496  0.75435878  0.55459049  1
  Se  Se127  1  0.74939408  0.08641811  0.05198970  1
  Se  Se128  1  0.75782664  0.08415514  0.55587697  1
  Se  Se129  1  0.74385090  0.40845013  0.06673314  1
  Se  Se130  1  0.74693812  0.40720559  0.54534724  1
  Se  Se131  1  0.75317054  0.74552063  0.05815983  1
  Se  Se132  1  0.73933839  0.74212877  0.56186420  1
  Se  Se133  1  0.24173821  0.25297001  0.05065698  1
  Se  Se134  1  0.26578239  0.25984819  0.55350994  1
  Se  Se135  1  0.26235568  0.59018552  0.05944509  1
  Se  Se136  1  0.24196010  0.58637988  0.55178392  1
  Se  Se137  1  0.24596618  0.91427354  0.05097472  1
  Se  Se138  1  0.24736213  0.92898337  0.57234357  1
  Se  Se139  1  0.58752377  0.25494438  0.06480103  1
  Se  Se140  1  0.59440404  0.25995598  0.55674960  1
  Se  Se141  1  0.58836253  0.58361210  0.05392956  1
  Se  Se142  1  0.57723385  0.58242306  0.55338970  1
  Se  Se143  1  0.58979106  0.91930589  0.05770678  1
  Se  Se144  1  0.58418152  0.91717960  0.55277739  1
  Se  Se145  1  0.90802096  0.24466131  0.05202900  1
  Se  Se146  1  0.92499166  0.24469967  0.55544392  1
  Se  Se147  1  0.93375690  0.58803860  0.06590468  1
  Se  Se148  1  0.90634163  0.57765210  0.54916512  1
  Se  Se149  1  0.92191014  0.92240159  0.05842856  1
  Se  Se150  1  0.91845566  0.92398031  0.56292663  1
  Se  Se151  1  0.08548397  0.25581491  0.43305343  1
  Se  Se152  1  0.08298087  0.25190786  0.94759650  1
  Se  Se153  1  0.08258800  0.57487615  0.44356468  1
  Se  Se154  1  0.07807251  0.58576123  0.94030128  1
  Se  Se155  1  0.07912309  0.91989728  0.44529443  1
  Se  Se156  1  0.08404039  0.91731121  0.95212302  1
  Se  Se157  1  0.41035550  0.25537252  0.43664981  1
  Se  Se158  1  0.40926322  0.25980849  0.93547461  1
  Se  Se159  1  0.41319640  0.58362221  0.45013519  1
  Se  Se160  1  0.43117816  0.57861892  0.94508426  1
  Se  Se161  1  0.41970510  0.91468076  0.45760089  1
  Se  Se162  1  0.41169254  0.92655254  0.94132480  1
  Se  Se163  1  0.75540734  0.24402075  0.45156897  1
  Se  Se164  1  0.74822406  0.24796780  0.94690629  1
  Se  Se165  1  0.74709586  0.58324183  0.44896928  1
  Se  Se166  1  0.75442526  0.58982619  0.94020375  1
  Se  Se167  1  0.74857711  0.92170606  0.44078914  1
  Se  Se168  1  0.74537778  0.93039141  0.93262709  1
  Se  Se169  1  0.25611806  0.07256465  0.44706025  1
  Se  Se170  1  0.24488290  0.09205157  0.94679224  1
  Se  Se171  1  0.23622737  0.41077892  0.44283550  1
  Se  Se172  1  0.25382604  0.41318926  0.93363709  1
  Se  Se173  1  0.24862606  0.74312062  0.43552912  1
  Se  Se174  1  0.25461742  0.74760768  0.95166940  1
  Se  Se175  1  0.59662764  0.07956341  0.43956907  1
  Se  Se176  1  0.58210387  0.08028532  0.94084645  1
  Se  Se177  1  0.57325991  0.42415377  0.45153403  1
  Se  Se178  1  0.58404475  0.42132105  0.95501722  1
  Se  Se179  1  0.57825806  0.75580598  0.44814991  1
  Se  Se180  1  0.60057724  0.75083393  0.93538437  1
  Se  Se181  1  0.91653657  0.08815131  0.44679669  1
  Se  Se182  1  0.90783967  0.08159675  0.93951848  1
  Se  Se183  1  0.91559614  0.41489196  0.44569630  1
  Se  Se184  1  0.91778362  0.41428281  0.94234819  1
  Se  Se185  1  0.91905224  0.74373418  0.43746905  1
  Se  Se186  1  0.93102993  0.74571778  0.94016740  1
  Se  Se187  1  0.24958085  0.24615845  0.29536098  1
  Se  Se188  1  0.24231627  0.24455031  0.80753785  1
  Se  Se189  1  0.25281778  0.57380501  0.31434635  1
  Se  Se190  1  0.24844586  0.58262218  0.80100707  1
  Se  Se191  1  0.24463135  0.91289344  0.31054911  1
  Se  Se192  1  0.25078931  0.92108467  0.81009900  1
  Se  Se193  1  0.58418120  0.25390276  0.30408202  1
  Se  Se194  1  0.57711407  0.24651683  0.81014541  1
  Se  Se195  1  0.58947825  0.58393366  0.30859911  1
  Se  Se196  1  0.58433602  0.58556852  0.80172036  1
  Se  Se197  1  0.58775102  0.91913966  0.30706820  1
  Se  Se198  1  0.58687950  0.91590626  0.79570717  1
  Se  Se199  1  0.91302609  0.25258705  0.30395829  1
  Se  Se200  1  0.93047080  0.25376527  0.80349373  1
  Se  Se201  1  0.91820594  0.58413233  0.30622121  1
  Se  Se202  1  0.90789981  0.57132998  0.80833020  1
  Se  Se203  1  0.91727895  0.92601690  0.30338149  1
  Se  Se204  1  0.88454534  0.88537706  0.81147256  1
  Se  Se205  1  0.07584264  0.08229756  0.30019449  1
  Se  Se206  1  0.06167969  0.06042560  0.81306299  1
  Se  Se207  1  0.06455566  0.40465197  0.29720468  1
  Se  Se208  1  0.08009543  0.41125613  0.79151529  1
  Se  Se209  1  0.08148795  0.75414578  0.30092039  1
  Se  Se210  1  0.08736442  0.75389121  0.81377799  1
  Se  Se211  1  0.42574131  0.08807331  0.31488140  1
  Se  Se212  1  0.42083105  0.08288547  0.80023925  1
  Se  Se213  1  0.41546804  0.41670752  0.30593710  1
  Se  Se214  1  0.42068645  0.42186460  0.80238364  1
  Se  Se215  1  0.42313618  0.75203135  0.31386299  1
  Se  Se216  1  0.41483937  0.75088556  0.80607021  1
  Se  Se217  1  0.74643827  0.08309225  0.30153709  1
  Se  Se218  1  0.74723357  0.08346605  0.79471616  1
  Se  Se219  1  0.74797795  0.41490982  0.31042054  1
  Se  Se220  1  0.75295976  0.42122328  0.81465516  1
  Se  Se221  1  0.75351395  0.75421813  0.30354186  1
  Se  Se222  1  0.73452927  0.72590213  0.79480730  1
  Se  Se223  1  0.24104538  0.08742866  0.18666161  1
  Se  Se224  1  0.26120170  0.07769403  0.70713681  1
  Se  Se225  1  0.23773562  0.42675407  0.19791795  1
  Se  Se226  1  0.24847935  0.42611580  0.68275238  1
  Se  Se227  1  0.25007825  0.75988614  0.19020554  1
  Se  Se228  1  0.24768055  0.74763023  0.70322623  1
  Se  Se229  1  0.58584834  0.08201812  0.19947044  1
  Se  Se230  1  0.58878252  0.08108263  0.69421618  1
  Se  Se231  1  0.58551807  0.41542682  0.20130445  1
  Se  Se232  1  0.57936201  0.42602729  0.68988281  1
  Se  Se233  1  0.59139111  0.74295098  0.20199839  1
  Se  Se234  1  0.57994419  0.74940699  0.69175957  1
  Se  Se235  1  0.91500403  0.08535510  0.19369231  1
  Se  Se236  1  0.93303104  0.06917265  0.70002654  1
  Se  Se237  1  0.91153270  0.41994503  0.19952241  1
  Se  Se238  1  0.91525696  0.40838832  0.69248945  1
  Se  Se239  1  0.91658582  0.75481156  0.19895118  1
  Se  Se240  1  0.90993534  0.75225539  0.68924326  1
  Se  Se241  1  0.07678527  0.25119714  0.19122731  1
  Se  Se242  1  0.11416392  0.22875762  0.68789886  1
  Se  Se243  1  0.08993193  0.59270162  0.20773373  1
  Se  Se244  1  0.08261486  0.57406308  0.68448646  1
  Se  Se245  1  0.08034092  0.92245921  0.19628852  1
  Se  Se246  1  0.07943907  0.91332822  0.70257712  1
  Se  Se247  1  0.41521149  0.24812324  0.19886003  1
  Se  Se248  1  0.43061798  0.24705651  0.68317947  1
  Se  Se249  1  0.42813783  0.57541942  0.19035647  1
  Se  Se250  1  0.40986154  0.58844880  0.69132922  1
  Se  Se251  1  0.42943361  0.90700084  0.19657538  1
  Se  Se252  1  0.41518517  0.91691101  0.69804603  1
  Se  Se253  1  0.74621740  0.25371800  0.19987228  1
  Se  Se254  1  0.76290047  0.24214050  0.69081128  1
  Se  Se255  1  0.74873206  0.58430384  0.20062404  1
  Se  Se256  1  0.74401971  0.57376722  0.69365527  1
  Se  Se257  1  0.74797691  0.92088121  0.19533586  1
  Se  Se258  1  0.75923216  0.90574769  0.69793860  1
