# generated using pymatgen
data_In86Cu29Se144
_symmetry_space_group_name_H-M   'P 1'
_cell_length_a   17.58024382
_cell_length_b   17.57747546
_cell_length_c   23.43422149
_cell_angle_alpha   90.01822700
_cell_angle_beta   90.01544483
_cell_angle_gamma   89.99521801
_symmetry_Int_Tables_number   1
_chemical_formula_structural   In86Cu29Se144
_chemical_formula_sum   'In86 Cu29 Se144'
_cell_volume   7241.55586411
_cell_formula_units_Z   1
loop_
 _symmetry_equiv_pos_site_id
 _symmetry_equiv_pos_as_xyz
  1  'x, y, z'
loop_
 _atom_site_type_symbol
 _atom_site_label
 _atom_site_symmetry_multiplicity
 _atom_site_fract_x
 _atom_site_fract_y
 _atom_site_fract_z
 _atom_site_occupancy
  In  In0  1  0.00742327  0.16994730  0.11976037  1
  In  In1  1  -0.00055472  0.17155917  0.62644308  1
  In  In2  1  -0.00550009  0.48963759  0.12299388  1
  In  In3  1  -0.00551160  0.50967726  0.63353931  1
  In  In4  1  -0.00193052  0.84580967  0.11701082  1
  In  In5  1  -0.02711327  0.84606753  0.64637979  1
  In  In6  1  0.33098342  0.17083852  0.11553028  1
  In  In7  1  0.32445002  0.16388611  0.61858562  1
  In  In8  1  0.34134026  0.50372386  0.12128783  1
  In  In9  1  0.34672543  0.51016127  0.61858259  1
  In  In10  1  0.32663734  0.82348629  0.12568068  1
  In  In11  1  0.34218394  0.82668101  0.62802629  1
  In  In12  1  0.66371786  0.18215666  0.13127586  1
  In  In13  1  0.65601326  0.15399815  0.61913830  1
  In  In14  1  0.66361830  0.50704731  0.13490674  1
  In  In15  1  0.65974872  0.49556621  0.61448620  1
  In  In16  1  0.66549648  0.81823032  0.12503888  1
  In  In17  1  0.67333902  0.84479809  0.62389529  1
  In  In18  1  0.17942113  0.00358236  0.37893074  1
  In  In19  1  0.17505164  0.01118750  0.85806301  1
  In  In20  1  0.15314666  0.33984374  0.37413136  1
  In  In21  1  0.16353618  0.33536508  0.87692314  1
  In  In22  1  0.17658765  0.64993076  0.37241994  1
  In  In23  1  0.16078793  0.65533230  0.87241245  1
  In  In24  1  0.49533582  0.00573097  0.38705943  1
  In  In25  1  0.50800067  0.00535990  0.86583361  1
  In  In26  1  0.50973093  0.32302235  0.38515554  1
  In  In27  1  0.49177869  0.33706502  0.88197074  1
  In  In28  1  0.50055313  0.65574531  0.38015311  1
  In  In29  1  0.49157160  0.66120255  0.87122710  1
  In  In30  1  0.83626086  -0.00114874  0.38843053  1
  In  In31  1  0.83075811  -0.01086331  0.85937433  1
  In  In32  1  0.83783948  0.33660756  0.37860882  1
  In  In33  1  0.83403617  0.32156099  0.87102724  1
  In  In34  1  0.82380709  0.67633306  0.38394911  1
  In  In35  1  0.85607888  0.67693654  0.87166972  1
  In  In36  1  -0.00737000  0.17417917  0.38652378  1
  In  In37  1  0.01372293  0.17560276  0.85363273  1
  In  In38  1  0.01083700  0.48489588  0.37605557  1
  In  In39  1  0.01954328  0.51345227  0.86832990  1
  In  In40  1  -0.00842640  0.82434041  0.38264404  1
  In  In41  1  -0.00908560  0.82627084  0.86058688  1
  In  In42  1  0.32966863  0.17744895  0.39644903  1
  In  In43  1  0.33505486  0.16617564  0.87572215  1
  In  In44  1  0.33286724  0.51222552  0.37757380  1
  In  In45  1  0.33015968  0.49963215  0.87886169  1
  In  In46  1  0.35173972  0.81688399  0.39057030  1
  In  In47  1  0.33055562  0.82836706  0.86113272  1
  In  In48  1  0.66245075  0.17757936  0.38267488  1
  In  In49  1  0.66589687  0.15570113  0.87284348  1
  In  In50  1  0.66931939  0.50048140  0.37831773  1
  In  In51  1  0.66087696  0.49586891  0.87808094  1
  In  In52  1  0.67111468  0.82354631  0.38160767  1
  In  In53  1  0.67188881  0.84207695  0.86993624  1
  In  In54  1  0.15479001  0.00649732  0.11509575  1
  In  In55  1  0.15641539  0.02515030  0.64232302  1
  In  In56  1  0.16030138  0.33067773  0.11811272  1
  In  In57  1  0.16755825  0.31249346  0.62721095  1
  In  In58  1  0.17997506  0.66423807  0.12583773  1
  In  In59  1  0.16408308  0.66698827  0.63387258  1
  In  In60  1  0.48855373  0.00135156  0.12123747  1
  In  In61  1  0.50085964  -0.00001137  0.62776043  1
  In  In62  1  0.49970498  0.34228467  0.12387949  1
  In  In63  1  0.49238144  0.34023619  0.60739515  1
  In  In64  1  0.51090735  0.65425674  0.13384085  1
  In  In65  1  0.47830834  0.66178196  0.61037053  1
  In  In66  1  0.84459042  -0.00126836  0.11780583  1
  In  In67  1  0.82557231  -0.00278441  0.62603125  1
  In  In68  1  0.82908003  0.34011128  0.13774648  1
  In  In69  1  0.84094471  0.34270225  0.61860166  1
  In  In70  1  0.82428209  0.66125163  0.12336387  1
  In  In71  1  0.83730265  0.67297582  0.61996332  1
  In  In72  1  0.83414715  0.16080480  -0.00464598  1
  In  In73  1  0.33153366  0.33453153  0.74693863  1
  In  In74  1  0.15969042  0.84127930  0.51139657  1
  In  In75  1  -0.00258758  0.66259115  0.24836026  1
  In  In76  1  0.83681855  0.50212639  -0.00043368  1
  In  In77  1  0.33113102  0.33786775  0.25274480  1
  In  In78  1  0.00217536  0.00233916  0.24425164  1
  In  In79  1  0.16370740  0.83377794  -0.00496608  1
  In  In80  1  0.33391491  -0.00351252  0.25061297  1
  In  In81  1  0.17058904  0.49582937  0.49997352  1
  In  In82  1  0.50348766  0.83320761  -0.00695336  1
  In  In83  1  0.66675374  0.66854465  0.74616152  1
  In  In84  1  0.66115923  0.33134950  0.73426476  1
  In  In85  1  0.66611759  -0.00143203  0.25954401  1
  Cu  Cu86  1  0.83305363  0.50096693  0.25680367  1
  Cu  Cu87  1  -0.00109877  0.00006380  -0.01339831  1
  Cu  Cu88  1  -0.00008721  0.33228336  -0.00504360  1
  Cu  Cu89  1  0.49979363  0.16873797  0.25842051  1
  Cu  Cu90  1  0.32620166  0.33034077  -0.00112305  1
  Cu  Cu91  1  0.66592804  0.00344356  -0.00882948  1
  Cu  Cu92  1  0.17168481  0.49698815  0.75152995  1
  Cu  Cu93  1  0.50214635  0.83085169  0.74547325  1
  Cu  Cu94  1  -0.00045502  0.00136996  0.51393660  1
  Cu  Cu95  1  0.33081514  0.00281949  0.50998578  1
  Cu  Cu96  1  0.16081577  0.17085770  0.24739408  1
  Cu  Cu97  1  0.67622248  0.33352236  0.49854788  1
  Cu  Cu98  1  0.33901678  0.66103670  -0.00021049  1
  Cu  Cu99  1  0.49863088  0.16765698  0.74865171  1
  Cu  Cu100  1  0.83407620  0.49577069  0.74810139  1
  Cu  Cu101  1  0.17698036  0.82255671  0.25215415  1
  Cu  Cu102  1  0.33277944  0.00685436  -0.00881991  1
  Cu  Cu103  1  0.83481429  0.16029041  0.74539807  1
  Cu  Cu104  1  0.17290672  0.83456052  0.74727781  1
  Cu  Cu105  1  0.83606471  0.17929196  0.25886255  1
  Cu  Cu106  1  -0.00618677  0.66825965  0.50847303  1
  Cu  Cu107  1  0.66674901  -0.00254101  0.50194167  1
  Cu  Cu108  1  0.00208799  0.33319504  0.50258467  1
  Cu  Cu109  1  0.65396101  0.33459466  0.00507244  1
  Cu  Cu110  1  0.50632798  0.49726906  0.25385557  1
  Cu  Cu111  1  0.66081987  0.66811513  0.50186232  1
  Cu  Cu112  1  0.50044424  0.81666032  0.25796313  1
  Cu  Cu113  1  0.82798678  0.83208529  0.25299274  1
  Cu  Cu114  1  0.67125363  0.66445131  0.00476158  1
  Se  Se115  1  0.07598052  0.08599927  0.04376359  1
  Se  Se116  1  0.08645914  0.08878477  0.55728997  1
  Se  Se117  1  0.07919478  0.41727064  0.04994926  1
  Se  Se118  1  0.07960531  0.41413298  0.56529385  1
  Se  Se119  1  0.08167026  0.74562242  0.06155274  1
  Se  Se120  1  0.06978560  0.75006977  0.56905835  1
  Se  Se121  1  0.41564981  0.08504241  0.04999814  1
  Se  Se122  1  0.42132997  0.08551651  0.55762686  1
  Se  Se123  1  0.41303517  0.41298164  0.05152355  1
  Se  Se124  1  0.41333843  0.42788317  0.54250014  1
  Se  Se125  1  0.41909612  0.74362186  0.05913801  1
  Se  Se126  1  0.41131903  0.76010961  0.54492630  1
  Se  Se127  1  0.73922075  0.08009985  0.06138950  1
  Se  Se128  1  0.75116802  0.08256242  0.55276670  1
  Se  Se129  1  0.74375829  0.41275160  0.05996044  1
  Se  Se130  1  0.75533081  0.42220977  0.55027806  1
  Se  Se131  1  0.75489312  0.75280576  0.05204958  1
  Se  Se132  1  0.74567809  0.75053388  0.55562919  1
  Se  Se133  1  0.24052413  0.24552008  0.04924808  1
  Se  Se134  1  0.25630076  0.25804390  0.55081094  1
  Se  Se135  1  0.25201710  0.58089337  0.05204877  1
  Se  Se136  1  0.25017285  0.59699471  0.55637275  1
  Se  Se137  1  0.25918744  0.92495139  0.05638692  1
  Se  Se138  1  0.24920648  0.92808538  0.57236343  1
  Se  Se139  1  0.57555221  0.24676881  0.05802710  1
  Se  Se140  1  0.59041693  0.25491802  0.55390067  1
  Se  Se141  1  0.58756158  0.58090928  0.05632555  1
  Se  Se142  1  0.57613379  0.58247945  0.55056406  1
  Se  Se143  1  0.59141299  0.92285916  0.05807870  1
  Se  Se144  1  0.58091818  0.91697753  0.55564948  1
  Se  Se145  1  0.91294475  0.26070285  0.05758135  1
  Se  Se146  1  0.91649922  0.24916938  0.55337545  1
  Se  Se147  1  0.92659340  0.59433771  0.05735883  1
  Se  Se148  1  0.91286124  0.57644302  0.55543219  1
  Se  Se149  1  0.91620907  0.91890613  0.04242179  1
  Se  Se150  1  0.91361889  0.91310855  0.55831700  1
  Se  Se151  1  0.08784263  0.25214785  0.44884052  1
  Se  Se152  1  0.07705434  0.24564334  0.93957635  1
  Se  Se153  1  0.07449026  0.59185421  0.44511572  1
  Se  Se154  1  0.08504704  0.58464309  0.95001406  1
  Se  Se155  1  0.07305997  0.92806744  0.44142733  1
  Se  Se156  1  0.08450322  0.92313821  0.92863605  1
  Se  Se157  1  0.42895619  0.24525535  0.45661472  1
  Se  Se158  1  0.41375297  0.24824533  0.94757586  1
  Se  Se159  1  0.40962269  0.58698818  0.45157606  1
  Se  Se160  1  0.42223881  0.57818176  0.94629137  1
  Se  Se161  1  0.41222190  0.92149500  0.45334089  1
  Se  Se162  1  0.40928377  0.92008913  0.93482021  1
  Se  Se163  1  0.75994758  0.24766773  0.44741666  1
  Se  Se164  1  0.73645151  0.25713165  0.94424428  1
  Se  Se165  1  0.74809483  0.58524009  0.44997271  1
  Se  Se166  1  0.74936745  0.59202842  0.93631027  1
  Se  Se167  1  0.74954585  0.91215730  0.44908474  1
  Se  Se168  1  0.75255325  0.92184308  0.94129938  1
  Se  Se169  1  0.24540703  0.08426242  0.45568004  1
  Se  Se170  1  0.24322465  0.08485032  0.94040686  1
  Se  Se171  1  0.25846503  0.40632716  0.43826174  1
  Se  Se172  1  0.24579841  0.41691918  0.94580851  1
  Se  Se173  1  0.23916048  0.74705983  0.44536308  1
  Se  Se174  1  0.26113744  0.74447996  0.94064549  1
  Se  Se175  1  0.58680353  0.08569636  0.44901564  1
  Se  Se176  1  0.57711257  0.08596898  0.94473851  1
  Se  Se177  1  0.58849696  0.41668018  0.44804465  1
  Se  Se178  1  0.57737203  0.42055111  0.94907878  1
  Se  Se179  1  0.57772852  0.75012404  0.44675681  1
  Se  Se180  1  0.59485534  0.74005110  0.93652751  1
  Se  Se181  1  0.91876690  0.08332429  0.45429829  1
  Se  Se182  1  0.91971426  0.08214805  0.92650401  1
  Se  Se183  1  0.92176976  0.41935367  0.44880036  1
  Se  Se184  1  0.91971417  0.41192523  0.93421750  1
  Se  Se185  1  0.90990600  0.75310851  0.45587163  1
  Se  Se186  1  0.92722586  0.75688634  0.94558506  1
  Se  Se187  1  0.24623081  0.23987995  0.31129785  1
  Se  Se188  1  0.24306806  0.24472669  0.80609363  1
  Se  Se189  1  0.24566150  0.56831823  0.29934816  1
  Se  Se190  1  0.25396226  0.58134451  0.80541102  1
  Se  Se191  1  0.25321166  0.90256079  0.31505997  1
  Se  Se192  1  0.25873994  0.92130591  0.79512135  1
  Se  Se193  1  0.58688700  0.25268620  0.30543509  1
  Se  Se194  1  0.57822898  0.25016623  0.80854152  1
  Se  Se195  1  0.58741229  0.58304306  0.30748769  1
  Se  Se196  1  0.57869944  0.57337521  0.80376667  1
  Se  Se197  1  0.57028151  0.90979865  0.31499572  1
  Se  Se198  1  0.58454970  0.91434080  0.79971239  1
  Se  Se199  1  0.92648664  0.25638361  0.30893242  1
  Se  Se200  1  0.91295663  0.25196841  0.79501866  1
  Se  Se201  1  0.91206783  0.58164398  0.31790803  1
  Se  Se202  1  0.91595473  0.57710061  0.80421486  1
  Se  Se203  1  0.91246405  0.91292549  0.30846338  1
  Se  Se204  1  0.92244839  0.91828793  0.79218974  1
  Se  Se205  1  0.08813366  0.08713587  0.31072740  1
  Se  Se206  1  0.07254983  0.06988861  0.79260096  1
  Se  Se207  1  0.08887188  0.42085778  0.29729982  1
  Se  Se208  1  0.08531830  0.41385546  0.80241960  1
  Se  Se209  1  0.08750506  0.75395331  0.31182405  1
  Se  Se210  1  0.09332530  0.75053856  0.80387938  1
  Se  Se211  1  0.41322750  0.09243623  0.31461067  1
  Se  Se212  1  0.41563612  0.08612495  0.80364943  1
  Se  Se213  1  0.42658972  0.41806300  0.31534294  1
  Se  Se214  1  0.42323825  0.42351622  0.80595786  1
  Se  Se215  1  0.41299487  0.73804555  0.30968831  1
  Se  Se216  1  0.42035065  0.74556426  0.79851440  1
  Se  Se217  1  0.76096779  0.08912750  0.31416692  1
  Se  Se218  1  0.74683344  0.08339357  0.79950609  1
  Se  Se219  1  0.75130961  0.41540645  0.30921215  1
  Se  Se220  1  0.74929476  0.41639791  0.80497601  1
  Se  Se221  1  0.74692732  0.74745094  0.30457717  1
  Se  Se222  1  0.76038273  0.75530335  0.80460688  1
  Se  Se223  1  0.24100935  0.08712718  0.18938611  1
  Se  Se224  1  0.26225487  0.09013430  0.70099278  1
  Se  Se225  1  0.24600477  0.41953053  0.18548354  1
  Se  Se226  1  0.24622966  0.42500998  0.68283403  1
  Se  Se227  1  0.26038341  0.73951471  0.20094889  1
  Se  Se228  1  0.25543275  0.74769025  0.69695470  1
  Se  Se229  1  0.57302344  0.08375866  0.19551987  1
  Se  Se230  1  0.58464548  0.08185669  0.69935594  1
  Se  Se231  1  0.58518799  0.41249233  0.19756556  1
  Se  Se232  1  0.56574907  0.42560981  0.68697429  1
  Se  Se233  1  0.58893210  0.74447219  0.20077847  1
  Se  Se234  1  0.57647179  0.75057100  0.68147415  1
  Se  Se235  1  0.90632184  0.09798379  0.19128857  1
  Se  Se236  1  0.91725756  0.07972225  0.69024844  1
  Se  Se237  1  0.91777734  0.42037259  0.20223207  1
  Se  Se238  1  0.91933594  0.41205216  0.69716601  1
  Se  Se239  1  0.91269070  0.76116643  0.18894841  1
  Se  Se240  1  0.92337859  0.72761848  0.69916891  1
  Se  Se241  1  0.07943558  0.25309135  0.19321671  1
  Se  Se242  1  0.08423082  0.24411293  0.70022030  1
  Se  Se243  1  0.08747828  0.57633587  0.18833781  1
  Se  Se244  1  0.08408043  0.58283312  0.70284515  1
  Se  Se245  1  0.09943982  0.90587128  0.19207929  1
  Se  Se246  1  0.08682336  0.91462681  0.69487111  1
  Se  Se247  1  0.41839806  0.24177493  0.19326997  1
  Se  Se248  1  0.42618058  0.24996936  0.68617448  1
  Se  Se249  1  0.41975798  0.57672655  0.19881175  1
  Se  Se250  1  0.41438201  0.59092348  0.69433409  1
  Se  Se251  1  0.42725929  0.90066652  0.19405106  1
  Se  Se252  1  0.41715988  0.91716391  0.69647960  1
  Se  Se253  1  0.74677793  0.25434878  0.20417047  1
  Se  Se254  1  0.75688428  0.24083606  0.68233974  1
  Se  Se255  1  0.75309121  0.58652787  0.20133328  1
  Se  Se256  1  0.75196752  0.57169846  0.68717193  1
  Se  Se257  1  0.75548584  0.91696726  0.18997862  1
  Se  Se258  1  0.75416134  0.91227265  0.69995317  1
