# generated using pymatgen
data_In86Cu29Se144
_symmetry_space_group_name_H-M   'P 1'
_cell_length_a   17.57811723
_cell_length_b   17.57373152
_cell_length_c   23.43796651
_cell_angle_alpha   90.00409635
_cell_angle_beta   90.01965095
_cell_angle_gamma   90.02235467
_symmetry_Int_Tables_number   1
_chemical_formula_structural   In86Cu29Se144
_chemical_formula_sum   'In86 Cu29 Se144'
_cell_volume   7240.29419753
_cell_formula_units_Z   1
loop_
 _symmetry_equiv_pos_site_id
 _symmetry_equiv_pos_as_xyz
  1  'x, y, z'
loop_
 _atom_site_type_symbol
 _atom_site_label
 _atom_site_symmetry_multiplicity
 _atom_site_fract_x
 _atom_site_fract_y
 _atom_site_fract_z
 _atom_site_occupancy
  In  In0  1  0.00845913  0.15917509  0.14557815  1
  In  In1  1  -0.01753697  0.16479275  0.61525456  1
  In  In2  1  0.01600166  0.49278309  0.13369259  1
  In  In3  1  0.01059573  0.49499053  0.62344895  1
  In  In4  1  -0.01506740  0.84592634  0.13346223  1
  In  In5  1  0.00908385  0.84271366  0.61603062  1
  In  In6  1  0.35152502  0.16630000  0.12709641  1
  In  In7  1  0.34228722  0.15914310  0.63085508  1
  In  In8  1  0.33527908  0.50346762  0.12134385  1
  In  In9  1  0.33402273  0.48458672  0.63985604  1
  In  In10  1  0.33374139  0.82107818  0.12556466  1
  In  In11  1  0.32934505  0.83606217  0.63065505  1
  In  In12  1  0.65712632  0.16582697  0.12726968  1
  In  In13  1  0.65988582  0.15872921  0.62058663  1
  In  In14  1  0.65265732  0.51030782  0.11756395  1
  In  In15  1  0.66285118  0.52010297  0.62756373  1
  In  In16  1  0.67781984  0.83212538  0.11032710  1
  In  In17  1  0.67136645  0.82533030  0.62861254  1
  In  In18  1  0.14489832  0.00148585  0.37390597  1
  In  In19  1  0.16617193  -0.00493090  0.86839259  1
  In  In20  1  0.16489558  0.31940893  0.35537374  1
  In  In21  1  0.18019114  0.33642972  0.87123613  1
  In  In22  1  0.17285488  0.67315285  0.37136508  1
  In  In23  1  0.17421298  0.64926268  0.88053410  1
  In  In24  1  0.52197525  -0.00260354  0.37180488  1
  In  In25  1  0.50289993  -0.00076753  0.87633508  1
  In  In26  1  0.48823258  0.33857058  0.38179292  1
  In  In27  1  0.48758487  0.34706771  0.88550139  1
  In  In28  1  0.48332433  0.67042304  0.37276076  1
  In  In29  1  0.49851977  0.67119108  0.87257410  1
  In  In30  1  0.83162604  0.00362485  0.37415293  1
  In  In31  1  0.82622764  -0.00919472  0.86654074  1
  In  In32  1  0.83918397  0.32022138  0.38015955  1
  In  In33  1  0.83861360  0.33637119  0.87555032  1
  In  In34  1  0.84566638  0.66711857  0.37393373  1
  In  In35  1  0.83659965  0.68947781  0.87754823  1
  In  In36  1  -0.00534945  0.15580674  0.35859909  1
  In  In37  1  0.01274811  0.16165954  0.87439510  1
  In  In38  1  0.00152470  0.50269348  0.36618518  1
  In  In39  1  0.00375855  0.51170321  0.88356817  1
  In  In40  1  -0.00385133  0.83314500  0.37757891  1
  In  In41  1  -0.01066396  0.83898607  0.88086832  1
  In  In42  1  0.32655982  0.17892391  0.37425299  1
  In  In43  1  0.34031914  0.17515621  0.87061286  1
  In  In44  1  0.33565583  0.50301188  0.37243037  1
  In  In45  1  0.33109654  0.50430664  0.86972535  1
  In  In46  1  0.33754624  0.81823241  0.37228210  1
  In  In47  1  0.34885357  0.84568461  0.86774553  1
  In  In48  1  0.67347342  0.15594576  0.38432664  1
  In  In49  1  0.66828118  0.15052347  0.87224084  1
  In  In50  1  0.65518954  0.48782217  0.37825888  1
  In  In51  1  0.64779662  0.50560776  0.87951739  1
  In  In52  1  0.66681717  0.86328268  0.36918868  1
  In  In53  1  0.66217872  0.83274517  0.87456447  1
  In  In54  1  0.15653343  -0.00747067  0.12823670  1
  In  In55  1  0.17453842  -0.01077502  0.62960816  1
  In  In56  1  0.16189693  0.33844666  0.13557484  1
  In  In57  1  0.17635281  0.33945251  0.62465559  1
  In  In58  1  0.18050197  0.65973606  0.13076044  1
  In  In59  1  0.16300838  0.67375115  0.62787354  1
  In  In60  1  0.50714418  0.00311349  0.11954659  1
  In  In61  1  0.49661043  0.00587921  0.63131483  1
  In  In62  1  0.49324413  0.33141349  0.12128895  1
  In  In63  1  0.48884581  0.32549208  0.62039797  1
  In  In64  1  0.50066080  0.65858991  0.11017993  1
  In  In65  1  0.49975958  0.65989199  0.62903207  1
  In  In66  1  0.84575689  -0.01067588  0.13323558  1
  In  In67  1  0.83249063  -0.00224507  0.62288082  1
  In  In68  1  0.84242422  0.32777465  0.13530110  1
  In  In69  1  0.84178200  0.32142245  0.61583635  1
  In  In70  1  0.82927888  0.68854303  0.12410412  1
  In  In71  1  0.81809193  0.67011106  0.62422728  1
  In  In72  1  0.83004866  0.50433052  0.00892885  1
  In  In73  1  0.83403041  0.16245324  0.00013653  1
  In  In74  1  0.16987198  0.49594967  0.50327805  1
  In  In75  1  0.67323415  0.32782690  0.25366778  1
  In  In76  1  0.16644519  0.83067390  0.00146510  1
  In  In77  1  0.17041082  0.16417540  0.01272256  1
  In  In78  1  0.00254580  0.67456173  0.75171179  1
  In  In79  1  0.15946289  0.16451053  0.49049819  1
  In  In80  1  0.00451451  0.32649104  0.74334031  1
  In  In81  1  0.66532941  0.67167595  0.24117850  1
  In  In82  1  0.82732432  0.50077870  0.50199670  1
  In  In83  1  0.65951766  0.33333722  0.75050828  1
  In  In84  1  0.50232904  0.83544751  0.49432495  1
  In  In85  1  0.32579068  0.00476433  0.24990922  1
  Cu  Cu86  1  0.50291244  0.16738790  0.25075468  1
  Cu  Cu87  1  0.00063807  0.67244454  0.49973016  1
  Cu  Cu88  1  0.00363305  0.66994881  0.00607096  1
  Cu  Cu89  1  0.49714479  0.16753830  0.75179937  1
  Cu  Cu90  1  -0.00617238  -0.00305418  0.49640001  1
  Cu  Cu91  1  0.82961673  0.50449061  0.74780484  1
  Cu  Cu92  1  0.33389424  0.33346697  0.49920048  1
  Cu  Cu93  1  0.66134057  0.67248927  0.50127282  1
  Cu  Cu94  1  0.49491052  0.50258468  0.75507949  1
  Cu  Cu95  1  0.33855900  0.00377225  -0.00280351  1
  Cu  Cu96  1  0.33904914  0.66541253  -0.00339000  1
  Cu  Cu97  1  0.49449436  0.50239550  0.24736759  1
  Cu  Cu98  1  0.50217176  0.83315589  0.75073704  1
  Cu  Cu99  1  0.66634049  -0.00238262  -0.00389021  1
  Cu  Cu100  1  0.83369521  0.83769344  0.25180984  1
  Cu  Cu101  1  0.16910463  0.15661210  0.74759525  1
  Cu  Cu102  1  0.66100580  0.32850460  0.00365365  1
  Cu  Cu103  1  0.33592062  0.34231567  -0.00200712  1
  Cu  Cu104  1  0.33213464  0.66421337  0.49761159  1
  Cu  Cu105  1  0.83952288  0.50159530  0.24787447  1
  Cu  Cu106  1  0.83399436  0.15538471  0.74483307  1
  Cu  Cu107  1  0.33440765  -0.00206203  0.50661755  1
  Cu  Cu108  1  0.17592763  0.50730597  0.24963927  1
  Cu  Cu109  1  0.17036546  0.82976811  0.75193291  1
  Cu  Cu110  1  0.01036507  0.33296059  0.01087876  1
  Cu  Cu111  1  0.65701867  0.33193637  0.50112064  1
  Cu  Cu112  1  0.67134898  0.00412719  0.50139147  1
  Cu  Cu113  1  0.15810635  0.83131948  0.25043324  1
  Cu  Cu114  1  0.83264978  0.84070158  0.74919120  1
  Se  Se115  1  0.06745729  0.07595191  0.05968510  1
  Se  Se116  1  0.08025652  0.07273073  0.55790553  1
  Se  Se117  1  0.09493200  0.42016297  0.05672582  1
  Se  Se118  1  0.07393710  0.39782531  0.55223279  1
  Se  Se119  1  0.08067476  0.74941628  0.06997304  1
  Se  Se120  1  0.08931773  0.75090900  0.55205631  1
  Se  Se121  1  0.42193618  0.08654927  0.05107912  1
  Se  Se122  1  0.41921161  0.08261471  0.55506893  1
  Se  Se123  1  0.42205839  0.42309314  0.05240814  1
  Se  Se124  1  0.40897911  0.41942417  0.55726784  1
  Se  Se125  1  0.41641053  0.75334249  0.04989480  1
  Se  Se126  1  0.41368683  0.74725777  0.55731046  1
  Se  Se127  1  0.74443522  0.07549271  0.06117262  1
  Se  Se128  1  0.75542173  0.08831313  0.55418019  1
  Se  Se129  1  0.74430011  0.40313118  0.06595692  1
  Se  Se130  1  0.73657980  0.41114438  0.56450458  1
  Se  Se131  1  0.74270496  0.73296600  0.04392091  1
  Se  Se132  1  0.74955570  0.75452847  0.54941784  1
  Se  Se133  1  0.26235844  0.26112279  0.06354126  1
  Se  Se134  1  0.25371862  0.24780800  0.55617870  1
  Se  Se135  1  0.25199828  0.58662434  0.05105361  1
  Se  Se136  1  0.25710269  0.58644784  0.56362479  1
  Se  Se137  1  0.25773892  0.92603635  0.05913760  1
  Se  Se138  1  0.25079745  0.91115608  0.55413552  1
  Se  Se139  1  0.57771510  0.24528012  0.05570897  1
  Se  Se140  1  0.57722370  0.24563172  0.55509993  1
  Se  Se141  1  0.59038037  0.58809367  0.03934683  1
  Se  Se142  1  0.57904606  0.58627888  0.55121653  1
  Se  Se143  1  0.58292724  0.91513514  0.05022052  1
  Se  Se144  1  0.58823770  0.92194525  0.56039636  1
  Se  Se145  1  0.92807995  0.24773139  0.06287767  1
  Se  Se146  1  0.91788371  0.24990481  0.54055917  1
  Se  Se147  1  0.92599750  0.58777361  0.06824796  1
  Se  Se148  1  0.92372630  0.59031578  0.56194873  1
  Se  Se149  1  0.91064907  0.91169330  0.05336423  1
  Se  Se150  1  0.91227025  0.91384540  0.55173318  1
  Se  Se151  1  0.07421358  0.25522767  0.43068776  1
  Se  Se152  1  0.08567189  0.25613098  0.94457078  1
  Se  Se153  1  0.07971021  0.58723302  0.44300845  1
  Se  Se154  1  0.08690333  0.58417563  0.95634932  1
  Se  Se155  1  0.08233217  0.91301554  0.44842107  1
  Se  Se156  1  0.07885264  0.92755206  0.94636976  1
  Se  Se157  1  0.41472539  0.24444585  0.44895194  1
  Se  Se158  1  0.41496517  0.24879212  0.94911094  1
  Se  Se159  1  0.41683737  0.58150734  0.44604275  1
  Se  Se160  1  0.41763720  0.58149725  0.93963843  1
  Se  Se161  1  0.41050355  0.92526008  0.43599325  1
  Se  Se162  1  0.42117284  0.91651437  0.94781401  1
  Se  Se163  1  0.74538794  0.25362382  0.44894783  1
  Se  Se164  1  0.74335167  0.25731834  0.94015356  1
  Se  Se165  1  0.73949560  0.59000661  0.43796475  1
  Se  Se166  1  0.75405384  0.58576857  0.93518070  1
  Se  Se167  1  0.75248080  0.91917418  0.44792239  1
  Se  Se168  1  0.75054290  0.91542818  0.94252280  1
  Se  Se169  1  0.25585474  0.07153738  0.43813605  1
  Se  Se170  1  0.25224417  0.08081638  0.94054154  1
  Se  Se171  1  0.24949181  0.40521178  0.43595732  1
  Se  Se172  1  0.25070049  0.42139835  0.94359000  1
  Se  Se173  1  0.25066422  0.75058764  0.44687096  1
  Se  Se174  1  0.25977090  0.75022826  0.93730757  1
  Se  Se175  1  0.57917387  0.08245456  0.45165226  1
  Se  Se176  1  0.58322781  0.08562533  0.94719738  1
  Se  Se177  1  0.57298391  0.41876404  0.45284733  1
  Se  Se178  1  0.58184833  0.41808967  0.95305443  1
  Se  Se179  1  0.59144616  0.74861594  0.43115023  1
  Se  Se180  1  0.57576617  0.75529534  0.94274965  1
  Se  Se181  1  0.92092208  0.08570740  0.43992809  1
  Se  Se182  1  0.92003280  0.07644474  0.93576009  1
  Se  Se183  1  0.92218720  0.41936844  0.44155204  1
  Se  Se184  1  0.92584532  0.41001418  0.95039455  1
  Se  Se185  1  0.91182604  0.75180223  0.44911493  1
  Se  Se186  1  0.91970645  0.75401080  0.95526071  1
  Se  Se187  1  0.26542224  0.25345090  0.29282414  1
  Se  Se188  1  0.24714920  0.24497995  0.80104260  1
  Se  Se189  1  0.25754973  0.59047267  0.30464766  1
  Se  Se190  1  0.24511053  0.58250147  0.80039326  1
  Se  Se191  1  0.24063110  0.91037177  0.31210491  1
  Se  Se192  1  0.25387225  0.91801682  0.80128174  1
  Se  Se193  1  0.57863430  0.24682599  0.31602410  1
  Se  Se194  1  0.57475807  0.24721512  0.81602164  1
  Se  Se195  1  0.57994612  0.57906632  0.30650979  1
  Se  Se196  1  0.58274031  0.58645704  0.80216022  1
  Se  Se197  1  0.56304775  0.89818365  0.29727420  1
  Se  Se198  1  0.58391199  0.91872641  0.80415425  1
  Se  Se199  1  0.91206851  0.25224879  0.30140756  1
  Se  Se200  1  0.90999266  0.23912493  0.80648781  1
  Se  Se201  1  0.92024714  0.58900747  0.29912038  1
  Se  Se202  1  0.91013993  0.58070642  0.81038826  1
  Se  Se203  1  0.91718533  0.91846277  0.30766711  1
  Se  Se204  1  0.92326102  0.91765406  0.80114594  1
  Se  Se205  1  0.10434192  0.09827655  0.29870655  1
  Se  Se206  1  0.08148115  0.07798503  0.80015743  1
  Se  Se207  1  0.08947024  0.42347052  0.30013005  1
  Se  Se208  1  0.07804945  0.41962346  0.81194239  1
  Se  Se209  1  0.07768780  0.74823873  0.30769490  1
  Se  Se210  1  0.09121575  0.75690217  0.81902658  1
  Se  Se211  1  0.42264366  0.08724982  0.31243717  1
  Se  Se212  1  0.41718173  0.08147061  0.80684004  1
  Se  Se213  1  0.41736718  0.41745769  0.30408711  1
  Se  Se214  1  0.41391060  0.41297474  0.80406338  1
  Se  Se215  1  0.41989775  0.75290468  0.29661739  1
  Se  Se216  1  0.41481461  0.74906171  0.79998010  1
  Se  Se217  1  0.72707742  0.06412100  0.30939657  1
  Se  Se218  1  0.74647547  0.07707599  0.79749470  1
  Se  Se219  1  0.76028814  0.42580741  0.31170542  1
  Se  Se220  1  0.75249923  0.42424201  0.81062727  1
  Se  Se221  1  0.75205822  0.75521798  0.31049699  1
  Se  Se222  1  0.75146863  0.75524415  0.80282549  1
  Se  Se223  1  0.24189462  0.09329779  0.18463910  1
  Se  Se224  1  0.25636194  0.07542266  0.69598240  1
  Se  Se225  1  0.25630613  0.42272020  0.19430468  1
  Se  Se226  1  0.23728807  0.41518048  0.70481204  1
  Se  Se227  1  0.24961206  0.75311990  0.20077601  1
  Se  Se228  1  0.25138083  0.74608029  0.69803189  1
  Se  Se229  1  0.58144933  0.08054396  0.19803161  1
  Se  Se230  1  0.58383707  0.08699016  0.69902761  1
  Se  Se231  1  0.58275455  0.42122291  0.19347015  1
  Se  Se232  1  0.57380275  0.42516293  0.68920124  1
  Se  Se233  1  0.57787134  0.75568059  0.17840322  1
  Se  Se234  1  0.58166178  0.74778098  0.69461772  1
  Se  Se235  1  0.91219858  0.08094411  0.20312743  1
  Se  Se236  1  0.92150096  0.07801567  0.69174700  1
  Se  Se237  1  0.92371967  0.41482136  0.19940526  1
  Se  Se238  1  0.90677619  0.42232997  0.68946033  1
  Se  Se239  1  0.91554523  0.74929706  0.20140349  1
  Se  Se240  1  0.91176871  0.75797112  0.68755561  1
  Se  Se241  1  0.08351944  0.25604543  0.20447101  1
  Se  Se242  1  0.09144180  0.23432743  0.68224600  1
  Se  Se243  1  0.08687680  0.58909721  0.19933939  1
  Se  Se244  1  0.08937603  0.57499869  0.69705777  1
  Se  Se245  1  0.07602634  0.92032866  0.20292490  1
  Se  Se246  1  0.08489235  0.91021718  0.69680659  1
  Se  Se247  1  0.42156779  0.25419203  0.19975467  1
  Se  Se248  1  0.41423645  0.25263600  0.69919389  1
  Se  Se249  1  0.42098054  0.58795498  0.18857327  1
  Se  Se250  1  0.41207961  0.58384956  0.69826507  1
  Se  Se251  1  0.41505154  0.91900116  0.18735736  1
  Se  Se252  1  0.41782939  0.91599549  0.69653202  1
  Se  Se253  1  0.75945493  0.23215673  0.19658011  1
  Se  Se254  1  0.75587978  0.24684104  0.69150065  1
  Se  Se255  1  0.75708167  0.57494302  0.18569334  1
  Se  Se256  1  0.74564596  0.59252093  0.70151319  1
  Se  Se257  1  0.74714982  0.90886386  0.19106624  1
  Se  Se258  1  0.74707791  0.91922011  0.69337841  1
