# generated using pymatgen
data_In86Cu29Se144
_symmetry_space_group_name_H-M   'P 1'
_cell_length_a   17.58454051
_cell_length_b   17.58242644
_cell_length_c   23.44555345
_cell_angle_alpha   90.01573444
_cell_angle_beta   90.00358711
_cell_angle_gamma   90.01548711
_symmetry_Int_Tables_number   1
_chemical_formula_structural   In86Cu29Se144
_chemical_formula_sum   'In86 Cu29 Se144'
_cell_volume   7248.86963536
_cell_formula_units_Z   1
loop_
 _symmetry_equiv_pos_site_id
 _symmetry_equiv_pos_as_xyz
  1  'x, y, z'
loop_
 _atom_site_type_symbol
 _atom_site_label
 _atom_site_symmetry_multiplicity
 _atom_site_fract_x
 _atom_site_fract_y
 _atom_site_fract_z
 _atom_site_occupancy
  In  In0  1  -0.00243411  0.16610887  0.12537555  1
  In  In1  1  -0.01395493  0.16485257  0.62405776  1
  In  In2  1  0.00627995  0.48303401  0.12961276  1
  In  In3  1  0.00269354  0.49415370  0.61484516  1
  In  In4  1  0.01435706  0.85247362  0.11654159  1
  In  In5  1  0.01447684  0.83153450  0.62664282  1
  In  In6  1  0.31836303  0.16912130  0.12148738  1
  In  In7  1  0.34913665  0.16100326  0.62592385  1
  In  In8  1  0.33622084  0.50699597  0.11601314  1
  In  In9  1  0.32770428  0.50502716  0.63634493  1
  In  In10  1  0.32874343  0.83788892  0.12471093  1
  In  In11  1  0.32461076  0.83104044  0.62656277  1
  In  In12  1  0.66216972  0.15039584  0.12282043  1
  In  In13  1  0.67250539  0.16609463  0.62657096  1
  In  In14  1  0.66014185  0.51692345  0.11709403  1
  In  In15  1  0.67231163  0.48112777  0.63979078  1
  In  In16  1  0.67472665  0.83875856  0.10923613  1
  In  In17  1  0.66695515  0.84436205  0.63270500  1
  In  In18  1  0.15820998  -0.00959371  0.36978148  1
  In  In19  1  0.16757902  0.00642271  0.88649092  1
  In  In20  1  0.16332081  0.35204235  0.37246692  1
  In  In21  1  0.17917783  0.32637632  0.87758303  1
  In  In22  1  0.17681630  0.65271015  0.37492258  1
  In  In23  1  0.17608196  0.65896726  0.88542884  1
  In  In24  1  0.50419831  0.00467212  0.36521832  1
  In  In25  1  0.50111962  -0.02789039  0.87421221  1
  In  In26  1  0.48717743  0.32376685  0.37768579  1
  In  In27  1  0.50528711  0.34632223  0.86150873  1
  In  In28  1  0.49600802  0.67695927  0.37302979  1
  In  In29  1  0.49231825  0.68514386  0.88017517  1
  In  In30  1  0.83606269  0.00445464  0.37007886  1
  In  In31  1  0.83471739  0.00453522  0.87646330  1
  In  In32  1  0.83901565  0.32087208  0.38059365  1
  In  In33  1  0.81544272  0.33234164  0.86994701  1
  In  In34  1  0.82393430  0.66336011  0.38029411  1
  In  In35  1  0.84110520  0.66657033  0.87780059  1
  In  In36  1  -0.01116792  0.15645055  0.36778432  1
  In  In37  1  0.01131650  0.15432715  0.88153952  1
  In  In38  1  0.00785575  0.48788796  0.37490995  1
  In  In39  1  0.00083728  0.50915775  0.87603355  1
  In  In40  1  0.00154048  0.84892687  0.37023667  1
  In  In41  1  -0.00987950  0.84273497  0.88617269  1
  In  In42  1  0.34601719  0.16868040  0.37770442  1
  In  In43  1  0.32313261  0.16192116  0.87805201  1
  In  In44  1  0.32087569  0.50013680  0.37119408  1
  In  In45  1  0.33415894  0.50329778  0.86906683  1
  In  In46  1  0.32332713  0.82134361  0.36595010  1
  In  In47  1  0.34814546  0.82445064  0.89323447  1
  In  In48  1  0.67899545  0.14784298  0.38963428  1
  In  In49  1  0.67187118  0.17553743  0.87055833  1
  In  In50  1  0.66898498  0.51069070  0.38251459  1
  In  In51  1  0.66696980  0.48644800  0.86754125  1
  In  In52  1  0.65761954  0.83732485  0.37340374  1
  In  In53  1  0.65330465  0.84622696  0.88400434  1
  In  In54  1  0.16576907  0.00128858  0.12725615  1
  In  In55  1  0.17232880  -0.01946080  0.62470066  1
  In  In56  1  0.16316783  0.32586289  0.11722544  1
  In  In57  1  0.15915863  0.34578943  0.62441849  1
  In  In58  1  0.17591146  0.67639082  0.12034226  1
  In  In59  1  0.17651929  0.66718040  0.62156667  1
  In  In60  1  0.50588466  -0.00811704  0.12898581  1
  In  In61  1  0.50581121  0.01060405  0.62359270  1
  In  In62  1  0.48584211  0.34222679  0.11828539  1
  In  In63  1  0.51102965  0.32617450  0.64259488  1
  In  In64  1  0.49324136  0.66148619  0.11051607  1
  In  In65  1  0.49112457  0.64991176  0.63735598  1
  In  In66  1  0.83153705  0.00330386  0.12122184  1
  In  In67  1  0.82366495  0.01465714  0.63337417  1
  In  In68  1  0.84853271  0.33415843  0.12463979  1
  In  In69  1  0.83171798  0.32325946  0.62025284  1
  In  In70  1  0.82516656  0.67980993  0.11851985  1
  In  In71  1  0.84877353  0.66526047  0.62375513  1
  In  In72  1  0.00519939  0.66983836  0.24134125  1
  In  In73  1  0.00284950  0.66836597  0.75841740  1
  In  In74  1  0.66349561  0.67539300  0.24426464  1
  In  In75  1  0.66070506  0.67313443  0.75408829  1
  In  In76  1  0.32742845  0.32850657  0.24918502  1
  In  In77  1  0.33802088  -0.00326404  0.75477923  1
  In  In78  1  0.50277777  0.49332374  0.51140574  1
  In  In79  1  -0.00216279  0.33053655  0.74472734  1
  In  In80  1  0.66671833  0.32959767  0.25419906  1
  In  In81  1  0.83609859  0.49712874  -0.00022910  1
  In  In82  1  0.49803373  0.83622510  0.50705409  1
  In  In83  1  0.84096354  0.83854631  0.49420095  1
  In  In84  1  0.16634303  0.16513176  0.49582574  1
  In  In85  1  0.49565683  0.16422321  -0.00137521  1
  Cu  Cu86  1  0.32946054  0.65634583  0.49933000  1
  Cu  Cu87  1  0.16813154  0.50108289  0.75156332  1
  Cu  Cu88  1  0.16749552  0.83719017  0.24415340  1
  Cu  Cu89  1  0.83196293  0.16432659  0.24999999  1
  Cu  Cu90  1  0.15932797  0.16711106  0.24620293  1
  Cu  Cu91  1  0.32863716  0.67115440  -0.00078292  1
  Cu  Cu92  1  0.33342242  0.33149279  0.50308056  1
  Cu  Cu93  1  -0.00341367  0.00452486  0.00415013  1
  Cu  Cu94  1  0.67003532  0.00288534  -0.00311500  1
  Cu  Cu95  1  0.33591015  -0.00969378  0.50087655  1
  Cu  Cu96  1  0.00364408  0.32563807  -0.00095521  1
  Cu  Cu97  1  0.16988097  0.83362992  0.75437407  1
  Cu  Cu98  1  0.66421830  0.32989210  0.50904282  1
  Cu  Cu99  1  0.16703655  0.16014148  0.75696873  1
  Cu  Cu100  1  0.83426048  0.84513204  0.75823545  1
  Cu  Cu101  1  -0.00157656  0.00035593  0.49649630  1
  Cu  Cu102  1  0.49984608  0.15712714  0.25151569  1
  Cu  Cu103  1  -0.00043604  0.33572461  0.49719157  1
  Cu  Cu104  1  0.50631218  0.16638823  0.75090546  1
  Cu  Cu105  1  0.01012801  0.66210318  0.50008275  1
  Cu  Cu106  1  0.83406213  0.16510272  0.75103046  1
  Cu  Cu107  1  0.49584767  0.50515638  0.23965613  1
  Cu  Cu108  1  0.83966787  0.49975447  0.25282771  1
  Cu  Cu109  1  0.49412783  0.83486408  0.24621701  1
  Cu  Cu110  1  0.33424480  0.34481186  -0.00678796  1
  Cu  Cu111  1  0.67607238  0.66386544  0.50851362  1
  Cu  Cu112  1  0.66423518  0.33398842  -0.00642379  1
  Cu  Cu113  1  0.00124170  0.66681750  0.00158463  1
  Cu  Cu114  1  0.83267793  0.84579144  0.24284534  1
  Se  Se115  1  0.08330675  0.08583191  0.05726295  1
  Se  Se116  1  0.08140936  0.07510958  0.56033328  1
  Se  Se117  1  0.08262451  0.41538332  0.04994192  1
  Se  Se118  1  0.08901219  0.41819370  0.54446979  1
  Se  Se119  1  0.08320638  0.75182107  0.05415465  1
  Se  Se120  1  0.08818499  0.74786539  0.55473639  1
  Se  Se121  1  0.41177119  0.07864954  0.06402400  1
  Se  Se122  1  0.41725686  0.07799177  0.55017142  1
  Se  Se123  1  0.42009994  0.42734288  0.04426780  1
  Se  Se124  1  0.41078368  0.40611223  0.56954025  1
  Se  Se125  1  0.41122337  0.75662234  0.05236098  1
  Se  Se126  1  0.41154788  0.73441565  0.56005722  1
  Se  Se127  1  0.75173443  0.08819042  0.04936987  1
  Se  Se128  1  0.75665631  0.08918221  0.55498633  1
  Se  Se129  1  0.74245379  0.40923971  0.06149140  1
  Se  Se130  1  0.74828667  0.41644504  0.55810565  1
  Se  Se131  1  0.73396400  0.73413496  0.04491298  1
  Se  Se132  1  0.75137095  0.75359767  0.56291991  1
  Se  Se133  1  0.25514069  0.25671415  0.04647319  1
  Se  Se134  1  0.25222712  0.25050427  0.56307062  1
  Se  Se135  1  0.24541953  0.58428561  0.04981332  1
  Se  Se136  1  0.25016070  0.57258149  0.55557759  1
  Se  Se137  1  0.23044476  0.90484814  0.05917818  1
  Se  Se138  1  0.24974797  0.90595100  0.54872452  1
  Se  Se139  1  0.58676325  0.25701142  0.05996123  1
  Se  Se140  1  0.58011499  0.25011339  0.56322099  1
  Se  Se141  1  0.57895094  0.58239745  0.04256544  1
  Se  Se142  1  0.59392516  0.58673189  0.56801563  1
  Se  Se143  1  0.58191395  0.92273648  0.04906946  1
  Se  Se144  1  0.59713566  0.92799712  0.55387694  1
  Se  Se145  1  0.91581593  0.24759232  0.05198796  1
  Se  Se146  1  0.91873164  0.24866708  0.54899909  1
  Se  Se147  1  0.92398185  0.58575814  0.06485594  1
  Se  Se148  1  0.92021271  0.58290991  0.55022881  1
  Se  Se149  1  0.91142794  0.91592091  0.05260767  1
  Se  Se150  1  0.92310982  0.92217112  0.56389571  1
  Se  Se151  1  0.07686390  0.25382677  0.43500182  1
  Se  Se152  1  0.09077897  0.24710204  0.94446198  1
  Se  Se153  1  0.08653321  0.57734789  0.44194872  1
  Se  Se154  1  0.08217850  0.58032599  0.94988001  1
  Se  Se155  1  0.08381223  0.91464866  0.44818666  1
  Se  Se156  1  0.08061476  0.92088232  0.95140772  1
  Se  Se157  1  0.41871937  0.24581977  0.45557032  1
  Se  Se158  1  0.41538043  0.25973682  0.93594576  1
  Se  Se159  1  0.41924729  0.58203968  0.44213406  1
  Se  Se160  1  0.40908155  0.59128328  0.94042804  1
  Se  Se161  1  0.41245821  0.91259137  0.43502214  1
  Se  Se162  1  0.40597958  0.93542386  0.95167315  1
  Se  Se163  1  0.74684768  0.25125295  0.44968997  1
  Se  Se164  1  0.75111810  0.24906986  0.94778201  1
  Se  Se165  1  0.75638211  0.57862234  0.45563501  1
  Se  Se166  1  0.74581508  0.58055667  0.93727847  1
  Se  Se167  1  0.74184459  0.92375955  0.44042998  1
  Se  Se168  1  0.75450921  0.91781832  0.94533191  1
  Se  Se169  1  0.25705115  0.07205714  0.43896978  1
  Se  Se170  1  0.25343705  0.08551511  0.95441347  1
  Se  Se171  1  0.25518557  0.41398779  0.44638636  1
  Se  Se172  1  0.24705195  0.42628382  0.94147086  1
  Se  Se173  1  0.25232012  0.74319802  0.44395603  1
  Se  Se174  1  0.24114282  0.75781533  0.95180494  1
  Se  Se175  1  0.56578714  0.08839423  0.44266484  1
  Se  Se176  1  0.58667432  0.07983901  0.93539010  1
  Se  Se177  1  0.58823468  0.40656723  0.44159370  1
  Se  Se178  1  0.58143860  0.41649101  0.94191027  1
  Se  Se179  1  0.59292964  0.73997107  0.44789518  1
  Se  Se180  1  0.58553762  0.75124161  0.95029764  1
  Se  Se181  1  0.91320539  0.08274508  0.44567205  1
  Se  Se182  1  0.91445052  0.08771207  0.94865727  1
  Se  Se183  1  0.91426524  0.41786622  0.44332414  1
  Se  Se184  1  0.92264187  0.40477042  0.93659426  1
  Se  Se185  1  0.93074850  0.74189936  0.43742093  1
  Se  Se186  1  0.91416255  0.74839821  0.95127127  1
  Se  Se187  1  0.23882709  0.24061231  0.31375281  1
  Se  Se188  1  0.25326809  0.24578128  0.80240832  1
  Se  Se189  1  0.25834166  0.58709641  0.29790927  1
  Se  Se190  1  0.24615438  0.59002448  0.80341577  1
  Se  Se191  1  0.25063744  0.91796442  0.30180053  1
  Se  Se192  1  0.24799187  0.91262555  0.81692575  1
  Se  Se193  1  0.57683840  0.23960808  0.31284375  1
  Se  Se194  1  0.58922546  0.25499881  0.80022878  1
  Se  Se195  1  0.57734682  0.57819360  0.30555443  1
  Se  Se196  1  0.57439176  0.58478078  0.81528265  1
  Se  Se197  1  0.58281726  0.91408799  0.29887056  1
  Se  Se198  1  0.59018804  0.91474569  0.79933150  1
  Se  Se199  1  0.91478571  0.25064016  0.30134906  1
  Se  Se200  1  0.91650067  0.24302360  0.81238525  1
  Se  Se201  1  0.91393290  0.58755146  0.30953944  1
  Se  Se202  1  0.90452431  0.57109676  0.80268152  1
  Se  Se203  1  0.91745566  0.92340066  0.29921283  1
  Se  Se204  1  0.92400903  0.92413233  0.80815320  1
  Se  Se205  1  0.08133906  0.08080013  0.30315255  1
  Se  Se206  1  0.08621274  0.07432228  0.80695446  1
  Se  Se207  1  0.08642507  0.42204871  0.29646751  1
  Se  Se208  1  0.08584782  0.41942720  0.80895084  1
  Se  Se209  1  0.08979277  0.75632833  0.30844863  1
  Se  Se210  1  0.08970702  0.75820703  0.81895659  1
  Se  Se211  1  0.40745250  0.08083419  0.30184095  1
  Se  Se212  1  0.42853125  0.08752371  0.81469928  1
  Se  Se213  1  0.42431022  0.42210997  0.30472279  1
  Se  Se214  1  0.39979378  0.40662402  0.80106456  1
  Se  Se215  1  0.41543776  0.74561123  0.29798035  1
  Se  Se216  1  0.41421428  0.76487391  0.80748387  1
  Se  Se217  1  0.74580255  0.08354045  0.30348959  1
  Se  Se218  1  0.74999524  0.08357285  0.80561535  1
  Se  Se219  1  0.75389118  0.42545171  0.31269900  1
  Se  Se220  1  0.75231625  0.41687706  0.79485112  1
  Se  Se221  1  0.75951641  0.76151879  0.30605039  1
  Se  Se222  1  0.75662232  0.75813097  0.81386455  1
  Se  Se223  1  0.24840313  0.08703187  0.19659883  1
  Se  Se224  1  0.24591988  0.08398156  0.69004462  1
  Se  Se225  1  0.24857920  0.41839662  0.18418167  1
  Se  Se226  1  0.24502393  0.41138259  0.69858181  1
  Se  Se227  1  0.25227128  0.75036715  0.19706927  1
  Se  Se228  1  0.24753634  0.74855493  0.69819640  1
  Se  Se229  1  0.58656183  0.07719437  0.19922773  1
  Se  Se230  1  0.58863612  0.08289594  0.69698365  1
  Se  Se231  1  0.58087118  0.42158493  0.18828735  1
  Se  Se232  1  0.56486212  0.43508680  0.70410563  1
  Se  Se233  1  0.57475409  0.75892296  0.18170377  1
  Se  Se234  1  0.57058082  0.75927225  0.69038206  1
  Se  Se235  1  0.91396900  0.08215065  0.19363110  1
  Se  Se236  1  0.92171059  0.08175650  0.70120724  1
  Se  Se237  1  0.91917702  0.41205936  0.20208355  1
  Se  Se238  1  0.91116938  0.42367187  0.68701602  1
  Se  Se239  1  0.91251211  0.76280984  0.18574608  1
  Se  Se240  1  0.91238784  0.76241097  0.69758578  1
  Se  Se241  1  0.08135664  0.25350142  0.19241168  1
  Se  Se242  1  0.09172425  0.23712993  0.68917803  1
  Se  Se243  1  0.09554599  0.57723541  0.18769562  1
  Se  Se244  1  0.08465447  0.57835742  0.69087266  1
  Se  Se245  1  0.07924850  0.92323467  0.19979088  1
  Se  Se246  1  0.08632982  0.91585496  0.70065628  1
  Se  Se247  1  0.42496998  0.24137353  0.19034972  1
  Se  Se248  1  0.41394071  0.24470814  0.70190815  1
  Se  Se249  1  0.41482335  0.58904966  0.18833212  1
  Se  Se250  1  0.40713379  0.58178862  0.70921922  1
  Se  Se251  1  0.41096550  0.92081526  0.19576170  1
  Se  Se252  1  0.42333785  0.91264089  0.68673956  1
  Se  Se253  1  0.75298822  0.24414767  0.18814822  1
  Se  Se254  1  0.75333612  0.25091852  0.69708481  1
  Se  Se255  1  0.75937934  0.57827467  0.19177636  1
  Se  Se256  1  0.75598847  0.58888369  0.69173554  1
  Se  Se257  1  0.74349321  0.91866741  0.18748972  1
  Se  Se258  1  0.74994276  0.92300905  0.70172881  1
