# generated using pymatgen
data_In86Cu29Se144
_symmetry_space_group_name_H-M   'P 1'
_cell_length_a   17.57661304
_cell_length_b   17.57671510
_cell_length_c   23.44045940
_cell_angle_alpha   90.03506141
_cell_angle_beta   90.01166392
_cell_angle_gamma   89.99551000
_symmetry_Int_Tables_number   1
_chemical_formula_structural   In86Cu29Se144
_chemical_formula_sum   'In86 Cu29 Se144'
_cell_volume   7241.67336890
_cell_formula_units_Z   1
loop_
 _symmetry_equiv_pos_site_id
 _symmetry_equiv_pos_as_xyz
  1  'x, y, z'
loop_
 _atom_site_type_symbol
 _atom_site_label
 _atom_site_symmetry_multiplicity
 _atom_site_fract_x
 _atom_site_fract_y
 _atom_site_fract_z
 _atom_site_occupancy
  In  In0  1  -0.00321366  0.16896226  0.13512421  1
  In  In1  1  -0.01107428  0.16598557  0.62620118  1
  In  In2  1  -0.01301403  0.49461742  0.11675757  1
  In  In3  1  0.00137392  0.50670582  0.61617847  1
  In  In4  1  0.00978178  0.83230425  0.12190303  1
  In  In5  1  0.01625079  0.82879714  0.62669834  1
  In  In6  1  0.33810374  0.16219551  0.12263181  1
  In  In7  1  0.35563605  0.16523331  0.62093590  1
  In  In8  1  0.35383570  0.50055165  0.12658987  1
  In  In9  1  0.33361862  0.49795457  0.63232605  1
  In  In10  1  0.32414041  0.82612213  0.11993945  1
  In  In11  1  0.32281487  0.82713149  0.61570866  1
  In  In12  1  0.65292615  0.17200453  0.13363663  1
  In  In13  1  0.65942830  0.17461876  0.63342885  1
  In  In14  1  0.65180837  0.49124951  0.11306942  1
  In  In15  1  0.66475437  0.49991441  0.62789494  1
  In  In16  1  0.66972011  0.84439833  0.12275688  1
  In  In17  1  0.65531741  0.84527092  0.63595240  1
  In  In18  1  0.15713528  -0.00084500  0.37762205  1
  In  In19  1  0.15404112  -0.00378226  0.87344532  1
  In  In20  1  0.17055612  0.35017319  0.37459860  1
  In  In21  1  0.16923653  0.33103351  0.87049212  1
  In  In22  1  0.17595818  0.66082984  0.38042289  1
  In  In23  1  0.18649437  0.65917790  0.87143415  1
  In  In24  1  0.50266915  -0.00079937  0.37980900  1
  In  In25  1  0.50791131  -0.01390231  0.88231157  1
  In  In26  1  0.51171859  0.32819439  0.38231709  1
  In  In27  1  0.50511310  0.33479107  0.87424389  1
  In  In28  1  0.48944757  0.67478202  0.38221193  1
  In  In29  1  0.50344766  0.66458390  0.87453251  1
  In  In30  1  0.83286711  0.00625407  0.36896299  1
  In  In31  1  0.82676066  -0.01531136  0.86047033  1
  In  In32  1  0.83291818  0.33780382  0.36967404  1
  In  In33  1  0.82945109  0.35735426  0.88352527  1
  In  In34  1  0.81871434  0.65880744  0.37820631  1
  In  In35  1  0.80165987  0.67011792  0.87795300  1
  In  In36  1  -0.00713962  0.16422991  0.36742240  1
  In  In37  1  0.00680415  0.16097954  0.87519213  1
  In  In38  1  0.00389472  0.49811004  0.37681954  1
  In  In39  1  -0.01125825  0.49504886  0.88289431  1
  In  In40  1  0.00162835  0.84499409  0.37524141  1
  In  In41  1  -0.00643573  0.84325182  0.87803742  1
  In  In42  1  0.34605155  0.16968173  0.38058181  1
  In  In43  1  0.33783944  0.18189717  0.87072477  1
  In  In44  1  0.32628822  0.50993971  0.38182392  1
  In  In45  1  0.34581026  0.51672193  0.85575346  1
  In  In46  1  0.34755918  0.82608145  0.38673533  1
  In  In47  1  0.34624556  0.82233456  0.87912216  1
  In  In48  1  0.65364088  0.16644892  0.36364505  1
  In  In49  1  0.65995858  0.15502411  0.87097644  1
  In  In50  1  0.67186322  0.49106434  0.38399011  1
  In  In51  1  0.66747685  0.50074923  0.87504849  1
  In  In52  1  0.64925281  0.83351561  0.37785417  1
  In  In53  1  0.64943186  0.81582840  0.85409314  1
  In  In54  1  0.16620054  -0.01441701  0.12680179  1
  In  In55  1  0.17540231  -0.01677887  0.62351827  1
  In  In56  1  0.16841148  0.32346675  0.13024513  1
  In  In57  1  0.17026554  0.35388362  0.62625282  1
  In  In58  1  0.16269517  0.68115724  0.12066673  1
  In  In59  1  0.17187670  0.66796457  0.62547411  1
  In  In60  1  0.50851080  0.00617973  0.11726962  1
  In  In61  1  0.50345849  0.00865190  0.61315342  1
  In  In62  1  0.50533653  0.33866548  0.12107150  1
  In  In63  1  0.50142694  0.33473248  0.62791229  1
  In  In64  1  0.49479802  0.65666125  0.11990928  1
  In  In65  1  0.49910984  0.66409645  0.62841922  1
  In  In66  1  0.82449600  0.00802369  0.13358941  1
  In  In67  1  0.83293291  -0.00444034  0.64012708  1
  In  In68  1  0.82883280  0.33414896  0.12715710  1
  In  In69  1  0.81856581  0.33452365  0.62821626  1
  In  In70  1  0.83163156  0.65165229  0.11463086  1
  In  In71  1  0.83532044  0.65467362  0.62716597  1
  In  In72  1  0.17126778  0.16489549  -0.00655884  1
  In  In73  1  0.83319983  0.16628825  0.00525852  1
  In  In74  1  -0.00164161  0.67137382  0.75234404  1
  In  In75  1  0.17023942  0.50223621  -0.00383175  1
  In  In76  1  0.33447660  -0.00339248  0.25827590  1
  In  In77  1  0.17239733  0.16928179  0.49334505  1
  In  In78  1  0.66106725  0.67028996  0.24866036  1
  In  In79  1  0.33915741  0.33478225  0.25251042  1
  In  In80  1  0.82698490  0.16978021  0.50044697  1
  In  In81  1  0.83245151  0.82536380  0.50222068  1
  In  In82  1  -0.00368509  0.66769828  0.23935261  1
  In  In83  1  0.33591522  0.00155983  0.74407367  1
  In  In84  1  -0.00275121  0.33339265  0.75855459  1
  In  In85  1  0.82848577  0.82802103  -0.00081489  1
  Cu  Cu86  1  0.66065811  0.33668085  0.50640431  1
  Cu  Cu87  1  0.16717063  0.16896489  0.75083264  1
  Cu  Cu88  1  -0.00080405  -0.00006113  0.00043818  1
  Cu  Cu89  1  0.00520042  0.66427648  0.50222270  1
  Cu  Cu90  1  0.83268148  0.84190976  0.24816173  1
  Cu  Cu91  1  0.82947822  0.49416106  0.24772139  1
  Cu  Cu92  1  0.50467538  0.16610247  0.74905227  1
  Cu  Cu93  1  0.33896973  0.66485207  -0.00433482  1
  Cu  Cu94  1  0.33560765  0.66085526  0.50590822  1
  Cu  Cu95  1  0.17077076  0.83301378  0.74754106  1
  Cu  Cu96  1  0.82999339  0.16975226  0.24930407  1
  Cu  Cu97  1  0.16437766  0.83096107  0.24708559  1
  Cu  Cu98  1  0.34492015  0.34159376  -0.00581599  1
  Cu  Cu99  1  0.16575849  0.50446529  0.25511843  1
  Cu  Cu100  1  0.83114826  0.16410395  0.75223506  1
  Cu  Cu101  1  0.00889203  -0.00652915  0.50365128  1
  Cu  Cu102  1  0.66516318  0.00275911  0.50101465  1
  Cu  Cu103  1  0.49442803  0.82892134  0.74859147  1
  Cu  Cu104  1  -0.00032530  0.34523408  0.49476167  1
  Cu  Cu105  1  0.33774569  0.33961293  0.50309122  1
  Cu  Cu106  1  0.50432318  0.50202204  0.24958418  1
  Cu  Cu107  1  0.66610584  0.33313589  0.00055602  1
  Cu  Cu108  1  0.33505263  -0.00436589  0.00195767  1
  Cu  Cu109  1  0.65680243  -0.00493825  -0.00462118  1
  Cu  Cu110  1  0.82728469  0.49944539  0.75088383  1
  Cu  Cu111  1  0.66097579  0.66168652  0.50462356  1
  Cu  Cu112  1  0.16177853  0.16448998  0.25417956  1
  Cu  Cu113  1  0.49334365  0.83832087  0.25394554  1
  Cu  Cu114  1  0.50552881  0.49691914  0.74970871  1
  Se  Se115  1  0.07995356  0.08119225  0.06026366  1
  Se  Se116  1  0.08210676  0.08386513  0.56017729  1
  Se  Se117  1  0.08801908  0.40792369  0.05933338  1
  Se  Se118  1  0.08581866  0.42147194  0.55063562  1
  Se  Se119  1  0.07709924  0.74890644  0.04835955  1
  Se  Se120  1  0.08917525  0.74828075  0.55302134  1
  Se  Se121  1  0.41652984  0.08396114  0.05083832  1
  Se  Se122  1  0.41343546  0.08016549  0.54439136  1
  Se  Se123  1  0.42594245  0.42315182  0.05032300  1
  Se  Se124  1  0.41910147  0.41998011  0.56045125  1
  Se  Se125  1  0.41572343  0.74846220  0.05468118  1
  Se  Se126  1  0.41929124  0.74680985  0.55650592  1
  Se  Se127  1  0.73569625  0.07580592  0.05728540  1
  Se  Se128  1  0.74711013  0.07618968  0.56455280  1
  Se  Se129  1  0.75193328  0.41445414  0.05382874  1
  Se  Se130  1  0.74927543  0.41917238  0.55528328  1
  Se  Se131  1  0.73501305  0.73842741  0.05704668  1
  Se  Se132  1  0.74029749  0.74408828  0.56501877  1
  Se  Se133  1  0.26277011  0.26024530  0.05308451  1
  Se  Se134  1  0.25437373  0.25727868  0.56105525  1
  Se  Se135  1  0.26023039  0.58731087  0.06133702  1
  Se  Se136  1  0.25116722  0.57868374  0.55956344  1
  Se  Se137  1  0.24573991  0.91500947  0.05124769  1
  Se  Se138  1  0.25329870  0.91888868  0.54630459  1
  Se  Se139  1  0.58357231  0.24842470  0.05386135  1
  Se  Se140  1  0.58100294  0.24723053  0.55721805  1
  Se  Se141  1  0.58439053  0.58805070  0.04952681  1
  Se  Se142  1  0.57866253  0.57818718  0.55828517  1
  Se  Se143  1  0.57807132  0.90913542  0.05047671  1
  Se  Se144  1  0.58648382  0.91359932  0.55267456  1
  Se  Se145  1  0.92786405  0.25572463  0.05938077  1
  Se  Se146  1  0.92196069  0.26423447  0.55606355  1
  Se  Se147  1  0.93351293  0.59561268  0.04927350  1
  Se  Se148  1  0.91292205  0.58434101  0.54890553  1
  Se  Se149  1  0.91337264  0.92588324  0.06137163  1
  Se  Se150  1  0.92008122  0.92042254  0.56180544  1
  Se  Se151  1  0.07391853  0.25738309  0.43684326  1
  Se  Se152  1  0.07609642  0.26017047  0.94392561  1
  Se  Se153  1  0.08611173  0.58064144  0.44514592  1
  Se  Se154  1  0.08110195  0.59241714  0.93705137  1
  Se  Se155  1  0.08930456  0.90912555  0.45057006  1
  Se  Se156  1  0.08358060  0.91580777  0.94967590  1
  Se  Se157  1  0.42011815  0.25412583  0.45106354  1
  Se  Se158  1  0.42287065  0.24936958  0.94487346  1
  Se  Se159  1  0.41961791  0.58027526  0.45016946  1
  Se  Se160  1  0.41675655  0.57853087  0.94075461  1
  Se  Se161  1  0.42504955  0.91658858  0.44937321  1
  Se  Se162  1  0.41871619  0.91047443  0.94988725  1
  Se  Se163  1  0.73853040  0.25816656  0.44067796  1
  Se  Se164  1  0.74496887  0.25128565  0.93984316  1
  Se  Se165  1  0.74857886  0.58009621  0.45375627  1
  Se  Se166  1  0.76597931  0.56228864  0.94483108  1
  Se  Se167  1  0.74757765  0.92256032  0.44168964  1
  Se  Se168  1  0.74072694  0.91726905  0.93749381  1
  Se  Se169  1  0.26121202  0.07276009  0.43990502  1
  Se  Se170  1  0.26123734  0.07386604  0.93431361  1
  Se  Se171  1  0.24983166  0.41976590  0.45076810  1
  Se  Se172  1  0.26152298  0.41630809  0.93369530  1
  Se  Se173  1  0.25445851  0.74567851  0.44943526  1
  Se  Se174  1  0.25241399  0.74756743  0.94544563  1
  Se  Se175  1  0.58839813  0.08786623  0.44400511  1
  Se  Se176  1  0.57665091  0.08642021  0.94689409  1
  Se  Se177  1  0.57834544  0.42174197  0.45283951  1
  Se  Se178  1  0.58462177  0.41728587  0.94525346  1
  Se  Se179  1  0.58142302  0.74865284  0.45135352  1
  Se  Se180  1  0.58755443  0.75171524  0.93915303  1
  Se  Se181  1  0.92464744  0.07525703  0.44697722  1
  Se  Se182  1  0.91541829  0.07358688  0.93923390  1
  Se  Se183  1  0.91013929  0.42154813  0.44144371  1
  Se  Se184  1  0.92579567  0.40758094  0.95634271  1
  Se  Se185  1  0.92407453  0.73957089  0.43749528  1
  Se  Se186  1  0.91619448  0.74094531  0.93638648  1
  Se  Se187  1  0.24518345  0.24295944  0.31242227  1
  Se  Se188  1  0.25183370  0.25407637  0.79864870  1
  Se  Se189  1  0.25313435  0.58652961  0.30343396  1
  Se  Se190  1  0.24783277  0.58319666  0.79077179  1
  Se  Se191  1  0.24324077  0.90431192  0.31385990  1
  Se  Se192  1  0.25144117  0.91251805  0.81008306  1
  Se  Se193  1  0.58294368  0.26349882  0.30015320  1
  Se  Se194  1  0.58622008  0.24872887  0.80480970  1
  Se  Se195  1  0.57940866  0.58160358  0.31519996  1
  Se  Se196  1  0.58652140  0.58258745  0.80421830  1
  Se  Se197  1  0.58077009  0.91931253  0.30465721  1
  Se  Se198  1  0.57626339  0.92047506  0.79744533  1
  Se  Se199  1  0.91492015  0.25311756  0.30189317  1
  Se  Se200  1  0.90478338  0.24458945  0.81783334  1
  Se  Se201  1  0.90694886  0.58137502  0.30493308  1
  Se  Se202  1  0.90752752  0.57977139  0.81092861  1
  Se  Se203  1  0.91755632  0.91967419  0.30420136  1
  Se  Se204  1  0.93410499  0.92587799  0.80021268  1
  Se  Se205  1  0.07959790  0.07772169  0.30452879  1
  Se  Se206  1  0.08415737  0.08369857  0.80074288  1
  Se  Se207  1  0.08091967  0.41790607  0.30232866  1
  Se  Se208  1  0.08759904  0.43072518  0.80997713  1
  Se  Se209  1  0.08382098  0.74978521  0.30869226  1
  Se  Se210  1  0.09260463  0.75754538  0.81284495  1
  Se  Se211  1  0.42805674  0.09391101  0.30559036  1
  Se  Se212  1  0.42414683  0.08532121  0.80997769  1
  Se  Se213  1  0.42287364  0.42659795  0.31439461  1
  Se  Se214  1  0.42071284  0.41162925  0.80157906  1
  Se  Se215  1  0.41348419  0.74997536  0.30495276  1
  Se  Se216  1  0.41569824  0.74261061  0.80268217  1
  Se  Se217  1  0.74726379  0.08535362  0.30218463  1
  Se  Se218  1  0.74494647  0.07819225  0.80045509  1
  Se  Se219  1  0.74285618  0.41772092  0.30365487  1
  Se  Se220  1  0.74658678  0.41292696  0.80313848  1
  Se  Se221  1  0.75461519  0.76095438  0.30947027  1
  Se  Se222  1  0.76897535  0.76847851  0.80143115  1
  Se  Se223  1  0.24337219  0.08745632  0.19311475  1
  Se  Se224  1  0.24528176  0.09371018  0.68464029  1
  Se  Se225  1  0.24779912  0.42589025  0.19171927  1
  Se  Se226  1  0.25247292  0.41512678  0.70293753  1
  Se  Se227  1  0.24861126  0.74711310  0.19616609  1
  Se  Se228  1  0.25426531  0.74987941  0.69550379  1
  Se  Se229  1  0.58443697  0.07232471  0.19630950  1
  Se  Se230  1  0.58048414  0.07734320  0.69329991  1
  Se  Se231  1  0.58430621  0.41794494  0.19504395  1
  Se  Se232  1  0.58899395  0.41164076  0.69780462  1
  Se  Se233  1  0.57259320  0.76079620  0.18913461  1
  Se  Se234  1  0.58317753  0.74621397  0.69856397  1
  Se  Se235  1  0.91613408  0.08240590  0.20058686  1
  Se  Se236  1  0.91989883  0.08463505  0.70115761  1
  Se  Se237  1  0.91750450  0.41574587  0.19456577  1
  Se  Se238  1  0.91378079  0.42350268  0.69106768  1
  Se  Se239  1  0.90063628  0.75834678  0.18370701  1
  Se  Se240  1  0.91116740  0.75849816  0.68827157  1
  Se  Se241  1  0.08255642  0.25216015  0.20169714  1
  Se  Se242  1  0.08496540  0.24920353  0.68982718  1
  Se  Se243  1  0.08943190  0.57497672  0.18514842  1
  Se  Se244  1  0.08479876  0.57821013  0.69285587  1
  Se  Se245  1  0.07788889  0.91555721  0.19880252  1
  Se  Se246  1  0.08682269  0.91889760  0.69782254  1
  Se  Se247  1  0.42448541  0.24385420  0.19118147  1
  Se  Se248  1  0.41906940  0.24893961  0.69768503  1
  Se  Se249  1  0.41918640  0.58802939  0.20112286  1
  Se  Se250  1  0.41939758  0.58146727  0.69954623  1
  Se  Se251  1  0.41584591  0.91381157  0.18734329  1
  Se  Se252  1  0.42145497  0.91014101  0.68343238  1
  Se  Se253  1  0.74670905  0.25188195  0.19520839  1
  Se  Se254  1  0.74905728  0.25085104  0.70163123  1
  Se  Se255  1  0.74856782  0.57617396  0.19000341  1
  Se  Se256  1  0.74640547  0.58532065  0.69817803  1
  Se  Se257  1  0.74171311  0.92173663  0.19977151  1
  Se  Se258  1  0.75086931  0.91107816  0.70367256  1
