# generated using pymatgen
data_In86Cu29Se144
_symmetry_space_group_name_H-M   'P 1'
_cell_length_a   17.58194528
_cell_length_b   17.58401970
_cell_length_c   23.44807644
_cell_angle_alpha   90.02354863
_cell_angle_beta   90.00904317
_cell_angle_gamma   89.97953148
_symmetry_Int_Tables_number   1
_chemical_formula_structural   In86Cu29Se144
_chemical_formula_sum   'In86 Cu29 Se144'
_cell_volume   7249.23597693
_cell_formula_units_Z   1
loop_
 _symmetry_equiv_pos_site_id
 _symmetry_equiv_pos_as_xyz
  1  'x, y, z'
loop_
 _atom_site_type_symbol
 _atom_site_label
 _atom_site_symmetry_multiplicity
 _atom_site_fract_x
 _atom_site_fract_y
 _atom_site_fract_z
 _atom_site_occupancy
  In  In0  1  0.01286463  0.17550078  0.11465932  1
  In  In1  1  -0.00826353  0.17023209  0.62490869  1
  In  In2  1  0.01561684  0.48857265  0.14589578  1
  In  In3  1  0.02184767  0.50618071  0.61601385  1
  In  In4  1  -0.00260049  0.83116913  0.12665750  1
  In  In5  1  -0.00747180  0.81921546  0.61728664  1
  In  In6  1  0.33482538  0.16636494  0.12440140  1
  In  In7  1  0.34099336  0.16024329  0.63478171  1
  In  In8  1  0.33331861  0.49578090  0.13230612  1
  In  In9  1  0.33516818  0.50217259  0.62306323  1
  In  In10  1  0.34221954  0.83857159  0.13974006  1
  In  In11  1  0.33193741  0.82710705  0.62627789  1
  In  In12  1  0.67330327  0.17289510  0.11636395  1
  In  In13  1  0.64815764  0.16426112  0.63033308  1
  In  In14  1  0.64661967  0.50116155  0.11992777  1
  In  In15  1  0.64891030  0.52615773  0.62781904  1
  In  In16  1  0.67489599  0.81934380  0.11977318  1
  In  In17  1  0.66481077  0.82662965  0.62013756  1
  In  In18  1  0.16727507  -0.00781330  0.37605711  1
  In  In19  1  0.17710653  0.00365701  0.87390631  1
  In  In20  1  0.18948135  0.36845669  0.34023077  1
  In  In21  1  0.17433979  0.32112833  0.88370517  1
  In  In22  1  0.17357415  0.66547468  0.37395957  1
  In  In23  1  0.16979486  0.67454410  0.86257999  1
  In  In24  1  0.49077183  -0.00759515  0.37348503  1
  In  In25  1  0.50278325  -0.00070915  0.87079290  1
  In  In26  1  0.50017748  0.33892965  0.36733117  1
  In  In27  1  0.48383145  0.34548585  0.88843549  1
  In  In28  1  0.48121003  0.68306814  0.39504036  1
  In  In29  1  0.49380212  0.65373757  0.86226184  1
  In  In30  1  0.82957245  -0.00679370  0.37684398  1
  In  In31  1  0.82350945  0.00145119  0.88474665  1
  In  In32  1  0.83489214  0.34363179  0.36293175  1
  In  In33  1  0.82420204  0.32869171  0.88126043  1
  In  In34  1  0.84008543  0.66803781  0.37938751  1
  In  In35  1  0.84028414  0.67728792  0.86893412  1
  In  In36  1  0.00514710  0.17528207  0.36443820  1
  In  In37  1  -0.00274208  0.16438009  0.88840623  1
  In  In38  1  0.02359626  0.52706630  0.34696281  1
  In  In39  1  -0.00060330  0.50999369  0.87197800  1
  In  In40  1  0.01541524  0.82333381  0.38719855  1
  In  In41  1  0.00176488  0.81583914  0.87410403  1
  In  In42  1  0.32176925  0.17433773  0.35821181  1
  In  In43  1  0.33370420  0.17012514  0.87939451  1
  In  In44  1  0.33253192  0.50609449  0.37341698  1
  In  In45  1  0.35670947  0.50857222  0.86128390  1
  In  In46  1  0.33639936  0.82652301  0.37541639  1
  In  In47  1  0.32642882  0.83608971  0.86358001  1
  In  In48  1  0.65869890  0.17377146  0.37068409  1
  In  In49  1  0.66543513  0.15692452  0.88549909  1
  In  In50  1  0.66257166  0.49794192  0.37566397  1
  In  In51  1  0.64714195  0.50065392  0.87013593  1
  In  In52  1  0.66387087  0.82732223  0.39337225  1
  In  In53  1  0.66768721  0.84069221  0.86943409  1
  In  In54  1  0.17787376  0.01315733  0.12617444  1
  In  In55  1  0.18515248  -0.00375761  0.62974839  1
  In  In56  1  0.19637172  0.30855735  0.16133351  1
  In  In57  1  0.17436848  0.35029676  0.61515119  1
  In  In58  1  0.17432503  0.66015151  0.14193718  1
  In  In59  1  0.17280370  0.66577690  0.62656804  1
  In  In60  1  0.47692763  0.00453444  0.12880859  1
  In  In61  1  0.51141492  -0.01298865  0.63860238  1
  In  In62  1  0.49999569  0.33547205  0.12437490  1
  In  In63  1  0.48240013  0.33770278  0.62589767  1
  In  In64  1  0.49765148  0.66094328  0.12153339  1
  In  In65  1  0.49241025  0.66477448  0.62013195  1
  In  In66  1  0.82875852  -0.00651507  0.11552506  1
  In  In67  1  0.83678555  -0.02043158  0.62659271  1
  In  In68  1  0.84204175  0.32655380  0.12872919  1
  In  In69  1  0.83448764  0.33285517  0.62258079  1
  In  In70  1  0.84157604  0.67224767  0.12077759  1
  In  In71  1  0.81636948  0.68742639  0.63426419  1
  In  In72  1  0.65615354  0.66441509  0.25096097  1
  In  In73  1  0.17078429  0.49659605  0.01164542  1
  In  In74  1  0.65989855  -0.00050344  0.25574673  1
  In  In75  1  0.83510575  0.50093433  0.00093529  1
  In  In76  1  0.66124498  0.33583249  0.75532603  1
  In  In77  1  0.00345037  -0.00013712  0.24730150  1
  In  In78  1  0.16661140  0.83191752  -0.00800437  1
  In  In79  1  0.49740390  0.16130636  0.49223879  1
  In  In80  1  0.00557752  -0.00950199  0.75034150  1
  In  In81  1  0.16644053  0.16382405  0.49300734  1
  In  In82  1  0.50218381  0.83531361  0.00096045  1
  In  In83  1  0.83285883  0.50396103  0.50148727  1
  In  In84  1  0.00705542  0.33678050  0.75086825  1
  In  In85  1  0.83565869  0.16044906  0.49308073  1
  Cu  Cu86  1  0.00405882  0.66495660  0.00205161  1
  Cu  Cu87  1  0.83522583  0.83010557  0.25259053  1
  Cu  Cu88  1  0.00809925  0.34339203  0.48520356  1
  Cu  Cu89  1  0.17411780  0.49873514  0.74444150  1
  Cu  Cu90  1  0.17502982  0.83408416  0.25834412  1
  Cu  Cu91  1  0.67345738  -0.00586631  0.50775662  1
  Cu  Cu92  1  0.66147750  0.34256421  0.49697682  1
  Cu  Cu93  1  0.82619543  0.16071958  0.76016380  1
  Cu  Cu94  1  0.34003959  -0.01214401  0.50164928  1
  Cu  Cu95  1  0.00320410  0.66233614  0.49694055  1
  Cu  Cu96  1  0.32869531  0.33391314  0.00900307  1
  Cu  Cu97  1  0.66028751  -0.00269465  -0.00189352  1
  Cu  Cu98  1  0.49947637  0.83245039  0.74429068  1
  Cu  Cu99  1  0.50256187  0.17555337  0.24631148  1
  Cu  Cu100  1  0.00221312  0.32950709  0.00655184  1
  Cu  Cu101  1  0.66408342  0.32987282  -0.00044549  1
  Cu  Cu102  1  0.17333768  0.17206946  0.75188622  1
  Cu  Cu103  1  -0.00516317  -0.00443746  0.00594021  1
  Cu  Cu104  1  0.32777505  0.00448527  0.00019368  1
  Cu  Cu105  1  0.84023170  0.50933286  0.74738884  1
  Cu  Cu106  1  0.83420356  0.16746709  0.23868295  1
  Cu  Cu107  1  0.82495640  0.83600996  0.74854499  1
  Cu  Cu108  1  0.00891625  -0.00734011  0.50243797  1
  Cu  Cu109  1  0.32469995  0.66372334  0.50417566  1
  Cu  Cu110  1  0.32656409  0.33847490  0.49534338  1
  Cu  Cu111  1  0.49271994  0.50043811  0.24964524  1
  Cu  Cu112  1  0.66842172  0.66645117  -0.00617354  1
  Cu  Cu113  1  0.49809392  0.16490743  0.75790866  1
  Cu  Cu114  1  0.82054181  0.50135363  0.24853177  1
  Se  Se115  1  0.08583009  0.07624456  0.05335266  1
  Se  Se116  1  0.07944880  0.07932762  0.56279881  1
  Se  Se117  1  0.08229064  0.40428579  0.06792123  1
  Se  Se118  1  0.09094190  0.42227355  0.54165683  1
  Se  Se119  1  0.08711045  0.74285028  0.06148435  1
  Se  Se120  1  0.08670435  0.74283945  0.55392165  1
  Se  Se121  1  0.41526899  0.08627651  0.05011519  1
  Se  Se122  1  0.41838955  0.07293121  0.56118071  1
  Se  Se123  1  0.41347218  0.42020985  0.05802601  1
  Se  Se124  1  0.41305709  0.41700985  0.54928816  1
  Se  Se125  1  0.40685991  0.75119783  0.05908416  1
  Se  Se126  1  0.41142170  0.75085612  0.55095559  1
  Se  Se127  1  0.74761936  0.07975627  0.05011780  1
  Se  Se128  1  0.74675589  0.08357183  0.56469156  1
  Se  Se129  1  0.74441113  0.41212048  0.06053133  1
  Se  Se130  1  0.73819696  0.41624701  0.56397580  1
  Se  Se131  1  0.75590450  0.74444586  0.04716854  1
  Se  Se132  1  0.75687513  0.75649957  0.55035408  1
  Se  Se133  1  0.24331549  0.25527716  0.06442506  1
  Se  Se134  1  0.25985550  0.24694485  0.55816672  1
  Se  Se135  1  0.25847150  0.59611320  0.06174479  1
  Se  Se136  1  0.24308083  0.57530024  0.55390336  1
  Se  Se137  1  0.25646712  0.91491373  0.05913604  1
  Se  Se138  1  0.25048798  0.91228538  0.55449949  1
  Se  Se139  1  0.57860023  0.25005802  0.05329585  1
  Se  Se140  1  0.58349100  0.25671411  0.55556250  1
  Se  Se141  1  0.58000209  0.58840890  0.04644966  1
  Se  Se142  1  0.57832772  0.59015256  0.54650816  1
  Se  Se143  1  0.58718138  0.92365619  0.06744209  1
  Se  Se144  1  0.58008183  0.91763612  0.55609920  1
  Se  Se145  1  0.91116288  0.24541397  0.05192055  1
  Se  Se146  1  0.92860455  0.26347516  0.54667138  1
  Se  Se147  1  0.93375296  0.57714253  0.06299342  1
  Se  Se148  1  0.92031146  0.59261566  0.56388061  1
  Se  Se149  1  0.91476208  0.90552981  0.05363019  1
  Se  Se150  1  0.91785875  0.91312291  0.55025778  1
  Se  Se151  1  0.09071419  0.26025529  0.43016223  1
  Se  Se152  1  0.08562266  0.24700571  0.95212387  1
  Se  Se153  1  0.08219322  0.58112813  0.43909647  1
  Se  Se154  1  0.08712816  0.58880749  0.94225160  1
  Se  Se155  1  0.09684738  0.91214681  0.45222258  1
  Se  Se156  1  0.07237143  0.92416751  0.93690951  1
  Se  Se157  1  0.40453222  0.25319660  0.43656433  1
  Se  Se158  1  0.41209323  0.25040517  0.95367305  1
  Se  Se159  1  0.40931433  0.57834000  0.45140495  1
  Se  Se160  1  0.42172903  0.58294046  0.94203255  1
  Se  Se161  1  0.42300249  0.90736318  0.44726183  1
  Se  Se162  1  0.40541989  0.92044883  0.94058023  1
  Se  Se163  1  0.74462253  0.26013512  0.44051384  1
  Se  Se164  1  0.74985571  0.24473430  0.95111271  1
  Se  Se165  1  0.74063007  0.59217712  0.44224295  1
  Se  Se166  1  0.74877262  0.58478360  0.93445329  1
  Se  Se167  1  0.75725966  0.91408549  0.45116950  1
  Se  Se168  1  0.74439127  0.90975482  0.94965366  1
  Se  Se169  1  0.26725140  0.07601847  0.44051720  1
  Se  Se170  1  0.24481498  0.08858362  0.94787580  1
  Se  Se171  1  0.24391036  0.41543902  0.43649589  1
  Se  Se172  1  0.25876542  0.41690843  0.94315451  1
  Se  Se173  1  0.24889065  0.74980443  0.44612607  1
  Se  Se174  1  0.26061760  0.74115535  0.93898966  1
  Se  Se175  1  0.59793359  0.07041665  0.43998855  1
  Se  Se176  1  0.57185712  0.07882240  0.94947233  1
  Se  Se177  1  0.57400448  0.41890898  0.44322920  1
  Se  Se178  1  0.58441672  0.41916397  0.94915979  1
  Se  Se179  1  0.58583031  0.74162556  0.45897918  1
  Se  Se180  1  0.58538920  0.74645578  0.93573475  1
  Se  Se181  1  0.93503113  0.07346622  0.43678285  1
  Se  Se182  1  0.91174110  0.08022367  0.95200389  1
  Se  Se183  1  0.91997961  0.42429992  0.43329676  1
  Se  Se184  1  0.92879285  0.40896536  0.94093512  1
  Se  Se185  1  0.91737362  0.75072105  0.45013849  1
  Se  Se186  1  0.91870749  0.74569787  0.94927046  1
  Se  Se187  1  0.24431520  0.25234213  0.28571868  1
  Se  Se188  1  0.25523133  0.25474575  0.80616320  1
  Se  Se189  1  0.23678956  0.57022187  0.30309701  1
  Se  Se190  1  0.25235289  0.58030707  0.80364739  1
  Se  Se191  1  0.25764063  0.91913747  0.30866940  1
  Se  Se192  1  0.23089310  0.91084525  0.80091093  1
  Se  Se193  1  0.58674212  0.25788985  0.29911636  1
  Se  Se194  1  0.57823275  0.24606384  0.81885800  1
  Se  Se195  1  0.56610917  0.58185135  0.31378211  1
  Se  Se196  1  0.59330997  0.59091486  0.79542174  1
  Se  Se197  1  0.58102165  0.90005412  0.31322924  1
  Se  Se198  1  0.58100542  0.91667950  0.79976893  1
  Se  Se199  1  0.91052906  0.24755964  0.29990293  1
  Se  Se200  1  0.91252871  0.24529387  0.81020296  1
  Se  Se201  1  0.90275300  0.58665098  0.30061566  1
  Se  Se202  1  0.92337839  0.59139148  0.80113441  1
  Se  Se203  1  0.91833597  0.90837022  0.31149084  1
  Se  Se204  1  0.90762325  0.91196630  0.81245100  1
  Se  Se205  1  0.09800041  0.08820369  0.30388604  1
  Se  Se206  1  0.08321925  0.09690953  0.80793841  1
  Se  Se207  1  0.05264009  0.39479074  0.30646880  1
  Se  Se208  1  0.09768275  0.42333896  0.81299013  1
  Se  Se209  1  0.08614720  0.75240106  0.30695364  1
  Se  Se210  1  0.08003244  0.75022422  0.79707913  1
  Se  Se211  1  0.42848401  0.09472797  0.30892922  1
  Se  Se212  1  0.41115139  0.08268047  0.80938155  1
  Se  Se213  1  0.40892818  0.41600453  0.30226322  1
  Se  Se214  1  0.42513350  0.40766250  0.79995538  1
  Se  Se215  1  0.41672821  0.73993846  0.30768544  1
  Se  Se216  1  0.41811224  0.75357045  0.80285504  1
  Se  Se217  1  0.76099813  0.09206748  0.30716669  1
  Se  Se218  1  0.74297465  0.07745754  0.81047452  1
  Se  Se219  1  0.73712899  0.41795533  0.30081917  1
  Se  Se220  1  0.76297556  0.42654071  0.80888021  1
  Se  Se221  1  0.74879001  0.75501732  0.31121564  1
  Se  Se222  1  0.74567287  0.74976137  0.80324362  1
  Se  Se223  1  0.26964100  0.07338671  0.19665251  1
  Se  Se224  1  0.25443174  0.08172567  0.70305802  1
  Se  Se225  1  0.22381654  0.44421959  0.19614179  1
  Se  Se226  1  0.25531501  0.41228428  0.69340019  1
  Se  Se227  1  0.25757973  0.75102728  0.20343356  1
  Se  Se228  1  0.27086583  0.72801833  0.69563238  1
  Se  Se229  1  0.58088359  0.08925292  0.18835869  1
  Se  Se230  1  0.58352350  0.08175307  0.70658617  1
  Se  Se231  1  0.57972580  0.42018040  0.19648441  1
  Se  Se232  1  0.57518791  0.42196837  0.69061000  1
  Se  Se233  1  0.57457306  0.75971484  0.18898646  1
  Se  Se234  1  0.57873304  0.74838449  0.68911953  1
  Se  Se235  1  0.91235262  0.08284484  0.18286641  1
  Se  Se236  1  0.90792479  0.08621041  0.69552192  1
  Se  Se237  1  0.90841353  0.41753584  0.19987190  1
  Se  Se238  1  0.91762196  0.42464277  0.68725019  1
  Se  Se239  1  0.91739553  0.74886015  0.19720469  1
  Se  Se240  1  0.91555557  0.75495483  0.69941987  1
  Se  Se241  1  0.07201170  0.24678335  0.19798206  1
  Se  Se242  1  0.09401333  0.24716322  0.68619257  1
  Se  Se243  1  0.06583199  0.60298457  0.20194693  1
  Se  Se244  1  0.08616560  0.58211359  0.69642624  1
  Se  Se245  1  0.09809687  0.90875741  0.19023580  1
  Se  Se246  1  0.08732864  0.90624765  0.68324580  1
  Se  Se247  1  0.41578755  0.25424358  0.19311171  1
  Se  Se248  1  0.41979169  0.24855876  0.70072845  1
  Se  Se249  1  0.41553928  0.58772847  0.19544947  1
  Se  Se250  1  0.40243395  0.59606267  0.69261956  1
  Se  Se251  1  0.42237541  0.92143948  0.20783607  1
  Se  Se252  1  0.40903108  0.91655273  0.69711245  1
  Se  Se253  1  0.74520418  0.25178325  0.19297491  1
  Se  Se254  1  0.75479746  0.24375661  0.69407477  1
  Se  Se255  1  0.74840812  0.58206579  0.18336528  1
  Se  Se256  1  0.74884821  0.58534784  0.69637041  1
  Se  Se257  1  0.75350516  0.90925464  0.19426473  1
  Se  Se258  1  0.74047761  0.91619019  0.69381916  1
