# generated using pymatgen
data_In86Cu29Se144
_symmetry_space_group_name_H-M   'P 1'
_cell_length_a   17.61160028
_cell_length_b   17.60305004
_cell_length_c   23.46959189
_cell_angle_alpha   90.00179807
_cell_angle_beta   90.03822888
_cell_angle_gamma   90.00775878
_symmetry_Int_Tables_number   1
_chemical_formula_structural   In86Cu29Se144
_chemical_formula_sum   'In86 Cu29 Se144'
_cell_volume   7275.99145703
_cell_formula_units_Z   1
loop_
 _symmetry_equiv_pos_site_id
 _symmetry_equiv_pos_as_xyz
  1  'x, y, z'
loop_
 _atom_site_type_symbol
 _atom_site_label
 _atom_site_symmetry_multiplicity
 _atom_site_fract_x
 _atom_site_fract_y
 _atom_site_fract_z
 _atom_site_occupancy
  In  In0  1  -0.01717598  0.15278703  0.12251924  1
  In  In1  1  -0.00483618  0.15845931  0.61399025  1
  In  In2  1  -0.00442579  0.52000591  0.13075897  1
  In  In3  1  0.02541029  0.53381414  0.59527061  1
  In  In4  1  -0.00274422  0.83326761  0.12969601  1
  In  In5  1  -0.02791651  0.81761805  0.59197990  1
  In  In6  1  0.33111064  0.15398083  0.12327274  1
  In  In7  1  0.32189152  0.16773491  0.63372166  1
  In  In8  1  0.33643097  0.49352039  0.11981398  1
  In  In9  1  0.32282461  0.51051412  0.63464582  1
  In  In10  1  0.33052963  0.84840383  0.12611011  1
  In  In11  1  0.33486807  0.82999737  0.62132091  1
  In  In12  1  0.66618210  0.16304347  0.12457178  1
  In  In13  1  0.67330492  0.15698773  0.62372943  1
  In  In14  1  0.67009432  0.50682620  0.11428054  1
  In  In15  1  0.68732580  0.51136044  0.62046200  1
  In  In16  1  0.67898195  0.82786927  0.12895858  1
  In  In17  1  0.65589065  0.81662713  0.60399744  1
  In  In18  1  0.16754915  -0.00482685  0.37891717  1
  In  In19  1  0.16271516  -0.01909242  0.87366854  1
  In  In20  1  0.15553680  0.33439507  0.38334527  1
  In  In21  1  0.17098249  0.32322013  0.86938874  1
  In  In22  1  0.13593062  0.71539788  0.43037074  1
  In  In23  1  0.17180941  0.67604299  0.86659004  1
  In  In24  1  0.48760049  -0.02037613  0.35106499  1
  In  In25  1  0.50247328  0.00920568  0.87760962  1
  In  In26  1  0.49019437  0.33831341  0.37237824  1
  In  In27  1  0.49869378  0.33661398  0.87566742  1
  In  In28  1  0.49863039  0.68926412  0.38835374  1
  In  In29  1  0.49165214  0.65423356  0.86708756  1
  In  In30  1  0.83334731  0.00030934  0.36740440  1
  In  In31  1  0.84833350  -0.00671356  0.89337926  1
  In  In32  1  0.83919602  0.33200657  0.37652134  1
  In  In33  1  0.83365913  0.33569524  0.88146138  1
  In  In34  1  0.83971729  0.66342548  0.39429139  1
  In  In35  1  0.83416483  0.67072520  0.86864989  1
  In  In36  1  0.00378914  0.15314492  0.37876319  1
  In  In37  1  -0.00736121  0.15566785  0.88013462  1
  In  In38  1  -0.00574092  0.52311894  0.39678608  1
  In  In39  1  -0.01449934  0.50715280  0.87551965  1
  In  In40  1  -0.00426079  0.83760555  0.38087123  1
  In  In41  1  0.00426972  0.83085508  0.87738154  1
  In  In42  1  0.33485376  0.15346022  0.37488418  1
  In  In43  1  0.33820218  0.17249535  0.86749226  1
  In  In44  1  0.31851296  0.50279938  0.38194899  1
  In  In45  1  0.33947535  0.50818249  0.86350898  1
  In  In46  1  0.32358822  0.83588299  0.38785306  1
  In  In47  1  0.32303109  0.82332369  0.86430259  1
  In  In48  1  0.68678170  0.14921980  0.37645113  1
  In  In49  1  0.67345172  0.15899175  0.88447397  1
  In  In50  1  0.67759012  0.52289912  0.37870804  1
  In  In51  1  0.66571304  0.50230307  0.87325995  1
  In  In52  1  0.66673397  0.83954353  0.38342761  1
  In  In53  1  0.68217223  0.83358842  0.87225156  1
  In  In54  1  0.17287962  -0.01513418  0.13610046  1
  In  In55  1  0.16725682  -0.00438843  0.61661614  1
  In  In56  1  0.17269461  0.33263133  0.12695699  1
  In  In57  1  0.17082844  0.33995187  0.62164457  1
  In  In58  1  0.14673385  0.67194768  0.13051043  1
  In  In59  1  0.17364598  0.67002706  0.61950017  1
  In  In60  1  0.48600891  0.00524458  0.12962658  1
  In  In61  1  0.49995520  -0.02048491  0.62159268  1
  In  In62  1  0.50830541  0.33960310  0.11450344  1
  In  In63  1  0.49627971  0.32241078  0.63250790  1
  In  In64  1  0.50993798  0.66661777  0.11950275  1
  In  In65  1  0.48915280  0.67843141  0.62969395  1
  In  In66  1  0.83515897  -0.00665070  0.13472439  1
  In  In67  1  0.83466521  -0.01172021  0.60767158  1
  In  In68  1  0.82657933  0.33181201  0.12418011  1
  In  In69  1  0.84189108  0.33770508  0.62190458  1
  In  In70  1  0.83978462  0.67905916  0.11997462  1
  In  In71  1  0.83857597  0.67171994  0.62434706  1
  In  In72  1  0.66520551  0.33684845  0.75631995  1
  In  In73  1  -0.00056926  0.32317034  0.25041486  1
  In  In74  1  0.50423472  0.16290999  0.49891657  1
  In  In75  1  0.32738789  0.67242372  0.26460680  1
  In  In76  1  0.16808038  0.50389270  -0.00118064  1
  In  In77  1  0.66905281  0.67414850  0.25243320  1
  In  In78  1  0.32913841  0.32978413  0.24554582  1
  In  In79  1  0.66765297  -0.00252789  0.75007438  1
  In  In80  1  0.50135949  0.49532557  0.50699060  1
  In  In81  1  0.16362094  0.16282896  0.00232946  1
  In  In82  1  0.00455779  0.33895496  0.74600701  1
  In  In83  1  0.66198756  0.33023179  0.24609809  1
  In  In84  1  0.50217802  0.83586732  -0.00055433  1
  In  In85  1  0.00679888  -0.00856114  0.73960829  1
  Cu  Cu86  1  0.16081662  0.82589627  0.26599368  1
  Cu  Cu87  1  0.66446702  0.66016643  -0.00686918  1
  Cu  Cu88  1  0.32634072  0.67101782  -0.00891160  1
  Cu  Cu89  1  0.49693493  0.51283105  0.24851916  1
  Cu  Cu90  1  0.50309012  0.50177023  0.74755230  1
  Cu  Cu91  1  0.34532629  0.33529163  -0.00745266  1
  Cu  Cu92  1  0.49167678  0.16089773  0.75277284  1
  Cu  Cu93  1  0.67232074  0.00151428  0.00607713  1
  Cu  Cu94  1  0.33401980  -0.00031489  0.49796652  1
  Cu  Cu95  1  0.83760998  0.50675297  0.25763806  1
  Cu  Cu96  1  0.16596215  0.15865187  0.25277877  1
  Cu  Cu97  1  0.84311459  0.83054545  0.25249250  1
  Cu  Cu98  1  0.66895235  0.00187960  0.49439238  1
  Cu  Cu99  1  0.84411121  0.51323146  0.74285366  1
  Cu  Cu100  1  0.49765631  0.82842064  0.74428419  1
  Cu  Cu101  1  -0.00965051  0.32556865  0.49748209  1
  Cu  Cu102  1  0.33156530  0.00185143  0.00146954  1
  Cu  Cu103  1  -0.00641642  0.67347700  0.00189598  1
  Cu  Cu104  1  0.16570596  0.83021733  0.74057128  1
  Cu  Cu105  1  0.16319056  0.50602970  0.74267784  1
  Cu  Cu106  1  0.67132952  0.33064566  -0.00046166  1
  Cu  Cu107  1  0.83533392  0.83319555  0.74140300  1
  Cu  Cu108  1  0.66936528  0.33623546  0.49394402  1
  Cu  Cu109  1  -0.00271072  0.34051071  0.00391748  1
  Cu  Cu110  1  0.15356170  0.50820733  0.25847701  1
  Cu  Cu111  1  0.16809062  0.16087240  0.74568777  1
  Cu  Cu112  1  0.50223660  0.16710693  0.24812725  1
  Cu  Cu113  1  0.83407558  0.16271638  0.75154464  1
  Cu  Cu114  1  0.32241242  0.32743062  0.50894540  1
  Se  Se115  1  0.08343082  0.07086370  0.06455789  1
  Se  Se116  1  0.07794247  0.07353314  0.54955189  1
  Se  Se117  1  0.07914775  0.41650695  0.06455918  1
  Se  Se118  1  0.07229453  0.40448253  0.55568218  1
  Se  Se119  1  0.08016343  0.75426348  0.05500255  1
  Se  Se120  1  0.08443001  0.74285743  0.54828576  1
  Se  Se121  1  0.41816825  0.08563646  0.05023017  1
  Se  Se122  1  0.41248203  0.07922988  0.56159193  1
  Se  Se123  1  0.42157733  0.42207295  0.04840506  1
  Se  Se124  1  0.40819096  0.40613207  0.56539165  1
  Se  Se125  1  0.40710229  0.74623260  0.05737560  1
  Se  Se126  1  0.42633809  0.75977704  0.55165176  1
  Se  Se127  1  0.75575663  0.07965121  0.06263466  1
  Se  Se128  1  0.75089026  0.08346403  0.54951978  1
  Se  Se129  1  0.75248477  0.41697019  0.05279762  1
  Se  Se130  1  0.75004216  0.41203244  0.55487934  1
  Se  Se131  1  0.74203153  0.74372875  0.05150711  1
  Se  Se132  1  0.78585947  0.78401289  0.56052881  1
  Se  Se133  1  0.26244485  0.25943931  0.05407738  1
  Se  Se134  1  0.24143254  0.23944995  0.55825155  1
  Se  Se135  1  0.25246608  0.59648423  0.06200594  1
  Se  Se136  1  0.24305296  0.56965677  0.55491873  1
  Se  Se137  1  0.24642407  0.91781185  0.05215956  1
  Se  Se138  1  0.25308853  0.91287441  0.55053926  1
  Se  Se139  1  0.58815998  0.24826441  0.05318831  1
  Se  Se140  1  0.59394264  0.25826492  0.55802078  1
  Se  Se141  1  0.57808687  0.58006997  0.04638781  1
  Se  Se142  1  0.58529903  0.59093858  0.56383183  1
  Se  Se143  1  0.58946156  0.92090114  0.06493088  1
  Se  Se144  1  0.58216913  0.91712597  0.54372603  1
  Se  Se145  1  0.91952603  0.25563034  0.05933495  1
  Se  Se146  1  0.90747939  0.24363281  0.55212027  1
  Se  Se147  1  0.91410909  0.58378306  0.05321409  1
  Se  Se148  1  0.89740969  0.57304092  0.55340096  1
  Se  Se149  1  0.89578095  0.89559132  0.06482651  1
  Se  Se150  1  0.95914644  0.95577208  0.55330150  1
  Se  Se151  1  0.07886354  0.24400197  0.44775130  1
  Se  Se152  1  0.07463614  0.26024036  0.94315162  1
  Se  Se153  1  0.10731151  0.57004469  0.45546217  1
  Se  Se154  1  0.07677467  0.59423955  0.94145646  1
  Se  Se155  1  0.10842963  0.89112998  0.44417751  1
  Se  Se156  1  0.05557854  0.94163656  0.94004175  1
  Se  Se157  1  0.40656260  0.25707956  0.44485812  1
  Se  Se158  1  0.42177634  0.24434964  0.94160526  1
  Se  Se159  1  0.41674426  0.58374813  0.44282359  1
  Se  Se160  1  0.41026461  0.58314365  0.94347308  1
  Se  Se161  1  0.42128186  0.92434164  0.44119914  1
  Se  Se162  1  0.40708415  0.91922621  0.93788260  1
  Se  Se163  1  0.74917619  0.25063617  0.44095309  1
  Se  Se164  1  0.75584936  0.24722560  0.94774891  1
  Se  Se165  1  0.75003887  0.58423139  0.46027969  1
  Se  Se166  1  0.75328850  0.58419181  0.93802164  1
  Se  Se167  1  0.75845228  0.92012798  0.44562395  1
  Se  Se168  1  0.74798376  0.91456449  0.94965174  1
  Se  Se169  1  0.24960820  0.08440757  0.44692591  1
  Se  Se170  1  0.25211398  0.07905264  0.93690268  1
  Se  Se171  1  0.24782861  0.41003230  0.44870461  1
  Se  Se172  1  0.25574257  0.41180095  0.93769151  1
  Se  Se173  1  0.27917719  0.73118808  0.45625343  1
  Se  Se174  1  0.24232231  0.75717385  0.94357444  1
  Se  Se175  1  0.58056670  0.07200691  0.43250555  1
  Se  Se176  1  0.58593030  0.08028636  0.95144443  1
  Se  Se177  1  0.59013903  0.41474240  0.43490847  1
  Se  Se178  1  0.59098853  0.41172915  0.94098953  1
  Se  Se179  1  0.61200114  0.73235062  0.44785532  1
  Se  Se180  1  0.58552276  0.74482327  0.93476408  1
  Se  Se181  1  0.90258213  0.08814128  0.44075224  1
  Se  Se182  1  0.91046191  0.09542128  0.95666944  1
  Se  Se183  1  0.91355028  0.41771095  0.44705109  1
  Se  Se184  1  0.91546556  0.42164987  0.94814495  1
  Se  Se185  1  0.92143588  0.75466253  0.45512192  1
  Se  Se186  1  0.91262290  0.75241327  0.94202860  1
  Se  Se187  1  0.24125586  0.24564887  0.31083456  1
  Se  Se188  1  0.25028416  0.24767673  0.79707120  1
  Se  Se189  1  0.23142006  0.58716237  0.31864247  1
  Se  Se190  1  0.24792988  0.58647628  0.79971025  1
  Se  Se191  1  0.25137571  0.91191966  0.30920530  1
  Se  Se192  1  0.24543651  0.91437050  0.79785816  1
  Se  Se193  1  0.57511995  0.24498631  0.31262135  1
  Se  Se194  1  0.58228472  0.23389326  0.80981033  1
  Se  Se195  1  0.57191908  0.58822877  0.31301964  1
  Se  Se196  1  0.58782153  0.58334654  0.80098432  1
  Se  Se197  1  0.60091104  0.91552448  0.30287370  1
  Se  Se198  1  0.57498255  0.90690599  0.80930362  1
  Se  Se199  1  0.90831470  0.23604365  0.30793572  1
  Se  Se200  1  0.91402011  0.24613307  0.80735888  1
  Se  Se201  1  0.91555745  0.58748488  0.31605548  1
  Se  Se202  1  0.92540592  0.59435662  0.79955265  1
  Se  Se203  1  0.92498557  0.91715230  0.30412078  1
  Se  Se204  1  0.90894741  0.91550153  0.80519740  1
  Se  Se205  1  0.08502006  0.07589440  0.30655960  1
  Se  Se206  1  0.08560796  0.08750268  0.80685543  1
  Se  Se207  1  0.07575560  0.42103605  0.31275941  1
  Se  Se208  1  0.09072105  0.42840437  0.81143188  1
  Se  Se209  1  0.08811607  0.74200475  0.32627282  1
  Se  Se210  1  0.08179357  0.75571650  0.80177593  1
  Se  Se211  1  0.41260809  0.08604618  0.29732804  1
  Se  Se212  1  0.41259087  0.07415717  0.80479182  1
  Se  Se213  1  0.41395513  0.43102596  0.30373293  1
  Se  Se214  1  0.42199085  0.41602253  0.80171056  1
  Se  Se215  1  0.42504974  0.76591786  0.31041587  1
  Se  Se216  1  0.41552818  0.74601211  0.80071333  1
  Se  Se217  1  0.74174734  0.06994523  0.29613763  1
  Se  Se218  1  0.76274254  0.07890323  0.81309665  1
  Se  Se219  1  0.75013036  0.42523861  0.30890030  1
  Se  Se220  1  0.76834225  0.42663377  0.80254134  1
  Se  Se221  1  0.76428974  0.75126581  0.31554477  1
  Se  Se222  1  0.75188087  0.75242139  0.79692128  1
  Se  Se223  1  0.25311877  0.08109588  0.19773252  1
  Se  Se224  1  0.24509754  0.07044321  0.69438322  1
  Se  Se225  1  0.23710909  0.43437048  0.19669723  1
  Se  Se226  1  0.24679911  0.41440066  0.69864640  1
  Se  Se227  1  0.24049153  0.75648401  0.19547689  1
  Se  Se228  1  0.25464348  0.74755135  0.69274650  1
  Se  Se229  1  0.58074877  0.08344679  0.19288306  1
  Se  Se230  1  0.57308340  0.08672469  0.68989825  1
  Se  Se231  1  0.57717161  0.43267747  0.19102005  1
  Se  Se232  1  0.58408680  0.42345616  0.68679030  1
  Se  Se233  1  0.57198058  0.75886354  0.19367487  1
  Se  Se234  1  0.58935488  0.75391506  0.69117615  1
  Se  Se235  1  0.92241651  0.07512113  0.20123541  1
  Se  Se236  1  0.90605666  0.08198664  0.68871080  1
  Se  Se237  1  0.90990232  0.42370723  0.19474980  1
  Se  Se238  1  0.92276757  0.43175716  0.68490827  1
  Se  Se239  1  0.92099468  0.74164768  0.19924361  1
  Se  Se240  1  0.92610870  0.75962971  0.68826891  1
  Se  Se241  1  0.09277693  0.23741639  0.18788455  1
  Se  Se242  1  0.08350988  0.23775294  0.68756111  1
  Se  Se243  1  0.07352995  0.59332854  0.20617958  1
  Se  Se244  1  0.08333800  0.58904741  0.68744520  1
  Se  Se245  1  0.08429043  0.90760722  0.20307428  1
  Se  Se246  1  0.08202338  0.89643136  0.67609857  1
  Se  Se247  1  0.42669037  0.24897872  0.18581199  1
  Se  Se248  1  0.41071398  0.24736575  0.70109774  1
  Se  Se249  1  0.41329749  0.58798995  0.18925546  1
  Se  Se250  1  0.41659257  0.58628573  0.69779271  1
  Se  Se251  1  0.41611558  0.91400123  0.19830517  1
  Se  Se252  1  0.41371798  0.91450970  0.69518161  1
  Se  Se253  1  0.75942509  0.23952273  0.19742238  1
  Se  Se254  1  0.75466449  0.24518577  0.69420442  1
  Se  Se255  1  0.75581835  0.57988713  0.19198744  1
  Se  Se256  1  0.75275463  0.59430989  0.69690701  1
  Se  Se257  1  0.75088764  0.90880217  0.20340110  1
  Se  Se258  1  0.75169692  0.91248153  0.68345660  1
