# generated using pymatgen
data_In86Cu29Se144
_symmetry_space_group_name_H-M   'P 1'
_cell_length_a   17.57305936
_cell_length_b   17.57500289
_cell_length_c   23.43308330
_cell_angle_alpha   89.98585967
_cell_angle_beta   89.99953461
_cell_angle_gamma   90.00709118
_symmetry_Int_Tables_number   1
_chemical_formula_structural   In86Cu29Se144
_chemical_formula_sum   'In86 Cu29 Se144'
_cell_volume   7237.22710253
_cell_formula_units_Z   1
loop_
 _symmetry_equiv_pos_site_id
 _symmetry_equiv_pos_as_xyz
  1  'x, y, z'
loop_
 _atom_site_type_symbol
 _atom_site_label
 _atom_site_symmetry_multiplicity
 _atom_site_fract_x
 _atom_site_fract_y
 _atom_site_fract_z
 _atom_site_occupancy
  In  In0  1  0.00078434  0.17569639  0.12046807  1
  In  In1  1  0.00607509  0.17730602  0.61861127  1
  In  In2  1  -0.00320059  0.50040445  0.12948940  1
  In  In3  1  -0.01557411  0.49217485  0.62903782  1
  In  In4  1  -0.00608656  0.82711100  0.11291209  1
  In  In5  1  0.00904644  0.83334369  0.62695084  1
  In  In6  1  0.32791808  0.15857396  0.12823586  1
  In  In7  1  0.33961948  0.17647299  0.61603174  1
  In  In8  1  0.34490060  0.50277996  0.13111161  1
  In  In9  1  0.32849972  0.48401046  0.62026789  1
  In  In10  1  0.33577381  0.83606155  0.12624495  1
  In  In11  1  0.33606651  0.81900604  0.62686026  1
  In  In12  1  0.67019607  0.17180543  0.12073168  1
  In  In13  1  0.66094488  0.16078792  0.62172070  1
  In  In14  1  0.68078068  0.49030691  0.13195944  1
  In  In15  1  0.66412746  0.51203691  0.62831875  1
  In  In16  1  0.66165512  0.83213336  0.12236826  1
  In  In17  1  0.65754656  0.84160574  0.63427695  1
  In  In18  1  0.18538579  0.00328221  0.36790499  1
  In  In19  1  0.14039056  0.02194771  0.90625403  1
  In  In20  1  0.14910416  0.33029551  0.36601976  1
  In  In21  1  0.16047693  0.32185304  0.87098705  1
  In  In22  1  0.16876814  0.65635551  0.35130710  1
  In  In23  1  0.17176001  0.67742089  0.87986492  1
  In  In24  1  0.48647160  0.01337844  0.37806927  1
  In  In25  1  0.50903969  -0.00950858  0.88031194  1
  In  In26  1  0.51805155  0.31704501  0.37551748  1
  In  In27  1  0.48487183  0.33904352  0.87061613  1
  In  In28  1  0.50455013  0.66895595  0.37533335  1
  In  In29  1  0.51062941  0.66419321  0.87586160  1
  In  In30  1  0.84494304  0.01402794  0.36994502  1
  In  In31  1  0.82582310  0.00963566  0.88857090  1
  In  In32  1  0.83128231  0.31977679  0.35650406  1
  In  In33  1  0.84143612  0.32593865  0.88856792  1
  In  In34  1  0.82837498  0.66090517  0.35915858  1
  In  In35  1  0.82249260  0.67185671  0.88522737  1
  In  In36  1  -0.00558640  0.17473326  0.37774796  1
  In  In37  1  -0.01658848  0.18646907  0.90335487  1
  In  In38  1  -0.00463481  0.48929392  0.35472232  1
  In  In39  1  -0.00113327  0.47981210  0.88206915  1
  In  In40  1  0.01291101  0.83481572  0.36633288  1
  In  In41  1  -0.01311128  0.84855617  0.90577007  1
  In  In42  1  0.34182999  0.15857416  0.37292631  1
  In  In43  1  0.32535471  0.17246364  0.87926088  1
  In  In44  1  0.33676236  0.51335611  0.37002068  1
  In  In45  1  0.34754635  0.48707620  0.87339434  1
  In  In46  1  0.34382658  0.84219685  0.36606537  1
  In  In47  1  0.32724249  0.84313067  0.88582180  1
  In  In48  1  0.66065791  0.17382636  0.36987071  1
  In  In49  1  0.67206703  0.15490994  0.87967703  1
  In  In50  1  0.66048441  0.49014959  0.37270852  1
  In  In51  1  0.66176278  0.51611009  0.87311238  1
  In  In52  1  0.66667775  0.82250575  0.37092753  1
  In  In53  1  0.66392606  0.83128616  0.87756882  1
  In  In54  1  0.17849011  0.01781789  0.11923847  1
  In  In55  1  0.15116018  0.00955029  0.62764361  1
  In  In56  1  0.15338160  0.31300008  0.12943089  1
  In  In57  1  0.17450163  0.32631844  0.62993237  1
  In  In58  1  0.15549705  0.66770435  0.13813661  1
  In  In59  1  0.17341331  0.67720572  0.62420449  1
  In  In60  1  0.49341163  -0.00298906  0.12328435  1
  In  In61  1  0.50868218  0.00742566  0.62037450  1
  In  In62  1  0.51295593  0.33021317  0.12817825  1
  In  In63  1  0.49507222  0.32645182  0.61788547  1
  In  In64  1  0.49644191  0.67445339  0.13533135  1
  In  In65  1  0.50491254  0.68039611  0.61509755  1
  In  In66  1  0.84972895  0.00873750  0.10507180  1
  In  In67  1  0.81799840  0.00027103  0.62740470  1
  In  In68  1  0.82851698  0.32707411  0.12042799  1
  In  In69  1  0.84421513  0.33525172  0.62971908  1
  In  In70  1  0.83254044  0.66696052  0.12334917  1
  In  In71  1  0.82584281  0.64794824  0.62798541  1
  In  In72  1  0.18306555  0.84394277  0.48709953  1
  In  In73  1  0.33411953  0.00067027  0.75383400  1
  In  In74  1  0.66922334  0.00090466  0.24390483  1
  In  In75  1  0.50558035  0.49983991  -0.00086006  1
  In  In76  1  0.66779465  0.33154860  0.75131294  1
  In  In77  1  0.16545942  0.49585395  0.01040148  1
  In  In78  1  0.16775310  0.49418749  0.49172804  1
  In  In79  1  0.33004896  0.33265355  0.25165009  1
  In  In80  1  0.82895855  0.49480351  0.49945053  1
  In  In81  1  -0.00242788  0.66481745  0.74884282  1
  In  In82  1  0.82935283  0.83951521  0.50011349  1
  In  In83  1  0.00298384  0.00533659  0.23305147  1
  In  In84  1  -0.01378908  0.01263402  0.77157811  1
  In  In85  1  0.33912937  0.65585959  0.75406744  1
  Cu  Cu86  1  0.50436632  0.82981276  0.75183788  1
  Cu  Cu87  1  0.33539322  0.32778188  0.49405248  1
  Cu  Cu88  1  -0.00362991  0.33362078  0.49768683  1
  Cu  Cu89  1  0.83340449  0.49637243  0.75536272  1
  Cu  Cu90  1  0.66179028  0.66998228  0.50051034  1
  Cu  Cu91  1  0.32809221  0.32581878  0.00199360  1
  Cu  Cu92  1  0.33414703  -0.00146165  0.49861072  1
  Cu  Cu93  1  0.34032881  0.00329705  0.00232333  1
  Cu  Cu94  1  0.16840114  0.17562966  0.75156984  1
  Cu  Cu95  1  0.50142036  0.83560931  0.24915505  1
  Cu  Cu96  1  0.00435814  0.67193138  0.48583737  1
  Cu  Cu97  1  0.34194274  0.67076956  0.49262714  1
  Cu  Cu98  1  -0.00051807  0.01705671  0.49912965  1
  Cu  Cu99  1  0.84095331  0.16582997  0.76074624  1
  Cu  Cu100  1  0.66393969  0.66686549  0.00469188  1
  Cu  Cu101  1  0.50486705  0.50526904  0.25320465  1
  Cu  Cu102  1  0.16183721  0.49069127  0.75193983  1
  Cu  Cu103  1  0.33661116  0.67378852  0.00745953  1
  Cu  Cu104  1  0.50176969  0.16382306  0.74484179  1
  Cu  Cu105  1  0.16723443  0.82760357  0.24323234  1
  Cu  Cu106  1  0.15843686  0.84291017  0.76803630  1
  Cu  Cu107  1  0.82015741  0.82603744  0.75722335  1
  Cu  Cu108  1  0.00021674  0.65842251  0.00684864  1
  Cu  Cu109  1  0.66877852  0.32656815  0.00114117  1
  Cu  Cu110  1  0.65946415  -0.00066115  0.00377727  1
  Cu  Cu111  1  0.83730350  0.83315705  0.23897477  1
  Cu  Cu112  1  0.83404754  0.50415549  0.24235928  1
  Cu  Cu113  1  0.66772993  0.32710082  0.49472471  1
  Cu  Cu114  1  0.66676439  0.00217520  0.49822907  1
  Se  Se115  1  0.06517530  0.06850535  0.06116716  1
  Se  Se116  1  0.09021048  0.09378582  0.55022617  1
  Se  Se117  1  0.07137406  0.40264443  0.05965499  1
  Se  Se118  1  0.07526727  0.41405459  0.55955699  1
  Se  Se119  1  0.08956928  0.74030661  0.05566234  1
  Se  Se120  1  0.08462233  0.75101146  0.54759564  1
  Se  Se121  1  0.41867704  0.08999713  0.05642003  1
  Se  Se122  1  0.41754122  0.08186710  0.55393146  1
  Se  Se123  1  0.41224094  0.40857586  0.05747778  1
  Se  Se124  1  0.41494297  0.41354547  0.54837567  1
  Se  Se125  1  0.42421332  0.75334316  0.05872744  1
  Se  Se126  1  0.41755146  0.75994437  0.54673828  1
  Se  Se127  1  0.74677804  0.08557001  0.04989802  1
  Se  Se128  1  0.75068430  0.08416283  0.55233298  1
  Se  Se129  1  0.74824376  0.41713298  0.05083922  1
  Se  Se130  1  0.73980061  0.40662002  0.56282075  1
  Se  Se131  1  0.74882378  0.75097926  0.05529894  1
  Se  Se132  1  0.74645014  0.74418106  0.56296993  1
  Se  Se133  1  0.24763601  0.24655804  0.05963347  1
  Se  Se134  1  0.24713072  0.25317390  0.55022897  1
  Se  Se135  1  0.25821571  0.58964812  0.06430404  1
  Se  Se136  1  0.25480990  0.59301632  0.55242443  1
  Se  Se137  1  0.25588978  0.92164178  0.05687566  1
  Se  Se138  1  0.25511549  0.92520495  0.56736853  1
  Se  Se139  1  0.57870973  0.24768429  0.05100608  1
  Se  Se140  1  0.58442200  0.24659695  0.55228587  1
  Se  Se141  1  0.58694119  0.58536933  0.06687400  1
  Se  Se142  1  0.58201413  0.58230367  0.55294910  1
  Se  Se143  1  0.57757220  0.91455280  0.05512716  1
  Se  Se144  1  0.58854961  0.91756544  0.55435697  1
  Se  Se145  1  0.90881920  0.24407612  0.05042330  1
  Se  Se146  1  0.91177734  0.25301948  0.55306121  1
  Se  Se147  1  0.91412242  0.57737386  0.05739746  1
  Se  Se148  1  0.92733352  0.59200262  0.55159582  1
  Se  Se149  1  0.91130362  0.90461266  0.04287430  1
  Se  Se150  1  0.92736460  0.92684109  0.55987992  1
  Se  Se151  1  0.08416556  0.25232826  0.44674481  1
  Se  Se152  1  0.09812044  0.24806454  0.95297420  1
  Se  Se153  1  0.07841515  0.58473979  0.42957173  1
  Se  Se154  1  0.08181742  0.58551762  0.94152035  1
  Se  Se155  1  0.07756888  0.93218937  0.43943310  1
  Se  Se156  1  0.11168043  0.89189871  0.95097933  1
  Se  Se157  1  0.42069761  0.24567230  0.44090984  1
  Se  Se158  1  0.41709227  0.25307221  0.94455315  1
  Se  Se159  1  0.42280984  0.58134458  0.44427799  1
  Se  Se160  1  0.40729283  0.59035920  0.94422205  1
  Se  Se161  1  0.41720435  0.91523459  0.44560476  1
  Se  Se162  1  0.42109930  0.91612429  0.95055306  1
  Se  Se163  1  0.75285056  0.25254655  0.43685035  1
  Se  Se164  1  0.75109483  0.24053146  0.94877803  1
  Se  Se165  1  0.74572959  0.59256704  0.44039412  1
  Se  Se166  1  0.74415194  0.57988068  0.95126520  1
  Se  Se167  1  0.74658767  0.92811433  0.43324694  1
  Se  Se168  1  0.74244852  0.91672539  0.94782377  1
  Se  Se169  1  0.25284041  0.08322205  0.44549078  1
  Se  Se170  1  0.25367420  0.08990974  0.95432462  1
  Se  Se171  1  0.25787152  0.40657063  0.43053861  1
  Se  Se172  1  0.25504279  0.41321504  0.94270925  1
  Se  Se173  1  0.25407544  0.73862710  0.42866607  1
  Se  Se174  1  0.25035913  0.75304462  0.95347482  1
  Se  Se175  1  0.58710641  0.08425370  0.43986536  1
  Se  Se176  1  0.57847357  0.08524278  0.94837103  1
  Se  Se177  1  0.58273027  0.41357497  0.44701086  1
  Se  Se178  1  0.59142845  0.40686494  0.93754143  1
  Se  Se179  1  0.58271754  0.75625233  0.44696737  1
  Se  Se180  1  0.58125191  0.74833157  0.94901216  1
  Se  Se181  1  0.90931106  0.09451585  0.44824810  1
  Se  Se182  1  0.94693004  0.05431463  0.94131405  1
  Se  Se183  1  0.91866569  0.41222827  0.43501531  1
  Se  Se184  1  0.91029685  0.42069808  0.95590322  1
  Se  Se185  1  0.91734804  0.75232036  0.43313049  1
  Se  Se186  1  0.91285819  0.74108188  0.95634573  1
  Se  Se187  1  0.24213381  0.23877197  0.30892298  1
  Se  Se188  1  0.25809552  0.25579922  0.80216799  1
  Se  Se189  1  0.25560636  0.57236809  0.29025343  1
  Se  Se190  1  0.23953142  0.57158891  0.81408548  1
  Se  Se191  1  0.24910199  0.91064636  0.29737876  1
  Se  Se192  1  0.23704248  0.93003120  0.82151121  1
  Se  Se193  1  0.59499623  0.25796058  0.29292012  1
  Se  Se194  1  0.57795725  0.24149407  0.81153992  1
  Se  Se195  1  0.59045920  0.58747996  0.30712926  1
  Se  Se196  1  0.56076061  0.56722067  0.80350823  1
  Se  Se197  1  0.57988438  0.91765059  0.31068405  1
  Se  Se198  1  0.58620457  0.91548976  0.80428723  1
  Se  Se199  1  0.94222788  0.26181734  0.29654500  1
  Se  Se200  1  0.92205195  0.24907850  0.81408213  1
  Se  Se201  1  0.92101334  0.58836912  0.29403060  1
  Se  Se202  1  0.91306321  0.57979089  0.81572421  1
  Se  Se203  1  0.91428698  0.91336138  0.30116417  1
  Se  Se204  1  0.90418045  0.90252899  0.81824449  1
  Se  Se205  1  0.07987869  0.07959827  0.31202270  1
  Se  Se206  1  0.09083623  0.09965352  0.81708703  1
  Se  Se207  1  0.10103821  0.43014501  0.29373716  1
  Se  Se208  1  0.07763907  0.40962970  0.80487895  1
  Se  Se209  1  0.07895972  0.74660894  0.29382053  1
  Se  Se210  1  0.07320291  0.75701699  0.81785758  1
  Se  Se211  1  0.40878605  0.07324989  0.29740818  1
  Se  Se212  1  0.42479606  0.08968746  0.81258196  1
  Se  Se213  1  0.42797507  0.41755797  0.31181252  1
  Se  Se214  1  0.42202673  0.42271215  0.79348833  1
  Se  Se215  1  0.42155374  0.74830869  0.30345772  1
  Se  Se216  1  0.41660547  0.75905410  0.81365564  1
  Se  Se217  1  0.75917753  0.09453096  0.30166470  1
  Se  Se218  1  0.75502582  0.07911199  0.80621687  1
  Se  Se219  1  0.75558702  0.42438021  0.30343006  1
  Se  Se220  1  0.75469128  0.41736702  0.81713727  1
  Se  Se221  1  0.75179872  0.75520043  0.29570223  1
  Se  Se222  1  0.73984494  0.73909141  0.80815887  1
  Se  Se223  1  0.24153125  0.08968850  0.20189285  1
  Se  Se224  1  0.24447562  0.09155619  0.69136184  1
  Se  Se225  1  0.24537670  0.41468738  0.18250775  1
  Se  Se226  1  0.25130996  0.41454710  0.69852555  1
  Se  Se227  1  0.25687810  0.74642399  0.19455372  1
  Se  Se228  1  0.23937936  0.76138550  0.70611355  1
  Se  Se229  1  0.57645230  0.09019567  0.18853796  1
  Se  Se230  1  0.58819273  0.07892766  0.69742135  1
  Se  Se231  1  0.58291529  0.42088311  0.19732286  1
  Se  Se232  1  0.57919782  0.41592251  0.68741152  1
  Se  Se233  1  0.58906213  0.75351393  0.19975655  1
  Se  Se234  1  0.58372791  0.74333012  0.69721475  1
  Se  Se235  1  0.90029064  0.09509729  0.18898602  1
  Se  Se236  1  0.91389343  0.08857339  0.69008352  1
  Se  Se237  1  0.91002274  0.41255126  0.19120334  1
  Se  Se238  1  0.91866808  0.41114699  0.70700597  1
  Se  Se239  1  0.92271810  0.74781022  0.19054850  1
  Se  Se240  1  0.90393126  0.75729493  0.68895607  1
  Se  Se241  1  0.06551633  0.24791192  0.20467328  1
  Se  Se242  1  0.08024216  0.25264636  0.69647825  1
  Se  Se243  1  0.08914966  0.56723868  0.20006415  1
  Se  Se244  1  0.09200604  0.57568000  0.68652485  1
  Se  Se245  1  0.09080432  0.90763221  0.18025458  1
  Se  Se246  1  0.07852263  0.92072373  0.70520821  1
  Se  Se247  1  0.42185727  0.24586936  0.19181535  1
  Se  Se248  1  0.41821919  0.24731766  0.69340535  1
  Se  Se249  1  0.41787184  0.58642201  0.20317789  1
  Se  Se250  1  0.41661006  0.58226966  0.67787906  1
  Se  Se251  1  0.41617809  0.91877194  0.19834893  1
  Se  Se252  1  0.42191063  0.90849583  0.69183022  1
  Se  Se253  1  0.73264511  0.26512416  0.19258816  1
  Se  Se254  1  0.75990100  0.23942137  0.69378532  1
  Se  Se255  1  0.74728480  0.59116277  0.19621893  1
  Se  Se256  1  0.74715586  0.57972733  0.70565228  1
  Se  Se257  1  0.76338057  0.91943118  0.18047092  1
  Se  Se258  1  0.74778675  0.91734788  0.70196161  1
