# generated using pymatgen
data_In86Cu29Se144
_symmetry_space_group_name_H-M   'P 1'
_cell_length_a   17.58744173
_cell_length_b   17.58072393
_cell_length_c   23.43740162
_cell_angle_alpha   90.00256339
_cell_angle_beta   90.00030472
_cell_angle_gamma   90.01055937
_symmetry_Int_Tables_number   1
_chemical_formula_structural   In86Cu29Se144
_chemical_formula_sum   'In86 Cu29 Se144'
_cell_volume   7246.84345953
_cell_formula_units_Z   1
loop_
 _symmetry_equiv_pos_site_id
 _symmetry_equiv_pos_as_xyz
  1  'x, y, z'
loop_
 _atom_site_type_symbol
 _atom_site_label
 _atom_site_symmetry_multiplicity
 _atom_site_fract_x
 _atom_site_fract_y
 _atom_site_fract_z
 _atom_site_occupancy
  In  In0  1  -0.01084113  0.17390579  0.12745895  1
  In  In1  1  -0.01260372  0.14939524  0.61637846  1
  In  In2  1  0.00600037  0.51356213  0.12369685  1
  In  In3  1  -0.00705102  0.49928413  0.62681014  1
  In  In4  1  0.00027546  0.82296463  0.12626138  1
  In  In5  1  0.00278102  0.85261442  0.62773322  1
  In  In6  1  0.35158954  0.16743424  0.12281928  1
  In  In7  1  0.33514470  0.16236841  0.62713842  1
  In  In8  1  0.33170373  0.49426162  0.12119726  1
  In  In9  1  0.35056138  0.49443947  0.63569317  1
  In  In10  1  0.33058675  0.83529984  0.10015112  1
  In  In11  1  0.34202918  0.82584372  0.63889894  1
  In  In12  1  0.66063376  0.15890840  0.12020513  1
  In  In13  1  0.66872508  0.16446012  0.62643095  1
  In  In14  1  0.65752859  0.50466435  0.10401879  1
  In  In15  1  0.65010332  0.50926197  0.63467053  1
  In  In16  1  0.66896546  0.84003015  0.12442734  1
  In  In17  1  0.66250978  0.84051217  0.62207949  1
  In  In18  1  0.17974955  0.00181251  0.37709834  1
  In  In19  1  0.16605522  -0.01513514  0.86361749  1
  In  In20  1  0.17224836  0.31918870  0.37730718  1
  In  In21  1  0.17245358  0.32449693  0.87328447  1
  In  In22  1  0.15593150  0.67866126  0.37294383  1
  In  In23  1  0.18986792  0.67662943  0.87638711  1
  In  In24  1  0.50862547  -0.00616743  0.38734083  1
  In  In25  1  0.49694554  -0.00377482  0.87131577  1
  In  In26  1  0.49648217  0.33409551  0.38053823  1
  In  In27  1  0.49843650  0.32776100  0.87261458  1
  In  In28  1  0.49793901  0.66548020  0.38408116  1
  In  In29  1  0.50672979  0.66961507  0.88367103  1
  In  In30  1  0.81377250  0.00909388  0.38729362  1
  In  In31  1  0.83539085  0.00568512  0.86870969  1
  In  In32  1  0.82613680  0.32533048  0.37583790  1
  In  In33  1  0.81763031  0.34135656  0.88238206  1
  In  In34  1  0.84382087  0.66758367  0.37147249  1
  In  In35  1  0.80593677  0.66704162  0.87981373  1
  In  In36  1  -0.00325082  0.16736577  0.37995613  1
  In  In37  1  -0.00174564  0.14975206  0.87252198  1
  In  In38  1  -0.00659458  0.51244909  0.36958202  1
  In  In39  1  -0.00778668  0.49106765  0.87909249  1
  In  In40  1  -0.00308120  0.81981225  0.37062017  1
  In  In41  1  -0.00304160  0.84793429  0.87280082  1
  In  In42  1  0.33360061  0.16813250  0.38277092  1
  In  In43  1  0.34200072  0.17376369  0.86342506  1
  In  In44  1  0.34963022  0.49891293  0.37586944  1
  In  In45  1  0.35807972  0.51935433  0.86648297  1
  In  In46  1  0.33475572  0.84208242  0.37645338  1
  In  In47  1  0.33815055  0.83214981  0.87678652  1
  In  In48  1  0.67449752  0.14723821  0.39939470  1
  In  In49  1  0.66188913  0.16356229  0.87072687  1
  In  In50  1  0.66090352  0.48998887  0.37669072  1
  In  In51  1  0.66160080  0.49733800  0.87900655  1
  In  In52  1  0.65402820  0.84731412  0.38737265  1
  In  In53  1  0.65536178  0.82394789  0.86207529  1
  In  In54  1  0.17609064  -0.00564603  0.11934993  1
  In  In55  1  0.15784844  -0.00090640  0.63673129  1
  In  In56  1  0.17580280  0.34549655  0.12938966  1
  In  In57  1  0.18602767  0.32532133  0.63174112  1
  In  In58  1  0.16021224  0.67108156  0.12030324  1
  In  In59  1  0.17573097  0.69438702  0.63669271  1
  In  In60  1  0.50048988  0.00847033  0.11406687  1
  In  In61  1  0.50900577  -0.00378059  0.62311679  1
  In  In62  1  0.49972562  0.32745051  0.11954879  1
  In  In63  1  0.49887369  0.33005486  0.62887666  1
  In  In64  1  0.49535355  0.67455286  0.09813933  1
  In  In65  1  0.50195449  0.67068004  0.62766006  1
  In  In66  1  0.81367658  -0.00253568  0.12691027  1
  In  In67  1  0.82889411  0.00387871  0.62564849  1
  In  In68  1  0.82067827  0.32739645  0.11757910  1
  In  In69  1  0.82682335  0.31469555  0.62159457  1
  In  In70  1  0.84388643  0.67138837  0.11941058  1
  In  In71  1  0.81074353  0.66311259  0.62881983  1
  In  In72  1  0.17071348  0.15825617  -0.00698582  1
  In  In73  1  0.33262098  0.66590631  0.23644159  1
  In  In74  1  0.17605076  0.49814543  0.51416429  1
  In  In75  1  0.16862913  0.83984623  0.50074317  1
  In  In76  1  -0.00167908  0.66581455  0.74980614  1
  In  In77  1  0.82642262  0.49579923  0.49089014  1
  In  In78  1  0.82753622  0.83422089  0.00196274  1
  In  In79  1  0.66159291  0.32723771  0.25304565  1
  In  In80  1  0.17306868  0.50554421  0.00069777  1
  In  In81  1  0.66968942  0.67137204  0.24256920  1
  In  In82  1  -0.00054388  0.33737479  0.26055528  1
  In  In83  1  -0.00153491  0.32862556  0.75145941  1
  In  In84  1  0.33571405  -0.00217232  0.24821566  1
  In  In85  1  -0.00355686  -0.00232161  0.24656074  1
  Cu  Cu86  1  0.34135373  0.66660301  0.50788868  1
  Cu  Cu87  1  0.17707201  0.50501300  0.24722601  1
  Cu  Cu88  1  0.50113375  0.49911056  0.75442695  1
  Cu  Cu89  1  -0.00322078  0.66697704  0.49817432  1
  Cu  Cu90  1  0.50034989  0.49847868  0.24831551  1
  Cu  Cu91  1  -0.00310289  0.00207683  -0.00400801  1
  Cu  Cu92  1  0.50077668  0.16319326  0.74650187  1
  Cu  Cu93  1  0.49718716  0.83605823  0.24943635  1
  Cu  Cu94  1  0.33827731  -0.00037926  0.50538713  1
  Cu  Cu95  1  0.17648634  0.50447429  0.74989532  1
  Cu  Cu96  1  0.66576077  0.00499719  -0.00597543  1
  Cu  Cu97  1  -0.01001190  0.32953319  0.00175137  1
  Cu  Cu98  1  0.33685835  0.33297920  -0.00379090  1
  Cu  Cu99  1  -0.00165502  0.00296956  0.50355299  1
  Cu  Cu100  1  0.17363912  0.17303741  0.25532681  1
  Cu  Cu101  1  0.65799143  0.33540896  0.50500669  1
  Cu  Cu102  1  -0.00091110  0.66805104  -0.00200475  1
  Cu  Cu103  1  0.66029197  0.67427791  0.50509772  1
  Cu  Cu104  1  0.84040416  0.50492928  0.24190945  1
  Cu  Cu105  1  0.82807766  0.16364633  0.74782223  1
  Cu  Cu106  1  0.50419253  0.83479003  0.75165532  1
  Cu  Cu107  1  0.82057835  0.49705491  0.75612156  1
  Cu  Cu108  1  0.00847495  0.32454858  0.49945730  1
  Cu  Cu109  1  0.66007449  0.32407742  -0.00458575  1
  Cu  Cu110  1  0.33835784  0.32818215  0.50662604  1
  Cu  Cu111  1  0.50279124  0.16561172  0.24878052  1
  Cu  Cu112  1  0.82701518  0.83913961  0.25019778  1
  Cu  Cu113  1  0.83157328  0.83731744  0.74845410  1
  Cu  Cu114  1  0.16843904  0.16281209  0.75047710  1
  Se  Se115  1  0.07406198  0.08164936  0.06087096  1
  Se  Se116  1  0.09020103  0.07754049  0.55649171  1
  Se  Se117  1  0.07789231  0.40930823  0.05635572  1
  Se  Se118  1  0.07763040  0.40417649  0.56536041  1
  Se  Se119  1  0.08109511  0.75375427  0.04921108  1
  Se  Se120  1  0.07685249  0.74610194  0.55909889  1
  Se  Se121  1  0.40083264  0.07388740  0.04915986  1
  Se  Se122  1  0.42065316  0.08282609  0.55843411  1
  Se  Se123  1  0.41661040  0.41466500  0.05374194  1
  Se  Se124  1  0.41910113  0.41636834  0.55752515  1
  Se  Se125  1  0.44064338  0.78474162  0.03716319  1
  Se  Se126  1  0.41881450  0.75670805  0.55930383  1
  Se  Se127  1  0.75108562  0.08325875  0.05059478  1
  Se  Se128  1  0.77131589  0.10697882  0.55921791  1
  Se  Se129  1  0.74338521  0.41071981  0.04793660  1
  Se  Se130  1  0.74256038  0.41728936  0.56275235  1
  Se  Se131  1  0.73769514  0.73802933  0.05708202  1
  Se  Se132  1  0.74946619  0.75225230  0.55544577  1
  Se  Se133  1  0.25136174  0.25684506  0.05651174  1
  Se  Se134  1  0.25122396  0.24421928  0.55457488  1
  Se  Se135  1  0.26383343  0.59879482  0.05677355  1
  Se  Se136  1  0.25799289  0.59687734  0.57207259  1
  Se  Se137  1  0.24593612  0.92535730  0.04010302  1
  Se  Se138  1  0.25793205  0.91981809  0.56630828  1
  Se  Se139  1  0.57828411  0.24147687  0.05165068  1
  Se  Se140  1  0.58140445  0.24826856  0.55941083  1
  Se  Se141  1  0.56645125  0.57616100  0.03788291  1
  Se  Se142  1  0.58028581  0.58474573  0.55552482  1
  Se  Se143  1  0.59075504  0.92163869  0.05355228  1
  Se  Se144  1  0.59768359  0.93082382  0.54835213  1
  Se  Se145  1  0.90794289  0.24375868  0.05234884  1
  Se  Se146  1  0.91795108  0.24770006  0.55093072  1
  Se  Se147  1  0.91855369  0.58189114  0.05050056  1
  Se  Se148  1  0.91439053  0.58581394  0.55610742  1
  Se  Se149  1  0.92043365  0.92414423  0.06234986  1
  Se  Se150  1  0.91515856  0.91975862  0.55612444  1
  Se  Se151  1  0.09037533  0.24049985  0.44691872  1
  Se  Se152  1  0.07270255  0.25394331  0.94051499  1
  Se  Se153  1  0.08344685  0.58364722  0.44702996  1
  Se  Se154  1  0.08030252  0.58957677  0.93612768  1
  Se  Se155  1  0.07439348  0.92361731  0.43742013  1
  Se  Se156  1  0.08210401  0.92144675  0.94438985  1
  Se  Se157  1  0.42107079  0.24675064  0.45050817  1
  Se  Se158  1  0.41526958  0.24498033  0.94354875  1
  Se  Se159  1  0.41797285  0.57981683  0.45247993  1
  Se  Se160  1  0.41900508  0.58657088  0.95086877  1
  Se  Se161  1  0.41545504  0.91185216  0.45048036  1
  Se  Se162  1  0.43805651  0.89942990  0.94429166  1
  Se  Se163  1  0.74770065  0.25677192  0.45240327  1
  Se  Se164  1  0.74636428  0.24163698  0.94387532  1
  Se  Se165  1  0.73668491  0.59611654  0.43762752  1
  Se  Se166  1  0.75863444  0.56487621  0.94776741  1
  Se  Se167  1  0.75524162  0.90725182  0.45252787  1
  Se  Se168  1  0.74439093  0.92035296  0.93552630  1
  Se  Se169  1  0.25284004  0.08106798  0.45090339  1
  Se  Se170  1  0.25580803  0.07733650  0.92686628  1
  Se  Se171  1  0.25825423  0.41108986  0.44544940  1
  Se  Se172  1  0.25717377  0.41483755  0.93694243  1
  Se  Se173  1  0.25789731  0.74037574  0.44428761  1
  Se  Se174  1  0.25075294  0.76136558  0.95153640  1
  Se  Se175  1  0.57552954  0.07997462  0.46195045  1
  Se  Se176  1  0.57766004  0.08329414  0.94066289  1
  Se  Se177  1  0.57809456  0.41991980  0.44983870  1
  Se  Se178  1  0.57706096  0.40999974  0.94450820  1
  Se  Se179  1  0.57441517  0.75381638  0.45027348  1
  Se  Se180  1  0.60511719  0.74501222  0.94532025  1
  Se  Se181  1  0.91564264  0.08390344  0.44710909  1
  Se  Se182  1  0.91038517  0.08370476  0.94643843  1
  Se  Se183  1  0.93052993  0.40706250  0.43832247  1
  Se  Se184  1  0.90958404  0.41640204  0.95021824  1
  Se  Se185  1  0.91380926  0.75087751  0.44682716  1
  Se  Se186  1  0.91704184  0.74627679  0.93683765  1
  Se  Se187  1  0.26237506  0.25183549  0.30590465  1
  Se  Se188  1  0.25016594  0.25318270  0.79734253  1
  Se  Se189  1  0.25165059  0.58509074  0.31292541  1
  Se  Se190  1  0.25710451  0.58849610  0.80342764  1
  Se  Se191  1  0.23939386  0.90478826  0.30313394  1
  Se  Se192  1  0.25663637  0.90511755  0.80040091  1
  Se  Se193  1  0.57986565  0.23752524  0.31713377  1
  Se  Se194  1  0.58131225  0.24840914  0.80142539  1
  Se  Se195  1  0.57978484  0.58117719  0.30651238  1
  Se  Se196  1  0.58198273  0.58283189  0.80981856  1
  Se  Se197  1  0.57700553  0.91610151  0.30738613  1
  Se  Se198  1  0.58730823  0.92424735  0.79945839  1
  Se  Se199  1  0.90493501  0.23783416  0.30483990  1
  Se  Se200  1  0.90619136  0.24373963  0.81237680  1
  Se  Se201  1  0.92015349  0.59121904  0.29450287  1
  Se  Se202  1  0.90710237  0.57738315  0.81084245  1
  Se  Se203  1  0.90735054  0.91612538  0.31302578  1
  Se  Se204  1  0.91624993  0.92096298  0.79882690  1
  Se  Se205  1  0.09106798  0.08829840  0.30825487  1
  Se  Se206  1  0.08346659  0.07875461  0.80124278  1
  Se  Se207  1  0.09858839  0.42862702  0.31391707  1
  Se  Se208  1  0.09177064  0.42534614  0.80723072  1
  Se  Se209  1  0.08220601  0.75153393  0.29738643  1
  Se  Se210  1  0.08392365  0.75056457  0.81416414  1
  Se  Se211  1  0.42375969  0.08413734  0.31180487  1
  Se  Se212  1  0.41645118  0.07922197  0.79920938  1
  Se  Se213  1  0.42186489  0.41455300  0.30339567  1
  Se  Se214  1  0.41533769  0.41272002  0.80348498  1
  Se  Se215  1  0.41873128  0.75136610  0.30678936  1
  Se  Se216  1  0.42754459  0.75025379  0.80976094  1
  Se  Se217  1  0.74071453  0.08791779  0.31264913  1
  Se  Se218  1  0.74456689  0.07971432  0.80074071  1
  Se  Se219  1  0.76104555  0.42651065  0.30410277  1
  Se  Se220  1  0.73816595  0.41028826  0.80548077  1
  Se  Se221  1  0.74885903  0.75715675  0.31221173  1
  Se  Se222  1  0.75059892  0.74792101  0.79746085  1
  Se  Se223  1  0.24574085  0.09315400  0.18994611  1
  Se  Se224  1  0.25237688  0.07983543  0.69750848  1
  Se  Se225  1  0.26136011  0.41782439  0.20098311  1
  Se  Se226  1  0.25680587  0.41631165  0.69949580  1
  Se  Se227  1  0.24867166  0.76457387  0.18239057  1
  Se  Se228  1  0.25228824  0.76187787  0.71359471  1
  Se  Se229  1  0.57883118  0.07996127  0.19236874  1
  Se  Se230  1  0.58696026  0.08100595  0.69545728  1
  Se  Se231  1  0.58465736  0.42362080  0.18775270  1
  Se  Se232  1  0.58104875  0.41268103  0.69993873  1
  Se  Se233  1  0.56880372  0.75248812  0.18531227  1
  Se  Se234  1  0.58732668  0.75378044  0.69415805  1
  Se  Se235  1  0.90226624  0.08905378  0.19359152  1
  Se  Se236  1  0.91723290  0.08099548  0.69834929  1
  Se  Se237  1  0.91648983  0.41697578  0.18588823  1
  Se  Se238  1  0.90230486  0.42003940  0.69385931  1
  Se  Se239  1  0.90899149  0.75420270  0.19697185  1
  Se  Se240  1  0.90897922  0.75309065  0.68704758  1
  Se  Se241  1  0.09032833  0.24949963  0.19419070  1
  Se  Se242  1  0.08369204  0.23958026  0.68809472  1
  Se  Se243  1  0.09080871  0.58596094  0.19584742  1
  Se  Se244  1  0.09378160  0.57820993  0.68774047  1
  Se  Se245  1  0.09162621  0.91103577  0.19029217  1
  Se  Se246  1  0.09183733  0.90281928  0.70443583  1
  Se  Se247  1  0.42176267  0.25185624  0.19685351  1
  Se  Se248  1  0.41374386  0.24841432  0.69724993  1
  Se  Se249  1  0.43237794  0.58082170  0.18223006  1
  Se  Se250  1  0.42179282  0.58932355  0.70113992  1
  Se  Se251  1  0.41783520  0.90855327  0.18331927  1
  Se  Se252  1  0.42478465  0.92065174  0.69670939  1
  Se  Se253  1  0.75171524  0.24013481  0.19292809  1
  Se  Se254  1  0.74560377  0.25239212  0.69992049  1
  Se  Se255  1  0.75211593  0.57448735  0.18168382  1
  Se  Se256  1  0.73958837  0.58410468  0.70429831  1
  Se  Se257  1  0.73811970  0.91984099  0.20227214  1
  Se  Se258  1  0.74795453  0.91890151  0.69394571  1
