# generated using pymatgen
data_In86Cu29Se144
_symmetry_space_group_name_H-M   'P 1'
_cell_length_a   17.70774695
_cell_length_b   17.71076403
_cell_length_c   23.57774976
_cell_angle_alpha   89.98253969
_cell_angle_beta   90.03199309
_cell_angle_gamma   90.02116561
_symmetry_Int_Tables_number   1
_chemical_formula_structural   In86Cu29Se144
_chemical_formula_sum   'In86 Cu29 Se144'
_cell_volume   7394.39830159
_cell_formula_units_Z   1
loop_
 _symmetry_equiv_pos_site_id
 _symmetry_equiv_pos_as_xyz
  1  'x, y, z'
loop_
 _atom_site_type_symbol
 _atom_site_label
 _atom_site_symmetry_multiplicity
 _atom_site_fract_x
 _atom_site_fract_y
 _atom_site_fract_z
 _atom_site_occupancy
  In  In0  1  -0.00285725  0.16919495  0.13546966  1
  In  In1  1  0.00590784  0.17096076  0.61580717  1
  In  In2  1  0.00291289  0.49647754  0.13839001  1
  In  In3  1  -0.01097300  0.48580276  0.61081548  1
  In  In4  1  -0.01306084  0.84523873  0.13019599  1
  In  In5  1  0.00248074  0.85171999  0.62199992  1
  In  In6  1  0.33746464  0.16271557  0.13311669  1
  In  In7  1  0.32986803  0.18363665  0.61724659  1
  In  In8  1  0.33371085  0.48738246  0.12613780  1
  In  In9  1  0.33849596  0.49704276  0.61307346  1
  In  In10  1  0.34823334  0.83770975  0.12712854  1
  In  In11  1  0.32712488  0.82566572  0.62564042  1
  In  In12  1  0.67134195  0.18087777  0.12309713  1
  In  In13  1  0.68709517  0.16415066  0.64588515  1
  In  In14  1  0.66158019  0.50869128  0.13085963  1
  In  In15  1  0.67335712  0.49632376  0.62680784  1
  In  In16  1  0.66607543  0.82206446  0.12746195  1
  In  In17  1  0.67421590  0.82994093  0.62693031  1
  In  In18  1  0.16712518  0.00639927  0.37120672  1
  In  In19  1  0.13404557  0.01976050  0.87233968  1
  In  In20  1  0.16434526  0.33344193  0.37807865  1
  In  In21  1  0.15165540  0.31948368  0.86791207  1
  In  In22  1  0.16179667  0.66742286  0.37503726  1
  In  In23  1  0.16521828  0.65091561  0.86868434  1
  In  In24  1  0.49798528  0.01412203  0.37472317  1
  In  In25  1  0.52095015  -0.00174252  0.87654730  1
  In  In26  1  0.51746108  0.33791024  0.36714958  1
  In  In27  1  0.50484223  0.32317827  0.88162565  1
  In  In28  1  0.50096177  0.64834503  0.37720278  1
  In  In29  1  0.49530495  0.65472152  0.86537245  1
  In  In30  1  0.85102755  -0.01869342  0.39959573  1
  In  In31  1  0.82571397  -0.00878155  0.87840582  1
  In  In32  1  0.83259262  0.33449845  0.37596106  1
  In  In33  1  0.82313195  0.31072943  0.84916737  1
  In  In34  1  0.83181958  0.66464479  0.37691631  1
  In  In35  1  0.82737298  0.67876207  0.87576610  1
  In  In36  1  -0.00842994  0.16443169  0.37744228  1
  In  In37  1  -0.05834280  0.13196489  0.78060685  1
  In  In38  1  -0.00071446  0.50054206  0.37751984  1
  In  In39  1  -0.00134602  0.48477606  0.87269262  1
  In  In40  1  -0.00450165  0.82133487  0.36804294  1
  In  In41  1  -0.02022427  0.83120151  0.87769026  1
  In  In42  1  0.32721460  0.16162663  0.37037754  1
  In  In43  1  0.33716827  0.17512535  0.87806741  1
  In  In44  1  0.34969875  0.47694597  0.39220912  1
  In  In45  1  0.33056887  0.50291831  0.86933234  1
  In  In46  1  0.32452844  0.84245942  0.37223350  1
  In  In47  1  0.34445751  0.83531618  0.87038881  1
  In  In48  1  0.66964263  0.17346517  0.37788804  1
  In  In49  1  0.66740495  0.15679741  0.86961882  1
  In  In50  1  0.66689834  0.49981811  0.37580131  1
  In  In51  1  0.65254263  0.48585425  0.86060043  1
  In  In52  1  0.68327649  0.83032398  0.37895670  1
  In  In53  1  0.67484368  0.83314212  0.86527158  1
  In  In54  1  0.15961084  0.00884088  0.13598907  1
  In  In55  1  0.14590743  0.01810514  0.63484048  1
  In  In56  1  0.16532635  0.33366573  0.13739755  1
  In  In57  1  0.15800596  0.31508789  0.59747338  1
  In  In58  1  0.16485492  0.65209061  0.13062634  1
  In  In59  1  0.18009519  0.66309884  0.62679738  1
  In  In60  1  0.48891202  0.00214455  0.12780816  1
  In  In61  1  0.51211813  0.01365343  0.63051602  1
  In  In62  1  0.49979803  0.33456426  0.12413242  1
  In  In63  1  0.50673282  0.35373462  0.62184586  1
  In  In64  1  0.51340124  0.66737186  0.12530260  1
  In  In65  1  0.52186019  0.62968876  0.64937320  1
  In  In66  1  0.84001799  0.00490108  0.12624114  1
  In  In67  1  0.82412208  -0.01063547  0.60582862  1
  In  In68  1  0.83412681  0.33164332  0.13610534  1
  In  In69  1  0.83455904  0.33266902  0.62800191  1
  In  In70  1  0.82592073  0.67545459  0.13415096  1
  In  In71  1  0.82635724  0.65973272  0.61381712  1
  In  In72  1  0.66743161  0.00350969  0.25620849  1
  In  In73  1  0.50078335  0.83014296  0.51226139  1
  In  In74  1  0.83277695  0.15875588  -0.00865452  1
  In  In75  1  0.16768397  0.83575211  0.50277647  1
  In  In76  1  0.51235560  0.83535576  0.00067385  1
  In  In77  1  0.50676936  0.17727776  0.50284263  1
  In  In78  1  0.32948851  0.66867322  0.25392692  1
  In  In79  1  0.16775334  0.49363204  -0.00305793  1
  In  In80  1  -0.00129446  0.67008497  0.74657012  1
  In  In81  1  0.33431973  -0.00608013  0.75209419  1
  In  In82  1  0.33112410  0.33763754  0.74187994  1
  In  In83  1  0.17069806  0.82978994  0.00750414  1
  In  In84  1  0.82984050  0.50346694  0.00198306  1
  In  In85  1  0.16892739  0.16971232  0.00145854  1
  Cu  Cu86  1  0.33928462  0.33601921  0.00039339  1
  Cu  Cu87  1  -0.00245092  0.32861274  -0.00213025  1
  Cu  Cu88  1  0.83675388  0.83194966  0.25563727  1
  Cu  Cu89  1  0.67116197  0.34100987  0.50164783  1
  Cu  Cu90  1  0.33758938  0.66459567  -0.01007899  1
  Cu  Cu91  1  0.33805282  0.65888219  0.50276277  1
  Cu  Cu92  1  -0.00994593  -0.00338414  0.00172827  1
  Cu  Cu93  1  -0.00443211  0.33393625  0.49305340  1
  Cu  Cu94  1  0.17159750  0.50115196  0.74104342  1
  Cu  Cu95  1  0.50219511  0.82584618  0.74977946  1
  Cu  Cu96  1  0.49733554  0.17227194  0.25107155  1
  Cu  Cu97  1  0.16434725  0.83952394  0.25099005  1
  Cu  Cu98  1  0.66210236  0.33782109  -0.00046625  1
  Cu  Cu99  1  0.16713775  0.49933134  0.25929235  1
  Cu  Cu100  1  0.83459279  0.49920681  0.25717025  1
  Cu  Cu101  1  0.33641516  0.00876967  0.00476549  1
  Cu  Cu102  1  0.84132013  0.50276297  0.74086491  1
  Cu  Cu103  1  -0.00260633  0.67129945  0.49619222  1
  Cu  Cu104  1  0.50211552  0.49829524  0.25144109  1
  Cu  Cu105  1  0.66351925  0.66591027  0.50326300  1
  Cu  Cu106  1  0.16605189  0.83800807  0.74986192  1
  Cu  Cu107  1  0.83303154  0.83591262  0.74525615  1
  Cu  Cu108  1  0.33168774  0.00171078  0.49876430  1
  Cu  Cu109  1  0.50645276  0.17201218  0.75386399  1
  Cu  Cu110  1  0.83402438  0.16548649  0.25574882  1
  Cu  Cu111  1  0.50149748  0.83494428  0.24871036  1
  Cu  Cu112  1  0.15799303  0.17284283  0.25752643  1
  Cu  Cu113  1  -0.00658378  0.66876345  0.00408538  1
  Cu  Cu114  1  0.66564881  0.66356648  0.00196528  1
  Se  Se115  1  0.07178055  0.07878112  0.05957126  1
  Se  Se116  1  0.08079329  0.07693702  0.55048657  1
  Se  Se117  1  0.07569289  0.40784557  0.05954487  1
  Se  Se118  1  0.08287955  0.41848671  0.54256912  1
  Se  Se119  1  0.07733525  0.74172275  0.06538336  1
  Se  Se120  1  0.07907870  0.74283195  0.56209301  1
  Se  Se121  1  0.41806225  0.09111411  0.05720793  1
  Se  Se122  1  0.41446442  0.07903653  0.55894226  1
  Se  Se123  1  0.41948395  0.42030500  0.05363232  1
  Se  Se124  1  0.40484519  0.39621624  0.55126461  1
  Se  Se125  1  0.41340411  0.74223433  0.05469030  1
  Se  Se126  1  0.41466788  0.73479106  0.56681944  1
  Se  Se127  1  0.74384984  0.07938045  0.05956272  1
  Se  Se128  1  0.74596624  0.09769143  0.55999961  1
  Se  Se129  1  0.74517895  0.40950978  0.06299884  1
  Se  Se130  1  0.75718527  0.41912686  0.55685389  1
  Se  Se131  1  0.74804020  0.74551301  0.05572818  1
  Se  Se132  1  0.74820479  0.75252425  0.55055510  1
  Se  Se133  1  0.25494793  0.26123581  0.06213238  1
  Se  Se134  1  0.26572493  0.25655092  0.53740713  1
  Se  Se135  1  0.25806942  0.58860872  0.05475404  1
  Se  Se136  1  0.24628981  0.58117528  0.55100637  1
  Se  Se137  1  0.25757969  0.92832363  0.06399913  1
  Se  Se138  1  0.25381485  0.92723900  0.56413169  1
  Se  Se139  1  0.58311521  0.25286958  0.05415267  1
  Se  Se140  1  0.59792741  0.25910922  0.56583580  1
  Se  Se141  1  0.58216979  0.58039169  0.05359775  1
  Se  Se142  1  0.58651621  0.57981041  0.55840032  1
  Se  Se143  1  0.59078447  0.92562953  0.06651847  1
  Se  Se144  1  0.59088341  0.92733776  0.56143609  1
  Se  Se145  1  0.91684730  0.25137943  0.05942251  1
  Se  Se146  1  0.91711599  0.25716411  0.55488888  1
  Se  Se147  1  0.92242550  0.58464478  0.06663449  1
  Se  Se148  1  0.91690871  0.58405517  0.54847925  1
  Se  Se149  1  0.90686486  0.91501541  0.05371757  1
  Se  Se150  1  0.92120407  0.91497292  0.54657036  1
  Se  Se151  1  0.07878424  0.24813322  0.44311284  1
  Se  Se152  1  0.07127574  0.24248289  0.94041025  1
  Se  Se153  1  0.08122622  0.58856880  0.44472765  1
  Se  Se154  1  0.06994922  0.58708431  0.94354934  1
  Se  Se155  1  0.08183411  0.91328414  0.43458859  1
  Se  Se156  1  0.07708411  0.91709282  0.94554517  1
  Se  Se157  1  0.42336869  0.25011006  0.42976258  1
  Se  Se158  1  0.41839846  0.24615363  0.95127927  1
  Se  Se159  1  0.42403775  0.57654942  0.45240786  1
  Se  Se160  1  0.41639805  0.57778865  0.93985944  1
  Se  Se161  1  0.41430414  0.92066290  0.44391378  1
  Se  Se162  1  0.41334988  0.92473363  0.94516099  1
  Se  Se163  1  0.74911228  0.25512077  0.44727585  1
  Se  Se164  1  0.74589397  0.26074134  0.93957385  1
  Se  Se165  1  0.74508409  0.58573783  0.44515640  1
  Se  Se166  1  0.74081690  0.58521967  0.93704391  1
  Se  Se167  1  0.73471825  0.92518035  0.44996420  1
  Se  Se168  1  0.73721264  0.91398639  0.94308254  1
  Se  Se169  1  0.24998310  0.08183160  0.44366620  1
  Se  Se170  1  0.25137751  0.07412219  0.93861953  1
  Se  Se171  1  0.23514757  0.42672956  0.44559595  1
  Se  Se172  1  0.25291019  0.40206716  0.93576547  1
  Se  Se173  1  0.26196759  0.74411656  0.44419621  1
  Se  Se174  1  0.25168016  0.74302987  0.93638058  1
  Se  Se175  1  0.59112359  0.07856739  0.44605332  1
  Se  Se176  1  0.58579530  0.08890475  0.94516301  1
  Se  Se177  1  0.58465533  0.41694072  0.44559815  1
  Se  Se178  1  0.58237987  0.41963856  0.94388847  1
  Se  Se179  1  0.58358409  0.74466915  0.44210323  1
  Se  Se180  1  0.58699078  0.74002925  0.93683924  1
  Se  Se181  1  0.89897564  0.10114026  0.44874734  1
  Se  Se182  1  0.92740673  0.07697362  0.93370566  1
  Se  Se183  1  0.91208009  0.42079197  0.44460457  1
  Se  Se184  1  0.91223479  0.40763134  0.94258727  1
  Se  Se185  1  0.91355644  0.75244504  0.44394732  1
  Se  Se186  1  0.90944255  0.74908871  0.95148821  1
  Se  Se187  1  0.24687496  0.25218335  0.30714207  1
  Se  Se188  1  0.24777526  0.24034944  0.80386422  1
  Se  Se189  1  0.25356650  0.57474140  0.31749348  1
  Se  Se190  1  0.25160735  0.58300255  0.79700351  1
  Se  Se191  1  0.24931321  0.92271314  0.30113535  1
  Se  Se192  1  0.23773278  0.91648691  0.81759971  1
  Se  Se193  1  0.59093210  0.24541616  0.30105985  1
  Se  Se194  1  0.58921612  0.25257548  0.80831020  1
  Se  Se195  1  0.58522087  0.58197222  0.30317293  1
  Se  Se196  1  0.59217781  0.59084536  0.79998704  1
  Se  Se197  1  0.57730474  0.91064673  0.31472129  1
  Se  Se198  1  0.58313355  0.91256058  0.80119953  1
  Se  Se199  1  0.91534601  0.25209148  0.30682666  1
  Se  Se200  1  0.95534303  0.26718334  0.82269409  1
  Se  Se201  1  0.91691467  0.58444561  0.30829633  1
  Se  Se202  1  0.91298972  0.57984336  0.81062854  1
  Se  Se203  1  0.91261985  0.91875742  0.31092476  1
  Se  Se204  1  0.91188210  0.91518982  0.80478942  1
  Se  Se205  1  0.07705679  0.08506222  0.30680941  1
  Se  Se206  1  0.08607443  0.09087959  0.78689026  1
  Se  Se207  1  0.08101887  0.41659102  0.30877806  1
  Se  Se208  1  0.09405152  0.42411862  0.80327850  1
  Se  Se209  1  0.08850365  0.74870711  0.30167629  1
  Se  Se210  1  0.08610048  0.75814148  0.81272212  1
  Se  Se211  1  0.41608146  0.08429650  0.30132144  1
  Se  Se212  1  0.42409501  0.08797855  0.81059594  1
  Se  Se213  1  0.42009019  0.41708019  0.30598841  1
  Se  Se214  1  0.42081513  0.41256333  0.81079949  1
  Se  Se215  1  0.42349890  0.75626991  0.31362588  1
  Se  Se216  1  0.41461543  0.74784109  0.80184130  1
  Se  Se217  1  0.76044336  0.08322274  0.31737155  1
  Se  Se218  1  0.77585854  0.09707576  0.80983894  1
  Se  Se219  1  0.74835496  0.41659186  0.30693733  1
  Se  Se220  1  0.75960646  0.42404743  0.80025485  1
  Se  Se221  1  0.75151555  0.74771632  0.30455626  1
  Se  Se222  1  0.75293177  0.74752538  0.79656680  1
  Se  Se223  1  0.24236992  0.09339629  0.19973329  1
  Se  Se224  1  0.25818140  0.08927493  0.68877554  1
  Se  Se225  1  0.24926244  0.42089146  0.20041256  1
  Se  Se226  1  0.23878098  0.41590237  0.67825526  1
  Se  Se227  1  0.24384218  0.75981533  0.18824304  1
  Se  Se228  1  0.24659373  0.75237214  0.69996592  1
  Se  Se229  1  0.57975838  0.09089356  0.19163698  1
  Se  Se230  1  0.59029859  0.08451796  0.70605871  1
  Se  Se231  1  0.58222438  0.41712589  0.19360806  1
  Se  Se232  1  0.57587187  0.43362693  0.69596692  1
  Se  Se233  1  0.58365997  0.74847476  0.20019929  1
  Se  Se234  1  0.58521412  0.74943809  0.69208964  1
  Se  Se235  1  0.91516166  0.08227694  0.19994186  1
  Se  Se236  1  0.90981451  0.08946658  0.67895492  1
  Se  Se237  1  0.91651047  0.41514912  0.20233124  1
  Se  Se238  1  0.92489972  0.41625892  0.69415180  1
  Se  Se239  1  0.91880743  0.75136219  0.19834864  1
  Se  Se240  1  0.91256706  0.75747043  0.68387853  1
  Se  Se241  1  0.07640967  0.25542139  0.20171053  1
  Se  Se242  1  0.09578819  0.24903436  0.68190694  1
  Se  Se243  1  0.08464004  0.58222529  0.20502045  1
  Se  Se244  1  0.08189562  0.57714901  0.68534787  1
  Se  Se245  1  0.07813446  0.91887033  0.19732595  1
  Se  Se246  1  0.07995792  0.92003716  0.70114088  1
  Se  Se247  1  0.41645793  0.25494255  0.19531710  1
  Se  Se248  1  0.42913757  0.24554543  0.68894215  1
  Se  Se249  1  0.42068959  0.58099962  0.19183312  1
  Se  Se250  1  0.40048485  0.57701080  0.69272647  1
  Se  Se251  1  0.41604578  0.91995171  0.20198643  1
  Se  Se252  1  0.42622023  0.90957120  0.68831154  1
  Se  Se253  1  0.75086362  0.24652139  0.20096165  1
  Se  Se254  1  0.75215363  0.26619535  0.70550564  1
  Se  Se255  1  0.75398366  0.57994782  0.19780473  1
  Se  Se256  1  0.75586791  0.58651510  0.69263659  1
  Se  Se257  1  0.75471017  0.91110054  0.19409090  1
  Se  Se258  1  0.75388270  0.92161580  0.69040963  1
