# generated using pymatgen
data_In86Cu29Se144
_symmetry_space_group_name_H-M   'P 1'
_cell_length_a   17.58547715
_cell_length_b   17.58551247
_cell_length_c   23.44043493
_cell_angle_alpha   90.02465569
_cell_angle_beta   90.01292998
_cell_angle_gamma   90.01404483
_symmetry_Int_Tables_number   1
_chemical_formula_structural   In86Cu29Se144
_chemical_formula_sum   'In86 Cu29 Se144'
_cell_volume   7248.94470261
_cell_formula_units_Z   1
loop_
 _symmetry_equiv_pos_site_id
 _symmetry_equiv_pos_as_xyz
  1  'x, y, z'
loop_
 _atom_site_type_symbol
 _atom_site_label
 _atom_site_symmetry_multiplicity
 _atom_site_fract_x
 _atom_site_fract_y
 _atom_site_fract_z
 _atom_site_occupancy
  In  In0  1  -0.00687043  0.17817560  0.12773087  1
  In  In1  1  0.00713390  0.16996347  0.61831593  1
  In  In2  1  0.00025106  0.49567595  0.13101740  1
  In  In3  1  -0.00353104  0.48280460  0.62948491  1
  In  In4  1  -0.01219682  0.82245741  0.11179496  1
  In  In5  1  0.00248101  0.83182121  0.61866284  1
  In  In6  1  0.33030095  0.15256325  0.12865093  1
  In  In7  1  0.33294794  0.16701561  0.62610173  1
  In  In8  1  0.33051975  0.51111681  0.12258442  1
  In  In9  1  0.32083121  0.48891965  0.61544583  1
  In  In10  1  0.33102314  0.84197192  0.12645527  1
  In  In11  1  0.33432299  0.83847652  0.62411303  1
  In  In12  1  0.67434516  0.17395586  0.11665354  1
  In  In13  1  0.66013736  0.15179476  0.60097618  1
  In  In14  1  0.68729057  0.49024293  0.14844056  1
  In  In15  1  0.67141056  0.51333314  0.62409539  1
  In  In16  1  0.67037307  0.82327342  0.13024117  1
  In  In17  1  0.66516342  0.83039698  0.61787326  1
  In  In18  1  0.17579084  -0.00826356  0.37954976  1
  In  In19  1  0.17095543  -0.01198950  0.86752043  1
  In  In20  1  0.15502363  0.34368955  0.38048692  1
  In  In21  1  0.16954546  0.33614391  0.86801090  1
  In  In22  1  0.16042871  0.67203190  0.38008019  1
  In  In23  1  0.15315344  0.67251111  0.88623008  1
  In  In24  1  0.49773542  0.01272799  0.38693648  1
  In  In25  1  0.50505035  0.01369273  0.87143094  1
  In  In26  1  0.50814754  0.32573988  0.38236278  1
  In  In27  1  0.48603787  0.32734881  0.86918015  1
  In  In28  1  0.50801565  0.65876528  0.38573244  1
  In  In29  1  0.51439869  0.66015009  0.86916365  1
  In  In30  1  0.81863894  0.00476600  0.39474028  1
  In  In31  1  0.83378424  -0.00464430  0.88572955  1
  In  In32  1  0.82759289  0.33708972  0.36302746  1
  In  In33  1  0.83221214  0.31874397  0.87143027  1
  In  In34  1  0.84481972  0.66772721  0.36398301  1
  In  In35  1  0.83701625  0.67931456  0.87185759  1
  In  In36  1  -0.00997932  0.17995111  0.38058783  1
  In  In37  1  -0.01303285  0.16810118  0.87291946  1
  In  In38  1  0.00079101  0.51039753  0.36349401  1
  In  In39  1  0.01603739  0.50686805  0.87652271  1
  In  In40  1  0.00386463  0.82706626  0.37982870  1
  In  In41  1  -0.00393749  0.83189057  0.88132788  1
  In  In42  1  0.33978119  0.15612821  0.38049977  1
  In  In43  1  0.33661436  0.16908423  0.86663872  1
  In  In44  1  0.33036281  0.50469696  0.38799715  1
  In  In45  1  0.32836340  0.48642792  0.86986164  1
  In  In46  1  0.32786106  0.84429208  0.38187745  1
  In  In47  1  0.32116949  0.83510620  0.86586137  1
  In  In48  1  0.65976253  0.17599368  0.38287434  1
  In  In49  1  0.66998082  0.15094453  0.88945138  1
  In  In50  1  0.66910330  0.49259988  0.36688223  1
  In  In51  1  0.65901318  0.50525183  0.86845483  1
  In  In52  1  0.67858275  0.82533766  0.38905671  1
  In  In53  1  0.68848275  0.83087305  0.87321665  1
  In  In54  1  0.17923019  -0.00561239  0.12959287  1
  In  In55  1  0.16979585  0.00481818  0.62281614  1
  In  In56  1  0.14984576  0.33464416  0.12902250  1
  In  In57  1  0.16671879  0.33328292  0.62495775  1
  In  In58  1  0.15017281  0.65466555  0.10651228  1
  In  In59  1  0.17064074  0.67076814  0.61675732  1
  In  In60  1  0.48602615  -0.00040166  0.12828196  1
  In  In61  1  0.49507385  -0.01040558  0.61562103  1
  In  In62  1  0.51209609  0.33801609  0.12733519  1
  In  In63  1  0.48981190  0.32020374  0.61544319  1
  In  In64  1  0.51307754  0.67546931  0.12903698  1
  In  In65  1  0.50769580  0.67473874  0.61541629  1
  In  In66  1  0.82687455  0.00068832  0.11142589  1
  In  In67  1  0.82669403  -0.00528616  0.60949257  1
  In  In68  1  0.83983873  0.32858272  0.13054678  1
  In  In69  1  0.84597400  0.32813876  0.62840367  1
  In  In70  1  0.83287720  0.67033315  0.13394771  1
  In  In71  1  0.82250851  0.66594578  0.63219771  1
  In  In72  1  -0.00150991  0.00109273  0.75282871  1
  In  In73  1  0.33452116  0.67221135  0.24880110  1
  In  In74  1  0.50045577  0.83703136  0.00380115  1
  In  In75  1  0.49917690  0.50122919  0.00063079  1
  In  In76  1  0.66525816  -0.00467964  0.74297521  1
  In  In77  1  0.16339712  0.16514901  0.00630450  1
  In  In78  1  0.83739465  0.49992541  0.00560076  1
  In  In79  1  0.33309094  0.66499572  0.74148994  1
  In  In80  1  0.66175090  -0.00040480  0.25693635  1
  In  In81  1  -0.00218478  0.66497871  0.75519972  1
  In  In82  1  0.83705472  0.50113697  0.50140269  1
  In  In83  1  0.66521853  0.33068716  0.74537412  1
  In  In84  1  0.00070588  -0.00349186  0.25614043  1
  In  In85  1  0.33556725  0.33020484  0.26013456  1
  Cu  Cu86  1  0.32812365  0.32923238  -0.00732702  1
  Cu  Cu87  1  0.83883906  0.83427496  0.25396657  1
  Cu  Cu88  1  0.51027142  0.50146554  0.25835754  1
  Cu  Cu89  1  -0.00304553  0.33466518  0.00465856  1
  Cu  Cu90  1  0.00408655  0.33562167  0.50082708  1
  Cu  Cu91  1  0.16826279  0.17345349  0.74238730  1
  Cu  Cu92  1  0.33598942  0.67168745  0.50260473  1
  Cu  Cu93  1  0.49944429  0.83636688  0.25505005  1
  Cu  Cu94  1  0.00004585  0.66477742  0.49540084  1
  Cu  Cu95  1  0.83281987  0.16920146  0.24945746  1
  Cu  Cu96  1  0.50401810  0.83141791  0.74051270  1
  Cu  Cu97  1  0.49722618  0.16854338  0.74769001  1
  Cu  Cu98  1  0.66281462  0.32549860  -0.00038770  1
  Cu  Cu99  1  0.66911364  0.66680119  0.49971986  1
  Cu  Cu100  1  0.50307163  0.16647802  0.25788901  1
  Cu  Cu101  1  0.33006300  0.00234663  0.50368475  1
  Cu  Cu102  1  0.16231374  0.82728666  0.25402069  1
  Cu  Cu103  1  0.16441918  0.16432699  0.24937189  1
  Cu  Cu104  1  0.33380288  0.00082688  0.00010430  1
  Cu  Cu105  1  0.32688738  0.66602262  -0.00416756  1
  Cu  Cu106  1  0.16455202  0.50056157  0.24904329  1
  Cu  Cu107  1  0.16839874  0.49895349  0.74862392  1
  Cu  Cu108  1  0.67225998  0.66572570  0.00810609  1
  Cu  Cu109  1  0.00684696  -0.00329312  0.49865103  1
  Cu  Cu110  1  0.32943543  0.32862052  0.49973865  1
  Cu  Cu111  1  0.67024720  0.33587769  0.49374274  1
  Cu  Cu112  1  0.49906322  0.49925612  0.74493500  1
  Cu  Cu113  1  0.00158758  0.00047131  -0.00337043  1
  Cu  Cu114  1  0.83250500  0.16546344  0.74580086  1
  Se  Se115  1  0.07436064  0.07413689  0.06679998  1
  Se  Se116  1  0.08743090  0.08361826  0.55158806  1
  Se  Se117  1  0.08098417  0.41891713  0.05524716  1
  Se  Se118  1  0.08503450  0.41952790  0.55528947  1
  Se  Se119  1  0.10151419  0.77234105  0.05367162  1
  Se  Se120  1  0.08416940  0.74962915  0.54899431  1
  Se  Se121  1  0.41497838  0.08467863  0.05375001  1
  Se  Se122  1  0.41573282  0.08568361  0.55541206  1
  Se  Se123  1  0.40665243  0.40789475  0.05857954  1
  Se  Se124  1  0.41500349  0.41438739  0.54988079  1
  Se  Se125  1  0.40894837  0.73910753  0.05998241  1
  Se  Se126  1  0.41786688  0.75821998  0.55393937  1
  Se  Se127  1  0.74536411  0.08546021  0.04769996  1
  Se  Se128  1  0.77358574  0.10063589  0.54506333  1
  Se  Se129  1  0.73982542  0.40992565  0.05963514  1
  Se  Se130  1  0.74723155  0.40865989  0.56073594  1
  Se  Se131  1  0.75552869  0.75132495  0.05805302  1
  Se  Se132  1  0.75524960  0.74576670  0.55421616  1
  Se  Se133  1  0.25433877  0.25759974  0.06472000  1
  Se  Se134  1  0.24764969  0.24771282  0.55661991  1
  Se  Se135  1  0.24822659  0.57626803  0.04639750  1
  Se  Se136  1  0.24905113  0.58422356  0.54943777  1
  Se  Se137  1  0.25039599  0.91651419  0.05148538  1
  Se  Se138  1  0.24731920  0.91547044  0.55464910  1
  Se  Se139  1  0.57490636  0.24893521  0.05378445  1
  Se  Se140  1  0.58271896  0.25263088  0.54496931  1
  Se  Se141  1  0.59376539  0.57967208  0.06528153  1
  Se  Se142  1  0.58521038  0.58118964  0.55026484  1
  Se  Se143  1  0.58880035  0.92179832  0.06755256  1
  Se  Se144  1  0.60576186  0.93609299  0.55562794  1
  Se  Se145  1  0.91121949  0.24920530  0.05279344  1
  Se  Se146  1  0.91879218  0.25159842  0.55152233  1
  Se  Se147  1  0.92412831  0.59318487  0.06237037  1
  Se  Se148  1  0.92591018  0.58966265  0.56425587  1
  Se  Se149  1  0.91400178  0.91742840  0.04766636  1
  Se  Se150  1  0.92050012  0.91290095  0.54915103  1
  Se  Se151  1  0.08580818  0.24864008  0.44849059  1
  Se  Se152  1  0.07724097  0.25390120  0.94253350  1
  Se  Se153  1  0.08042483  0.57811571  0.44261040  1
  Se  Se154  1  0.07910442  0.58567232  0.95467901  1
  Se  Se155  1  0.08861831  0.91070612  0.44579232  1
  Se  Se156  1  0.08454891  0.92091548  0.94119616  1
  Se  Se157  1  0.41627390  0.24807469  0.44623998  1
  Se  Se158  1  0.41352699  0.24583526  0.94375023  1
  Se  Se159  1  0.41873696  0.58313133  0.45382412  1
  Se  Se160  1  0.41107987  0.58937416  0.93577753  1
  Se  Se161  1  0.41631129  0.92065525  0.45013974  1
  Se  Se162  1  0.41162315  0.92005228  0.93741904  1
  Se  Se163  1  0.75825033  0.25735326  0.44058098  1
  Se  Se164  1  0.75179652  0.24798287  0.94696703  1
  Se  Se165  1  0.74950817  0.58794838  0.43781902  1
  Se  Se166  1  0.74333048  0.58380729  0.94245642  1
  Se  Se167  1  0.74256712  0.91774793  0.46097494  1
  Se  Se168  1  0.73382397  0.92664195  0.94755856  1
  Se  Se169  1  0.24690880  0.08448104  0.44826803  1
  Se  Se170  1  0.25130512  0.08080640  0.94017632  1
  Se  Se171  1  0.24626528  0.41610393  0.44942156  1
  Se  Se172  1  0.24492781  0.41559358  0.94421339  1
  Se  Se173  1  0.25077339  0.74997004  0.44553074  1
  Se  Se174  1  0.25171389  0.75486539  0.94227390  1
  Se  Se175  1  0.59283980  0.08377484  0.45135927  1
  Se  Se176  1  0.57299331  0.08229513  0.95255103  1
  Se  Se177  1  0.58733994  0.42208481  0.44310223  1
  Se  Se178  1  0.58540709  0.40732987  0.93805807  1
  Se  Se179  1  0.58041945  0.75253732  0.45277418  1
  Se  Se180  1  0.59015456  0.74266920  0.94548039  1
  Se  Se181  1  0.92339888  0.08166510  0.44714278  1
  Se  Se182  1  0.91694654  0.08640338  0.94761416  1
  Se  Se183  1  0.92359403  0.41398471  0.43738704  1
  Se  Se184  1  0.91989210  0.41024714  0.93835539  1
  Se  Se185  1  0.91284152  0.74551420  0.44392592  1
  Se  Se186  1  0.91478160  0.74752711  0.94797584  1
  Se  Se187  1  0.24095870  0.24218151  0.31529580  1
  Se  Se188  1  0.25219161  0.25308137  0.80068481  1
  Se  Se189  1  0.24736745  0.57839853  0.30863113  1
  Se  Se190  1  0.24223151  0.58455055  0.81001768  1
  Se  Se191  1  0.24845097  0.91230765  0.30254863  1
  Se  Se192  1  0.25888955  0.92543436  0.79413870  1
  Se  Se193  1  0.58720986  0.25359603  0.30504689  1
  Se  Se194  1  0.58381799  0.23772430  0.81105359  1
  Se  Se195  1  0.58836430  0.59186992  0.30810687  1
  Se  Se196  1  0.58611085  0.58356266  0.79175690  1
  Se  Se197  1  0.57842606  0.91021894  0.32063905  1
  Se  Se198  1  0.57882592  0.90748962  0.80925182  1
  Se  Se199  1  0.91892904  0.25234175  0.30017036  1
  Se  Se200  1  0.91745602  0.24945263  0.79636366  1
  Se  Se201  1  0.91253291  0.57928579  0.29287276  1
  Se  Se202  1  0.90942641  0.57170049  0.81258393  1
  Se  Se203  1  0.90501794  0.91835444  0.32001509  1
  Se  Se204  1  0.90592587  0.90997916  0.80904367  1
  Se  Se205  1  0.08691577  0.08871593  0.31556889  1
  Se  Se206  1  0.09182078  0.09578753  0.80913659  1
  Se  Se207  1  0.08213350  0.41519467  0.30092718  1
  Se  Se208  1  0.08213608  0.41859982  0.80247193  1
  Se  Se209  1  0.07811635  0.74464204  0.30505192  1
  Se  Se210  1  0.09026613  0.76095229  0.80771076  1
  Se  Se211  1  0.41957108  0.07954342  0.30614713  1
  Se  Se212  1  0.41619061  0.08082441  0.79927847  1
  Se  Se213  1  0.42277388  0.42707601  0.31592566  1
  Se  Se214  1  0.41627863  0.41658582  0.79794568  1
  Se  Se215  1  0.42125567  0.75402946  0.31613699  1
  Se  Se216  1  0.42608483  0.75164426  0.80565479  1
  Se  Se217  1  0.75579711  0.09106547  0.31214284  1
  Se  Se218  1  0.75486395  0.08475750  0.80734506  1
  Se  Se219  1  0.75840212  0.42798993  0.29430557  1
  Se  Se220  1  0.75268496  0.41775612  0.80896723  1
  Se  Se221  1  0.75041063  0.75647471  0.30768933  1
  Se  Se222  1  0.74035733  0.73634673  0.80062936  1
  Se  Se223  1  0.25115256  0.07881509  0.20361478  1
  Se  Se224  1  0.24998421  0.08386882  0.69540777  1
  Se  Se225  1  0.24997237  0.42041205  0.19274568  1
  Se  Se226  1  0.25139869  0.41506994  0.69584552  1
  Se  Se227  1  0.23921133  0.75097835  0.18693294  1
  Se  Se228  1  0.23878207  0.75950738  0.69286831  1
  Se  Se229  1  0.57911378  0.08907649  0.19112301  1
  Se  Se230  1  0.57749341  0.09058286  0.68599880  1
  Se  Se231  1  0.58581282  0.41205467  0.20441368  1
  Se  Se232  1  0.57614962  0.41776742  0.68241750  1
  Se  Se233  1  0.58555231  0.75369936  0.20489460  1
  Se  Se234  1  0.58860835  0.74787732  0.69089737  1
  Se  Se235  1  0.90801699  0.08191277  0.19140340  1
  Se  Se236  1  0.91093021  0.08373806  0.68515339  1
  Se  Se237  1  0.90232366  0.42882658  0.19486357  1
  Se  Se238  1  0.90777499  0.41800430  0.70107143  1
  Se  Se239  1  0.92261851  0.75602633  0.19754258  1
  Se  Se240  1  0.91392834  0.75739179  0.69281819  1
  Se  Se241  1  0.07870901  0.24886738  0.20122076  1
  Se  Se242  1  0.07849615  0.25308938  0.69353434  1
  Se  Se243  1  0.08753399  0.58608681  0.19256054  1
  Se  Se244  1  0.08974170  0.58135137  0.68905462  1
  Se  Se245  1  0.08441269  0.90841247  0.19113043  1
  Se  Se246  1  0.08684402  0.91317207  0.69141929  1
  Se  Se247  1  0.42199416  0.24426095  0.19374103  1
  Se  Se248  1  0.41417773  0.25333608  0.69617973  1
  Se  Se249  1  0.43013140  0.57609611  0.19393664  1
  Se  Se250  1  0.42146861  0.57654057  0.68040789  1
  Se  Se251  1  0.41360699  0.91462582  0.20104650  1
  Se  Se252  1  0.41910330  0.91808215  0.69430733  1
  Se  Se253  1  0.74666855  0.24911884  0.19491365  1
  Se  Se254  1  0.74605622  0.23510230  0.68292340  1
  Se  Se255  1  0.73357184  0.60801699  0.20039457  1
  Se  Se256  1  0.76053298  0.56911609  0.69945033  1
  Se  Se257  1  0.75944687  0.91722303  0.19513465  1
  Se  Se258  1  0.76116949  0.90819333  0.68890323  1
