# generated using pymatgen
data_In86Cu29Se144
_symmetry_space_group_name_H-M   'P 1'
_cell_length_a   17.57726724
_cell_length_b   17.57606154
_cell_length_c   23.43739729
_cell_angle_alpha   89.98291469
_cell_angle_beta   90.01144875
_cell_angle_gamma   89.99162640
_symmetry_Int_Tables_number   1
_chemical_formula_structural   In86Cu29Se144
_chemical_formula_sum   'In86 Cu29 Se144'
_cell_volume   7240.72860041
_cell_formula_units_Z   1
loop_
 _symmetry_equiv_pos_site_id
 _symmetry_equiv_pos_as_xyz
  1  'x, y, z'
loop_
 _atom_site_type_symbol
 _atom_site_label
 _atom_site_symmetry_multiplicity
 _atom_site_fract_x
 _atom_site_fract_y
 _atom_site_fract_z
 _atom_site_occupancy
  In  In0  1  -0.01136164  0.16316119  0.12598109  1
  In  In1  1  0.00228181  0.16377712  0.64069148  1
  In  In2  1  0.01486327  0.50110507  0.12399498  1
  In  In3  1  -0.01139759  0.49628891  0.62460061  1
  In  In4  1  0.00334825  0.83021592  0.12847959  1
  In  In5  1  0.00802217  0.82775648  0.62249075  1
  In  In6  1  0.34837978  0.15577739  0.12678597  1
  In  In7  1  0.33896584  0.15591573  0.62364503  1
  In  In8  1  0.33544450  0.49936153  0.13224763  1
  In  In9  1  0.35321673  0.49758183  0.62450949  1
  In  In10  1  0.32365471  0.84187000  0.12905383  1
  In  In11  1  0.32985335  0.83493047  0.62243174  1
  In  In12  1  0.66096882  0.17031368  0.13352254  1
  In  In13  1  0.66090558  0.16806185  0.62487985  1
  In  In14  1  0.64453708  0.49953749  0.12487509  1
  In  In15  1  0.64647896  0.48313511  0.59970024  1
  In  In16  1  0.67873969  0.83814702  0.12828467  1
  In  In17  1  0.66436790  0.84756859  0.62188792  1
  In  In18  1  0.16135261  -0.00916219  0.36576962  1
  In  In19  1  0.15210620  0.00607167  0.87972697  1
  In  In20  1  0.17068887  0.31869557  0.37088774  1
  In  In21  1  0.17231130  0.34435525  0.87326807  1
  In  In22  1  0.18125398  0.67907189  0.36582333  1
  In  In23  1  0.17469134  0.65829313  0.88306947  1
  In  In24  1  0.50036268  0.00154470  0.37622152  1
  In  In25  1  0.51418889  0.00700457  0.87713895  1
  In  In26  1  0.50496187  0.33488425  0.37674344  1
  In  In27  1  0.50430789  0.32586585  0.88046615  1
  In  In28  1  0.50030913  0.67539174  0.38427084  1
  In  In29  1  0.48489861  0.66845865  0.87301187  1
  In  In30  1  0.82635903  -0.01076707  0.36182193  1
  In  In31  1  0.83120204  0.00116396  0.87492188  1
  In  In32  1  0.82226016  0.35076606  0.38116233  1
  In  In33  1  0.82456440  0.32474690  0.86466110  1
  In  In34  1  0.82365594  0.65611379  0.36983418  1
  In  In35  1  0.84641765  0.67362034  0.87800085  1
  In  In36  1  0.00803902  0.15810605  0.37013284  1
  In  In37  1  0.00321377  0.16088420  0.86188027  1
  In  In38  1  -0.01778645  0.50305080  0.37359032  1
  In  In39  1  0.01357411  0.50930443  0.87354318  1
  In  In40  1  0.00777931  0.84257597  0.36574847  1
  In  In41  1  -0.00290477  0.84159077  0.88433446  1
  In  In42  1  0.34179531  0.17522343  0.36439963  1
  In  In43  1  0.33738034  0.18112656  0.88386851  1
  In  In44  1  0.34839799  0.51146138  0.36712597  1
  In  In45  1  0.32580070  0.50112919  0.88280130  1
  In  In46  1  0.33380122  0.83163828  0.37340392  1
  In  In47  1  0.33629966  0.81928480  0.87775522  1
  In  In48  1  0.65242012  0.15870331  0.37556867  1
  In  In49  1  0.65740605  0.16421493  0.87063765  1
  In  In50  1  0.66890106  0.49779227  0.38807970  1
  In  In51  1  0.66766389  0.48666886  0.87405143  1
  In  In52  1  0.65608017  0.83150265  0.37696123  1
  In  In53  1  0.66522442  0.85389921  0.87721554  1
  In  In54  1  0.18498045  -0.01657070  0.12620781  1
  In  In55  1  0.16780726  -0.00877525  0.62755244  1
  In  In56  1  0.17322085  0.35083362  0.11813113  1
  In  In57  1  0.16421363  0.32028680  0.63194332  1
  In  In58  1  0.16833300  0.66704287  0.12910342  1
  In  In59  1  0.16804644  0.68365223  0.62313438  1
  In  In60  1  0.48789134  0.01229084  0.13264320  1
  In  In61  1  0.51576312  0.01402088  0.60443005  1
  In  In62  1  0.49685161  0.33300102  0.12922313  1
  In  In63  1  0.51161227  0.33270847  0.61022408  1
  In  In64  1  0.49693606  0.64715637  0.12614865  1
  In  In65  1  0.49508334  0.66004106  0.61760453  1
  In  In66  1  0.84891003  -0.02191726  0.15009667  1
  In  In67  1  0.82949782  0.00078814  0.63038612  1
  In  In68  1  0.82583226  0.32424208  0.12848410  1
  In  In69  1  0.82211083  0.33739449  0.63023332  1
  In  In70  1  0.83190711  0.69114605  0.13052119  1
  In  In71  1  0.84321981  0.65621622  0.62101311  1
  In  In72  1  0.17108887  0.50221602  0.49517736  1
  In  In73  1  0.66816737  0.66688024  0.74069504  1
  In  In74  1  0.33379245  0.33359156  0.75723889  1
  In  In75  1  0.49820110  0.83612330  0.00092195  1
  In  In76  1  0.83627773  0.50548880  -0.00303495  1
  In  In77  1  0.82570900  0.82564246  0.49125157  1
  In  In78  1  0.00240519  0.66643494  0.74759437  1
  In  In79  1  0.17456228  0.16634748  0.00239220  1
  In  In80  1  -0.00066096  0.33134011  0.24814544  1
  In  In81  1  0.17160829  0.15734091  0.50431363  1
  In  In82  1  0.82660189  0.16847288  0.49838553  1
  In  In83  1  0.82742815  0.16045428  0.00299081  1
  In  In84  1  0.66349374  0.67036044  0.25267367  1
  In  In85  1  0.32996263  0.00122823  0.75081298  1
  Cu  Cu86  1  0.00454167  0.33954443  -0.00770080  1
  Cu  Cu87  1  0.16871983  0.83211868  0.24777344  1
  Cu  Cu88  1  0.82813285  0.84153112  0.75409666  1
  Cu  Cu89  1  0.50513422  0.50005356  0.74207012  1
  Cu  Cu90  1  -0.00552831  0.33170912  0.50475960  1
  Cu  Cu91  1  0.32885542  0.66179695  0.00464619  1
  Cu  Cu92  1  0.00408935  0.67421370  0.00419343  1
  Cu  Cu93  1  0.33229840  0.67156649  0.49571183  1
  Cu  Cu94  1  0.49458558  0.84237643  0.75116123  1
  Cu  Cu95  1  0.17028423  0.50240065  0.75541681  1
  Cu  Cu96  1  0.49970408  0.16653871  0.25304657  1
  Cu  Cu97  1  0.16493569  0.83353528  0.74948903  1
  Cu  Cu98  1  0.67173298  0.00583497  0.00375102  1
  Cu  Cu99  1  0.82634505  0.16996473  0.25414775  1
  Cu  Cu100  1  0.82577460  0.50332115  0.25163514  1
  Cu  Cu101  1  0.34278321  0.33444026  0.49347446  1
  Cu  Cu102  1  0.17079411  0.16188489  0.24343920  1
  Cu  Cu103  1  0.33244933  -0.00808842  0.49448776  1
  Cu  Cu104  1  0.00282476  0.66714824  0.49752055  1
  Cu  Cu105  1  0.16580922  0.50241826  0.24854442  1
  Cu  Cu106  1  0.49839164  0.49248728  0.25221138  1
  Cu  Cu107  1  -0.00379074  -0.00782754  0.49443035  1
  Cu  Cu108  1  0.82965330  0.16054269  0.74844292  1
  Cu  Cu109  1  0.66573353  0.67189585  0.00691053  1
  Cu  Cu110  1  0.49552518  0.83094788  0.25452853  1
  Cu  Cu111  1  0.00149715  -0.00693990  0.00690967  1
  Cu  Cu112  1  0.82903137  0.48780467  0.74516572  1
  Cu  Cu113  1  0.65589026  0.33568087  0.00417323  1
  Cu  Cu114  1  0.50467020  0.16941984  0.74700476  1
  Se  Se115  1  0.08038591  0.07895414  0.06344502  1
  Se  Se116  1  0.07023134  0.07420456  0.55938657  1
  Se  Se117  1  0.08523319  0.42243190  0.04661444  1
  Se  Se118  1  0.08457747  0.40936300  0.55869672  1
  Se  Se119  1  0.08984865  0.75325730  0.05832133  1
  Se  Se120  1  0.08603909  0.75285572  0.54702285  1
  Se  Se121  1  0.41887238  0.07776994  0.04962710  1
  Se  Se122  1  0.41055469  0.08334735  0.54542702  1
  Se  Se123  1  0.43784847  0.43941217  0.06639205  1
  Se  Se124  1  0.42275331  0.41955959  0.54763076  1
  Se  Se125  1  0.41260264  0.74267655  0.06232552  1
  Se  Se126  1  0.41337815  0.75184698  0.55461840  1
  Se  Se127  1  0.75175014  0.07406409  0.07309815  1
  Se  Se128  1  0.74307105  0.07212959  0.55630556  1
  Se  Se129  1  0.74540544  0.41465646  0.05826434  1
  Se  Se130  1  0.75781071  0.41372943  0.55088516  1
  Se  Se131  1  0.75137210  0.75766180  0.05201347  1
  Se  Se132  1  0.74786980  0.74380225  0.56446263  1
  Se  Se133  1  0.26223186  0.25529913  0.06266764  1
  Se  Se134  1  0.26161456  0.25899591  0.55683717  1
  Se  Se135  1  0.24877512  0.57882636  0.06153741  1
  Se  Se136  1  0.25754794  0.58893402  0.56064374  1
  Se  Se137  1  0.25684669  0.91291691  0.04703705  1
  Se  Se138  1  0.24610225  0.91746087  0.55250621  1
  Se  Se139  1  0.58158590  0.24812871  0.06033367  1
  Se  Se140  1  0.57468112  0.22999306  0.54821965  1
  Se  Se141  1  0.57952964  0.58264739  0.04745423  1
  Se  Se142  1  0.59135434  0.59851077  0.54834376  1
  Se  Se143  1  0.58833307  0.92400467  0.06185157  1
  Se  Se144  1  0.57363022  0.90342693  0.54701102  1
  Se  Se145  1  0.92302206  0.26190052  0.05310340  1
  Se  Se146  1  0.92145288  0.24652399  0.56430036  1
  Se  Se147  1  0.92031193  0.59264848  0.06312746  1
  Se  Se148  1  0.92249237  0.57919496  0.54751677  1
  Se  Se149  1  0.91478129  0.91657946  0.06247795  1
  Se  Se150  1  0.91589194  0.91527662  0.55689196  1
  Se  Se151  1  0.07632178  0.25149944  0.44640999  1
  Se  Se152  1  0.07881482  0.24918215  0.93771330  1
  Se  Se153  1  0.08169154  0.58920074  0.43338970  1
  Se  Se154  1  0.08283853  0.58475215  0.95182627  1
  Se  Se155  1  0.08634340  0.91499619  0.44358784  1
  Se  Se156  1  0.08857699  0.91472176  0.95294388  1
  Se  Se157  1  0.41989741  0.24456587  0.44197087  1
  Se  Se158  1  0.41952641  0.25552752  0.95353892  1
  Se  Se159  1  0.41671591  0.58440007  0.44806473  1
  Se  Se160  1  0.41489010  0.58535101  0.94698285  1
  Se  Se161  1  0.41897415  0.91125698  0.44267970  1
  Se  Se162  1  0.41399755  0.92422813  0.93619707  1
  Se  Se163  1  0.73597875  0.25797867  0.44152386  1
  Se  Se164  1  0.74065868  0.25692635  0.94542804  1
  Se  Se165  1  0.75957483  0.58140381  0.44913381  1
  Se  Se166  1  0.74186356  0.59469141  0.93826873  1
  Se  Se167  1  0.74002040  0.92814185  0.44217263  1
  Se  Se168  1  0.75361224  0.92151477  0.94982349  1
  Se  Se169  1  0.25455094  0.07730636  0.43380600  1
  Se  Se170  1  0.25988036  0.07424852  0.94074896  1
  Se  Se171  1  0.25744398  0.40963422  0.43460441  1
  Se  Se172  1  0.25700725  0.40498602  0.94855818  1
  Se  Se173  1  0.24702801  0.75514829  0.44636106  1
  Se  Se174  1  0.25001244  0.74908006  0.95065450  1
  Se  Se175  1  0.57540616  0.08462509  0.44998109  1
  Se  Se176  1  0.58789548  0.08913732  0.95129041  1
  Se  Se177  1  0.57284361  0.42323028  0.44968471  1
  Se  Se178  1  0.58000063  0.42108989  0.94705798  1
  Se  Se179  1  0.60271239  0.73586951  0.44937163  1
  Se  Se180  1  0.58875098  0.74684083  0.93754438  1
  Se  Se181  1  0.91838014  0.07622844  0.43743381  1
  Se  Se182  1  0.92846599  0.07977834  0.94487623  1
  Se  Se183  1  0.91738507  0.41751804  0.44991635  1
  Se  Se184  1  0.91764974  0.41178456  0.93241765  1
  Se  Se185  1  0.92483819  0.74459787  0.43291553  1
  Se  Se186  1  0.91627389  0.75472754  0.95259575  1
  Se  Se187  1  0.25065817  0.24952501  0.29522040  1
  Se  Se188  1  0.24050016  0.23834512  0.80857109  1
  Se  Se189  1  0.25290993  0.58289210  0.30142574  1
  Se  Se190  1  0.25430100  0.58472373  0.80717685  1
  Se  Se191  1  0.25439503  0.91449567  0.30138473  1
  Se  Se192  1  0.24459494  0.90965658  0.81343116  1
  Se  Se193  1  0.58355950  0.25097001  0.30505536  1
  Se  Se194  1  0.58345180  0.25572980  0.80234675  1
  Se  Se195  1  0.57801690  0.57711048  0.31221707  1
  Se  Se196  1  0.58034634  0.58067292  0.80740296  1
  Se  Se197  1  0.57980779  0.91452241  0.30568681  1
  Se  Se198  1  0.58273684  0.92294652  0.80146867  1
  Se  Se199  1  0.90859168  0.24982469  0.31514030  1
  Se  Se200  1  0.91358940  0.24561660  0.80034763  1
  Se  Se201  1  0.91465084  0.58679624  0.29780781  1
  Se  Se202  1  0.90644109  0.57348985  0.80423460  1
  Se  Se203  1  0.92435430  0.92368529  0.29819133  1
  Se  Se204  1  0.91710737  0.91587833  0.80925251  1
  Se  Se205  1  0.08485363  0.08123462  0.29679485  1
  Se  Se206  1  0.08247664  0.07202356  0.79810776  1
  Se  Se207  1  0.08727310  0.42192061  0.31176413  1
  Se  Se208  1  0.08313793  0.41873812  0.80344776  1
  Se  Se209  1  0.08419617  0.74901529  0.30065564  1
  Se  Se210  1  0.08761767  0.75222188  0.81309766  1
  Se  Se211  1  0.41599937  0.07794290  0.30261266  1
  Se  Se212  1  0.42167280  0.09464369  0.80958540  1
  Se  Se213  1  0.41435372  0.40840759  0.30504614  1
  Se  Se214  1  0.42662658  0.42653878  0.81045169  1
  Se  Se215  1  0.41751984  0.74341825  0.30736573  1
  Se  Se216  1  0.41429745  0.75175871  0.79827892  1
  Se  Se217  1  0.74343958  0.08543859  0.30561140  1
  Se  Se218  1  0.74640079  0.08196157  0.80694752  1
  Se  Se219  1  0.74227535  0.42394386  0.30633452  1
  Se  Se220  1  0.74108578  0.40974454  0.79809146  1
  Se  Se221  1  0.75704658  0.76244142  0.30678023  1
  Se  Se222  1  0.75201146  0.75453668  0.81125535  1
  Se  Se223  1  0.25640560  0.07817139  0.19305625  1
  Se  Se224  1  0.23832859  0.09458644  0.69300945  1
  Se  Se225  1  0.24862212  0.41519724  0.19965200  1
  Se  Se226  1  0.24815317  0.42432007  0.68977208  1
  Se  Se227  1  0.25469098  0.74753257  0.19768742  1
  Se  Se228  1  0.25183550  0.75339543  0.69722571  1
  Se  Se229  1  0.58287285  0.08112591  0.20050730  1
  Se  Se230  1  0.57926974  0.07951416  0.69209982  1
  Se  Se231  1  0.58557177  0.41166494  0.20070008  1
  Se  Se232  1  0.58302624  0.41522724  0.68625268  1
  Se  Se233  1  0.57274194  0.75506014  0.18701983  1
  Se  Se234  1  0.57298698  0.75997197  0.68946780  1
  Se  Se235  1  0.91637522  0.08977050  0.20386050  1
  Se  Se236  1  0.91618021  0.07457608  0.70085422  1
  Se  Se237  1  0.90834666  0.42534228  0.18889352  1
  Se  Se238  1  0.92051063  0.40837860  0.69652412  1
  Se  Se239  1  0.91807537  0.75707233  0.20198015  1
  Se  Se240  1  0.90562720  0.75867390  0.69320350  1
  Se  Se241  1  0.09088706  0.24655522  0.18424826  1
  Se  Se242  1  0.08075555  0.25303512  0.70464526  1
  Se  Se243  1  0.08023920  0.58617096  0.19885044  1
  Se  Se244  1  0.09316304  0.57627444  0.68662676  1
  Se  Se245  1  0.08781578  0.91845705  0.19414264  1
  Se  Se246  1  0.07958617  0.91309848  0.69562541  1
  Se  Se247  1  0.41574300  0.24793111  0.19805909  1
  Se  Se248  1  0.42101606  0.24919167  0.68902149  1
  Se  Se249  1  0.41613263  0.58307848  0.20471807  1
  Se  Se250  1  0.41857605  0.58770864  0.69692416  1
  Se  Se251  1  0.41627760  0.91456041  0.19690180  1
  Se  Se252  1  0.42236472  0.92380483  0.68552315  1
  Se  Se253  1  0.74420005  0.25543600  0.20280686  1
  Se  Se254  1  0.74636253  0.24463460  0.69518846  1
  Se  Se255  1  0.74953554  0.58066592  0.18496438  1
  Se  Se256  1  0.75315715  0.57007293  0.68443448  1
  Se  Se257  1  0.73674249  0.92191118  0.20651457  1
  Se  Se258  1  0.74361087  0.91994281  0.69853357  1
