# generated using pymatgen
data_In86Cu29Se144
_symmetry_space_group_name_H-M   'P 1'
_cell_length_a   17.58601604
_cell_length_b   17.59029886
_cell_length_c   23.44878883
_cell_angle_alpha   90.02203734
_cell_angle_beta   89.99358656
_cell_angle_gamma   89.99247572
_symmetry_Int_Tables_number   1
_chemical_formula_structural   In86Cu29Se144
_chemical_formula_sum   'In86 Cu29 Se144'
_cell_volume   7253.72455698
_cell_formula_units_Z   1
loop_
 _symmetry_equiv_pos_site_id
 _symmetry_equiv_pos_as_xyz
  1  'x, y, z'
loop_
 _atom_site_type_symbol
 _atom_site_label
 _atom_site_symmetry_multiplicity
 _atom_site_fract_x
 _atom_site_fract_y
 _atom_site_fract_z
 _atom_site_occupancy
  In  In0  1  0.01612734  0.16255609  0.11457748  1
  In  In1  1  0.02553895  0.16675762  0.63004982  1
  In  In2  1  0.01073359  0.50765825  0.11537103  1
  In  In3  1  0.00556549  0.50038217  0.63116227  1
  In  In4  1  -0.00053931  0.83603184  0.10774526  1
  In  In5  1  -0.01464319  0.83084371  0.62646307  1
  In  In6  1  0.33512649  0.16673427  0.12053098  1
  In  In7  1  0.32851854  0.17287369  0.63329235  1
  In  In8  1  0.33198742  0.49968212  0.12388020  1
  In  In9  1  0.32295970  0.50944441  0.63022860  1
  In  In10  1  0.33550497  0.83710323  0.12578608  1
  In  In11  1  0.33165801  0.84159078  0.64165779  1
  In  In12  1  0.66275713  0.18409625  0.12636890  1
  In  In13  1  0.65825038  0.17405857  0.62132750  1
  In  In14  1  0.66544487  0.49991142  0.12476690  1
  In  In15  1  0.67012661  0.49776340  0.61855371  1
  In  In16  1  0.66145475  0.81865478  0.12484437  1
  In  In17  1  0.67142682  0.82518496  0.62077964  1
  In  In18  1  0.18161511  0.00513330  0.37217770  1
  In  In19  1  0.17345324  -0.00757680  0.87998880  1
  In  In20  1  0.17360402  0.32787215  0.38305508  1
  In  In21  1  0.17983762  0.32775140  0.86918247  1
  In  In22  1  0.16362243  0.65600516  0.37427205  1
  In  In23  1  0.16916478  0.66615718  0.87938702  1
  In  In24  1  0.49528348  0.01667017  0.37743350  1
  In  In25  1  0.49385914  0.00824960  0.87492357  1
  In  In26  1  0.48586752  0.32409036  0.36824333  1
  In  In27  1  0.48965988  0.33904654  0.88067280  1
  In  In28  1  0.49860856  0.66620604  0.36528718  1
  In  In29  1  0.46541897  0.66553035  0.88281450  1
  In  In30  1  0.82613782  -0.01093157  0.37869481  1
  In  In31  1  0.82583937  -0.00569450  0.88228839  1
  In  In32  1  0.83557918  0.34978578  0.37498171  1
  In  In33  1  0.84875983  0.33137425  0.87259789  1
  In  In34  1  0.82234817  0.66325211  0.38531413  1
  In  In35  1  0.84038434  0.65663569  0.88033860  1
  In  In36  1  0.01009389  0.18065892  0.37909241  1
  In  In37  1  0.00897607  0.18118494  0.86459699  1
  In  In38  1  0.00135000  0.49915803  0.38586396  1
  In  In39  1  0.00550934  0.49698208  0.87593770  1
  In  In40  1  -0.00581039  0.81784974  0.37621813  1
  In  In41  1  0.01367911  0.82462033  0.88805218  1
  In  In42  1  0.33042936  0.17050802  0.37625566  1
  In  In43  1  0.33813223  0.16547751  0.87018743  1
  In  In44  1  0.33077386  0.49269208  0.36902581  1
  In  In45  1  0.33180696  0.50204259  0.88020166  1
  In  In46  1  0.33687262  0.84001617  0.36438549  1
  In  In47  1  0.31895999  0.81387635  0.86366372  1
  In  In48  1  0.64591312  0.16410504  0.37510393  1
  In  In49  1  0.64903587  0.16373569  0.88019669  1
  In  In50  1  0.67139058  0.50527733  0.36644758  1
  In  In51  1  0.66019393  0.50407481  0.88316792  1
  In  In52  1  0.67656479  0.82681939  0.37450657  1
  In  In53  1  0.66977879  0.84523093  0.88531398  1
  In  In54  1  0.17976391  0.01501983  0.10677585  1
  In  In55  1  0.17554345  0.01402148  0.62930021  1
  In  In56  1  0.18459630  0.34506170  0.11443090  1
  In  In57  1  0.16589923  0.33521168  0.63305090  1
  In  In58  1  0.18535910  0.67901878  0.10671131  1
  In  In59  1  0.17546842  0.65543274  0.63305648  1
  In  In60  1  0.48475891  -0.00485894  0.12196967  1
  In  In61  1  0.47948621  0.01008734  0.63458138  1
  In  In62  1  0.49564482  0.33317054  0.12206815  1
  In  In63  1  0.48776763  0.31974907  0.63173062  1
  In  In64  1  0.50527077  0.66245019  0.12901239  1
  In  In65  1  0.49653852  0.66178266  0.62752864  1
  In  In66  1  0.83667267  -0.00617112  0.11693382  1
  In  In67  1  0.84313401  -0.01367190  0.62375203  1
  In  In68  1  0.81890666  0.33529637  0.12588884  1
  In  In69  1  0.83507211  0.34903666  0.62632377  1
  In  In70  1  0.82836219  0.65727427  0.11798638  1
  In  In71  1  0.84014920  0.67518678  0.62123253  1
  In  In72  1  0.00709441  -0.00054743  0.75760375  1
  In  In73  1  0.65915759  -0.00248598  0.25242862  1
  In  In74  1  0.00503424  -0.00083084  0.23710862  1
  In  In75  1  0.83258509  0.17067426  -0.00002364  1
  In  In76  1  0.83454473  0.16768049  0.50041964  1
  In  In77  1  0.49949429  0.83199793  0.00151562  1
  In  In78  1  0.16193054  0.83214329  0.49873529  1
  In  In79  1  0.66151237  0.66773024  0.74700688  1
  In  In80  1  0.50272450  0.49931316  0.50071591  1
  In  In81  1  0.00171808  0.33753631  0.24812631  1
  In  In82  1  0.00311071  0.66334486  0.24829865  1
  In  In83  1  0.50410413  0.83511506  0.49772132  1
  In  In84  1  0.65874313  0.00161891  0.75403565  1
  In  In85  1  0.66150133  0.33699206  0.75444353  1
  Cu  Cu86  1  0.17662570  0.83528435  0.23949922  1
  Cu  Cu87  1  0.66090259  0.33250275  0.49950851  1
  Cu  Cu88  1  0.00777123  0.33487212  0.50725701  1
  Cu  Cu89  1  0.33211583  0.66897119  0.50350784  1
  Cu  Cu90  1  0.82757288  0.16815771  0.24569446  1
  Cu  Cu91  1  0.33516986  0.00079955  -0.00406631  1
  Cu  Cu92  1  0.49590901  0.83030618  0.24632094  1
  Cu  Cu93  1  0.49040766  0.50308183  0.75134183  1
  Cu  Cu94  1  0.32841786  0.01450304  0.50462566  1
  Cu  Cu95  1  0.33269533  0.32736053  -0.00231680  1
  Cu  Cu96  1  0.82722858  0.50361574  0.24778401  1
  Cu  Cu97  1  0.48957196  0.16952990  0.24926113  1
  Cu  Cu98  1  0.17722397  0.49995821  0.24887330  1
  Cu  Cu99  1  0.84428676  0.50282263  0.75253681  1
  Cu  Cu100  1  0.17471130  0.16920776  0.24589340  1
  Cu  Cu101  1  0.00535784  0.33416315  -0.00887143  1
  Cu  Cu102  1  0.83651416  0.16649169  0.75010935  1
  Cu  Cu103  1  0.15971074  0.82928773  0.75540268  1
  Cu  Cu104  1  0.83668509  0.82438018  0.75446352  1
  Cu  Cu105  1  0.32889416  0.33296523  0.50091019  1
  Cu  Cu106  1  0.00335381  -0.00279785  0.50473184  1
  Cu  Cu107  1  0.66136162  -0.00204662  0.49767765  1
  Cu  Cu108  1  0.66220692  0.33845980  0.00284016  1
  Cu  Cu109  1  0.50067006  0.49578294  0.24465817  1
  Cu  Cu110  1  -0.00326756  0.65899822  0.50403276  1
  Cu  Cu111  1  0.16570278  0.50040760  0.75724828  1
  Cu  Cu112  1  0.83343863  0.82466372  0.24936954  1
  Cu  Cu113  1  -0.00086257  0.66397948  -0.00472833  1
  Cu  Cu114  1  0.66809807  0.66561851  0.00211285  1
  Se  Se115  1  0.07395573  0.07136373  0.04226893  1
  Se  Se116  1  0.08866335  0.08032423  0.55387617  1
  Se  Se117  1  0.08490257  0.41401411  0.05100862  1
  Se  Se118  1  0.08892370  0.41998000  0.56048197  1
  Se  Se119  1  0.08479317  0.74954833  0.04524497  1
  Se  Se120  1  0.07806611  0.74235284  0.56268484  1
  Se  Se121  1  0.41845776  0.08370236  0.04977180  1
  Se  Se122  1  0.41294196  0.09377468  0.55904392  1
  Se  Se123  1  0.41186647  0.41371731  0.05310953  1
  Se  Se124  1  0.40967479  0.41414685  0.56179711  1
  Se  Se125  1  0.41139406  0.73913997  0.05875442  1
  Se  Se126  1  0.40858060  0.75267759  0.56130217  1
  Se  Se127  1  0.74120098  0.08512962  0.06208244  1
  Se  Se128  1  0.74492028  0.07432290  0.56158962  1
  Se  Se129  1  0.75042940  0.42005275  0.05250065  1
  Se  Se130  1  0.74885543  0.41274463  0.54999738  1
  Se  Se131  1  0.75112809  0.75122672  0.05333644  1
  Se  Se132  1  0.75228355  0.74873693  0.55197768  1
  Se  Se133  1  0.24735783  0.24249865  0.04975920  1
  Se  Se134  1  0.24857354  0.25372078  0.56111788  1
  Se  Se135  1  0.23282329  0.56037656  0.05471508  1
  Se  Se136  1  0.24744993  0.58387550  0.55222746  1
  Se  Se137  1  0.25677888  0.91310554  0.05060747  1
  Se  Se138  1  0.25600391  0.91896465  0.55854312  1
  Se  Se139  1  0.57916006  0.25012304  0.05082501  1
  Se  Se140  1  0.57506870  0.25569483  0.55461653  1
  Se  Se141  1  0.58342951  0.58363883  0.05535230  1
  Se  Se142  1  0.59275744  0.59676480  0.55545496  1
  Se  Se143  1  0.59028784  0.92180359  0.06191481  1
  Se  Se144  1  0.58281576  0.92685839  0.56602354  1
  Se  Se145  1  0.92489284  0.26227201  0.05985377  1
  Se  Se146  1  0.92469094  0.25101654  0.56503774  1
  Se  Se147  1  0.91667376  0.58068451  0.05022424  1
  Se  Se148  1  0.91642423  0.57693230  0.56078190  1
  Se  Se149  1  0.91914983  0.92506497  0.04430657  1
  Se  Se150  1  0.91615695  0.90970699  0.54731711  1
  Se  Se151  1  0.08963465  0.24947844  0.45476398  1
  Se  Se152  1  0.08972739  0.25077910  0.94037606  1
  Se  Se153  1  0.08690803  0.58332973  0.45101068  1
  Se  Se154  1  0.08565322  0.57979314  0.94630836  1
  Se  Se155  1  0.07648336  0.92305591  0.43361796  1
  Se  Se156  1  0.07374212  0.93158135  0.94727793  1
  Se  Se157  1  0.41415764  0.25068900  0.44760426  1
  Se  Se158  1  0.41859624  0.24315066  0.94617247  1
  Se  Se159  1  0.41165536  0.58993189  0.44157395  1
  Se  Se160  1  0.42425730  0.56592805  0.95419884  1
  Se  Se161  1  0.40528787  0.92783790  0.44490105  1
  Se  Se162  1  0.40870474  0.91299283  0.93639394  1
  Se  Se163  1  0.74324970  0.25350605  0.43770811  1
  Se  Se164  1  0.74115715  0.26067305  0.93763588  1
  Se  Se165  1  0.75533801  0.56195805  0.44590999  1
  Se  Se166  1  0.75118350  0.58072408  0.94873761  1
  Se  Se167  1  0.74584955  0.91159137  0.45005966  1
  Se  Se168  1  0.75365593  0.91613288  0.95685630  1
  Se  Se169  1  0.24407150  0.09145055  0.44754059  1
  Se  Se170  1  0.25442860  0.08573783  0.94163644  1
  Se  Se171  1  0.25196766  0.42140277  0.44654082  1
  Se  Se172  1  0.24943938  0.41181386  0.94505975  1
  Se  Se173  1  0.25781613  0.74886407  0.43812007  1
  Se  Se174  1  0.25188862  0.75029283  0.94724264  1
  Se  Se175  1  0.57672001  0.08697869  0.45353642  1
  Se  Se176  1  0.59251457  0.06385736  0.94590318  1
  Se  Se177  1  0.58312015  0.40898084  0.43465397  1
  Se  Se178  1  0.57752800  0.41872729  0.94816142  1
  Se  Se179  1  0.58858298  0.73838526  0.44082539  1
  Se  Se180  1  0.58549167  0.73862384  0.93818977  1
  Se  Se181  1  0.92540453  0.07636318  0.43866440  1
  Se  Se182  1  0.92039511  0.09164821  0.93179910  1
  Se  Se183  1  0.92051428  0.41210026  0.45217500  1
  Se  Se184  1  0.91560451  0.41813861  0.94561198  1
  Se  Se185  1  0.91507272  0.74391800  0.44913083  1
  Se  Se186  1  0.91262007  0.75011732  0.94765221  1
  Se  Se187  1  0.24900659  0.25378982  0.30550773  1
  Se  Se188  1  0.27977311  0.26661444  0.79935433  1
  Se  Se189  1  0.25397006  0.58756967  0.30419092  1
  Se  Se190  1  0.25093884  0.58442663  0.80860466  1
  Se  Se191  1  0.25078682  0.92185291  0.29773944  1
  Se  Se192  1  0.24596749  0.91448976  0.80312817  1
  Se  Se193  1  0.57937027  0.24884029  0.30067047  1
  Se  Se194  1  0.56930154  0.24511632  0.80750084  1
  Se  Se195  1  0.58169939  0.58135665  0.29961428  1
  Se  Se196  1  0.57350077  0.58139669  0.81053357  1
  Se  Se197  1  0.57078357  0.90779509  0.31517815  1
  Se  Se198  1  0.57574262  0.90508450  0.81124100  1
  Se  Se199  1  0.91021273  0.24404912  0.30783634  1
  Se  Se200  1  0.92087936  0.25566476  0.79469006  1
  Se  Se201  1  0.91397034  0.57537614  0.31027430  1
  Se  Se202  1  0.92466198  0.58559287  0.80705487  1
  Se  Se203  1  0.91488499  0.91065723  0.30425285  1
  Se  Se204  1  0.91327943  0.90903721  0.81344875  1
  Se  Se205  1  0.08682633  0.09266404  0.30377389  1
  Se  Se206  1  0.10291273  0.09126529  0.80633239  1
  Se  Se207  1  0.09086082  0.42515315  0.31030335  1
  Se  Se208  1  0.08548220  0.41125280  0.80751805  1
  Se  Se209  1  0.09584186  0.76070200  0.30375934  1
  Se  Se210  1  0.07989283  0.74557828  0.80943738  1
  Se  Se211  1  0.40970845  0.08486675  0.30446405  1
  Se  Se212  1  0.41257904  0.07579186  0.79987484  1
  Se  Se213  1  0.41500169  0.41513838  0.29916723  1
  Se  Se214  1  0.41328019  0.41979230  0.80760017  1
  Se  Se215  1  0.41120452  0.74700092  0.29957776  1
  Se  Se216  1  0.42149632  0.74869616  0.80066526  1
  Se  Se217  1  0.75461830  0.08837267  0.31085840  1
  Se  Se218  1  0.75475143  0.09261627  0.81088237  1
  Se  Se219  1  0.74946994  0.41356934  0.29963038  1
  Se  Se220  1  0.75603526  0.42720651  0.81077123  1
  Se  Se221  1  0.75403811  0.74191103  0.30497947  1
  Se  Se222  1  0.74973180  0.75221130  0.81377216  1
  Se  Se223  1  0.25050311  0.08219397  0.18990353  1
  Se  Se224  1  0.27028716  0.06861864  0.70050071  1
  Se  Se225  1  0.25597376  0.41158749  0.19696508  1
  Se  Se226  1  0.24919374  0.42223897  0.69946627  1
  Se  Se227  1  0.25559685  0.74432089  0.19102848  1
  Se  Se228  1  0.24653513  0.74995647  0.69989388  1
  Se  Se229  1  0.57377191  0.08857971  0.19033422  1
  Se  Se230  1  0.57505008  0.09942599  0.69597396  1
  Se  Se231  1  0.58356800  0.41265178  0.19101919  1
  Se  Se232  1  0.57341154  0.42687126  0.68951176  1
  Se  Se233  1  0.58507882  0.74655335  0.20097381  1
  Se  Se234  1  0.57271726  0.76303817  0.69109290  1
  Se  Se235  1  0.91016898  0.09549793  0.18511592  1
  Se  Se236  1  0.91479155  0.08466991  0.69030854  1
  Se  Se237  1  0.91353045  0.42906383  0.18751137  1
  Se  Se238  1  0.92197407  0.41438242  0.69981522  1
  Se  Se239  1  0.91734957  0.75461022  0.18574828  1
  Se  Se240  1  0.91956973  0.74299360  0.70060036  1
  Se  Se241  1  0.09264166  0.24952790  0.18721985  1
  Se  Se242  1  0.09245135  0.24711097  0.70441978  1
  Se  Se243  1  0.09871772  0.58100162  0.18907898  1
  Se  Se244  1  0.08353624  0.58529450  0.70216116  1
  Se  Se245  1  0.09542678  0.91094034  0.17843650  1
  Se  Se246  1  0.08850548  0.90974397  0.68761755  1
  Se  Se247  1  0.41073222  0.25224523  0.19220621  1
  Se  Se248  1  0.39571381  0.26566934  0.70691711  1
  Se  Se249  1  0.41645115  0.58078976  0.19385223  1
  Se  Se250  1  0.41081273  0.58960335  0.69802127  1
  Se  Se251  1  0.41349613  0.91913709  0.19923013  1
  Se  Se252  1  0.42362354  0.91530847  0.70565615  1
  Se  Se253  1  0.74384446  0.25700536  0.20111853  1
  Se  Se254  1  0.75429161  0.24695684  0.69137081  1
  Se  Se255  1  0.74642675  0.58785647  0.19400535  1
  Se  Se256  1  0.75612047  0.57515578  0.69237903  1
  Se  Se257  1  0.75523313  0.91142752  0.19293265  1
  Se  Se258  1  0.75633688  0.90831047  0.69696083  1
