# generated using pymatgen
data_In86Cu29Se144
_symmetry_space_group_name_H-M   'P 1'
_cell_length_a   17.58329721
_cell_length_b   17.58565920
_cell_length_c   23.44971569
_cell_angle_alpha   90.00092070
_cell_angle_beta   89.98340907
_cell_angle_gamma   89.99930784
_symmetry_Int_Tables_number   1
_chemical_formula_structural   In86Cu29Se144
_chemical_formula_sum   'In86 Cu29 Se144'
_cell_volume   7250.97708915
_cell_formula_units_Z   1
loop_
 _symmetry_equiv_pos_site_id
 _symmetry_equiv_pos_as_xyz
  1  'x, y, z'
loop_
 _atom_site_type_symbol
 _atom_site_label
 _atom_site_symmetry_multiplicity
 _atom_site_fract_x
 _atom_site_fract_y
 _atom_site_fract_z
 _atom_site_occupancy
  In  In0  1  0.00472613  0.16192376  0.13036866  1
  In  In1  1  0.01775468  0.16952789  0.62497679  1
  In  In2  1  -0.01107059  0.49665095  0.13078206  1
  In  In3  1  -0.00223795  0.50228645  0.62303155  1
  In  In4  1  0.01390454  0.84332425  0.11766076  1
  In  In5  1  -0.01804516  0.83451512  0.62143415  1
  In  In6  1  0.34641803  0.18509443  0.11136969  1
  In  In7  1  0.32732643  0.17046899  0.62700221  1
  In  In8  1  0.33898932  0.49635941  0.13703908  1
  In  In9  1  0.33187486  0.49378043  0.61010290  1
  In  In10  1  0.32942960  0.83084668  0.12198743  1
  In  In11  1  0.34223848  0.83904378  0.62965053  1
  In  In12  1  0.65501655  0.17163672  0.13519979  1
  In  In13  1  0.67852368  0.16912242  0.62671480  1
  In  In14  1  0.66448612  0.50129799  0.13399866  1
  In  In15  1  0.67040029  0.50213253  0.61808893  1
  In  In16  1  0.66486054  0.83225108  0.12274320  1
  In  In17  1  0.66497280  0.81935869  0.62560588  1
  In  In18  1  0.17505252  0.02000382  0.37468120  1
  In  In19  1  0.17627617  -0.00561521  0.88025652  1
  In  In20  1  0.16473469  0.33416196  0.37743638  1
  In  In21  1  0.16098857  0.33214091  0.87970441  1
  In  In22  1  0.16190980  0.65198309  0.37862711  1
  In  In23  1  0.16159446  0.68088728  0.87270828  1
  In  In24  1  0.50600822  -0.00979951  0.36403885  1
  In  In25  1  0.49314414  0.01065790  0.89241761  1
  In  In26  1  0.51077865  0.33857894  0.36374567  1
  In  In27  1  0.50174576  0.30694741  0.87450378  1
  In  In28  1  0.49181096  0.66241145  0.36350513  1
  In  In29  1  0.51164144  0.66070256  0.87570028  1
  In  In30  1  0.82711110  -0.00907078  0.36629153  1
  In  In31  1  0.81637494  -0.01029120  0.88168155  1
  In  In32  1  0.83956462  0.33781270  0.37144860  1
  In  In33  1  0.83503660  0.33987664  0.86753803  1
  In  In34  1  0.83263370  0.67455365  0.38740565  1
  In  In35  1  0.83578483  0.67198488  0.86712203  1
  In  In36  1  0.01152365  0.17708040  0.36892784  1
  In  In37  1  -0.00291697  0.18026394  0.87643404  1
  In  In38  1  0.01090457  0.49540812  0.39104557  1
  In  In39  1  -0.00635452  0.49724449  0.86339181  1
  In  In40  1  -0.01378849  0.82745439  0.37446224  1
  In  In41  1  0.00058788  0.83340782  0.87628549  1
  In  In42  1  0.31401014  0.16237852  0.37587258  1
  In  In43  1  0.35281952  0.15069651  0.89371146  1
  In  In44  1  0.33411303  0.49844884  0.37538206  1
  In  In45  1  0.32624995  0.49047367  0.87553246  1
  In  In46  1  0.35182288  0.83561311  0.36537090  1
  In  In47  1  0.32234030  0.84455327  0.88419733  1
  In  In48  1  0.66262882  0.16357703  0.35640941  1
  In  In49  1  0.64077068  0.16760443  0.87491105  1
  In  In50  1  0.66717759  0.50022474  0.37562500  1
  In  In51  1  0.66589102  0.50392055  0.86392810  1
  In  In52  1  0.67414682  0.83505282  0.36155568  1
  In  In53  1  0.67276580  0.82999125  0.88940970  1
  In  In54  1  0.16262193  0.00019753  0.12269564  1
  In  In55  1  0.17219801  0.01345855  0.62078451  1
  In  In56  1  0.17838596  0.31841324  0.13631542  1
  In  In57  1  0.16424758  0.33089203  0.62136986  1
  In  In58  1  0.16587580  0.68060627  0.12576432  1
  In  In59  1  0.16522616  0.65071917  0.62005339  1
  In  In60  1  0.51300928  0.00562345  0.12259464  1
  In  In61  1  0.49997698  -0.00465349  0.63169148  1
  In  In62  1  0.49950175  0.32445916  0.13284827  1
  In  In63  1  0.49349560  0.34277569  0.62200256  1
  In  In64  1  0.49011416  0.68175939  0.14196214  1
  In  In65  1  0.51260106  0.66607914  0.62489274  1
  In  In66  1  0.84049259  -0.00758392  0.12843902  1
  In  In67  1  0.84138575  -0.00456779  0.61907642  1
  In  In68  1  0.83102132  0.33481488  0.13665782  1
  In  In69  1  0.82509074  0.34958931  0.62744077  1
  In  In70  1  0.81609845  0.67450664  0.13057753  1
  In  In71  1  0.83376056  0.66403552  0.62043527  1
  In  In72  1  0.50118622  0.49669082  0.00511083  1
  In  In73  1  0.33892671  0.01045044  0.24091588  1
  In  In74  1  0.83785932  0.17018141  0.49490950  1
  In  In75  1  0.82878453  0.16090079  -0.00013584  1
  In  In76  1  0.00033134  0.66275485  0.25696285  1
  In  In77  1  0.33398717  0.67028903  0.74694468  1
  In  In78  1  0.16714915  0.83243519  0.49873089  1
  In  In79  1  0.00123828  0.00222617  0.74702010  1
  In  In80  1  0.16627695  0.49988394  -0.00277557  1
  In  In81  1  0.66154504  0.00412961  0.76148488  1
  In  In82  1  0.83291267  0.50608454  0.00320234  1
  In  In83  1  0.50067744  0.83058832  0.48755850  1
  In  In84  1  0.33837942  0.32780467  0.75435562  1
  In  In85  1  0.49475248  0.16605592  0.49564878  1
  Cu  Cu86  1  0.83343460  0.15963675  0.24748426  1
  Cu  Cu87  1  0.00611833  0.32930470  0.00482126  1
  Cu  Cu88  1  0.33514209  0.66451111  0.49373068  1
  Cu  Cu89  1  0.00344245  0.33475762  0.50067047  1
  Cu  Cu90  1  0.50064304  0.49838756  0.25297291  1
  Cu  Cu91  1  0.17208150  0.16780808  0.75039706  1
  Cu  Cu92  1  0.32946068  -0.00232074  0.00829189  1
  Cu  Cu93  1  0.66915711  -0.01203995  0.48985549  1
  Cu  Cu94  1  0.16066467  0.83559711  0.75371971  1
  Cu  Cu95  1  0.16062107  0.49762204  0.74665646  1
  Cu  Cu96  1  0.50804939  0.49843386  0.74440075  1
  Cu  Cu97  1  0.83260177  0.50632091  0.74104528  1
  Cu  Cu98  1  0.82235161  0.82963065  0.74872962  1
  Cu  Cu99  1  -0.00404527  0.67728227  -0.00413054  1
  Cu  Cu100  1  0.66349561  0.67394551  0.00286529  1
  Cu  Cu101  1  0.33479522  0.66882158  0.00345569  1
  Cu  Cu102  1  0.66379520  0.33521281  0.49492957  1
  Cu  Cu103  1  0.83462876  0.17930134  0.75076982  1
  Cu  Cu104  1  0.16117389  0.17289141  0.25048065  1
  Cu  Cu105  1  0.33048893  0.33585129  0.49648665  1
  Cu  Cu106  1  0.66158415  0.32897769  0.00095105  1
  Cu  Cu107  1  0.49680736  0.83741087  0.75522062  1
  Cu  Cu108  1  0.16623673  0.49622894  0.25925416  1
  Cu  Cu109  1  0.83426740  0.49221444  0.25843427  1
  Cu  Cu110  1  0.83536246  0.82998593  0.24811401  1
  Cu  Cu111  1  0.00127947  -0.00474703  0.00238141  1
  Cu  Cu112  1  0.66951149  0.66198081  0.50011896  1
  Cu  Cu113  1  0.17058074  0.83803514  0.24458459  1
  Cu  Cu114  1  -0.00090182  -0.00246746  0.49724198  1
  Se  Se115  1  0.07901395  0.08414457  0.05407724  1
  Se  Se116  1  0.08139542  0.08210014  0.54980261  1
  Se  Se117  1  0.07996145  0.41486728  0.06421274  1
  Se  Se118  1  0.08551162  0.41891577  0.55546016  1
  Se  Se119  1  0.08737354  0.75152078  0.04886981  1
  Se  Se120  1  0.07809339  0.74732340  0.56122019  1
  Se  Se121  1  0.41843301  0.08058152  0.05560975  1
  Se  Se122  1  0.41323627  0.07629467  0.56135048  1
  Se  Se123  1  0.40817940  0.40903499  0.06159480  1
  Se  Se124  1  0.42185751  0.41727328  0.54353458  1
  Se  Se125  1  0.41986969  0.74762285  0.05757618  1
  Se  Se126  1  0.41255434  0.74439793  0.55673276  1
  Se  Se127  1  0.74503589  0.08245907  0.06912075  1
  Se  Se128  1  0.74348791  0.07361115  0.55143130  1
  Se  Se129  1  0.74259204  0.41000719  0.05887397  1
  Se  Se130  1  0.74986132  0.41679283  0.54724279  1
  Se  Se131  1  0.75452312  0.75365688  0.05088487  1
  Se  Se132  1  0.74915814  0.75085751  0.55227039  1
  Se  Se133  1  0.23445578  0.24196957  0.05349222  1
  Se  Se134  1  0.25243175  0.25156112  0.55410486  1
  Se  Se135  1  0.25573802  0.58598559  0.06260057  1
  Se  Se136  1  0.25004991  0.58206021  0.54601764  1
  Se  Se137  1  0.24283866  0.91246286  0.05575087  1
  Se  Se138  1  0.26035010  0.92108891  0.55750006  1
  Se  Se139  1  0.58036292  0.24951195  0.05751032  1
  Se  Se140  1  0.59007898  0.25186571  0.55656062  1
  Se  Se141  1  0.58689419  0.59087020  0.06299037  1
  Se  Se142  1  0.57999658  0.58203385  0.55044802  1
  Se  Se143  1  0.57970033  0.91083062  0.05440889  1
  Se  Se144  1  0.58752125  0.91876158  0.55642780  1
  Se  Se145  1  0.91527892  0.25579715  0.06073456  1
  Se  Se146  1  0.92199803  0.25553066  0.56236070  1
  Se  Se147  1  0.92327949  0.59815632  0.06172586  1
  Se  Se148  1  0.90541697  0.57082998  0.55400720  1
  Se  Se149  1  0.91545025  0.91240953  0.05247136  1
  Se  Se150  1  0.91121151  0.91414019  0.54407830  1
  Se  Se151  1  0.08508618  0.24825613  0.44858440  1
  Se  Se152  1  0.08544929  0.24517763  0.95057163  1
  Se  Se153  1  0.07743554  0.59437628  0.45549100  1
  Se  Se154  1  0.07088246  0.58804878  0.93819876  1
  Se  Se155  1  0.08175332  0.92258600  0.43462274  1
  Se  Se156  1  0.08418904  0.91468272  0.94412026  1
  Se  Se157  1  0.41009786  0.25763702  0.43428762  1
  Se  Se158  1  0.41882787  0.25477602  0.95405143  1
  Se  Se159  1  0.42129547  0.58386490  0.44125535  1
  Se  Se160  1  0.40705091  0.58488093  0.94127621  1
  Se  Se161  1  0.40922076  0.93216611  0.44127280  1
  Se  Se162  1  0.41360670  0.91492655  0.95319132  1
  Se  Se163  1  0.73854215  0.24922034  0.43512706  1
  Se  Se164  1  0.74687018  0.25762718  0.93813812  1
  Se  Se165  1  0.75234201  0.57807739  0.44673447  1
  Se  Se166  1  0.74068449  0.59027313  0.94132256  1
  Se  Se167  1  0.75406459  0.90574213  0.43971186  1
  Se  Se168  1  0.74000630  0.92328454  0.95887167  1
  Se  Se169  1  0.24833018  0.08560770  0.45532164  1
  Se  Se170  1  0.24778911  0.08150506  0.95193613  1
  Se  Se171  1  0.24627231  0.42067980  0.44504933  1
  Se  Se172  1  0.26097400  0.40118502  0.95008808  1
  Se  Se173  1  0.26192659  0.75041310  0.43417314  1
  Se  Se174  1  0.24779243  0.74614298  0.94725679  1
  Se  Se175  1  0.59022095  0.07583796  0.43682466  1
  Se  Se176  1  0.60249999  0.07261183  0.95102658  1
  Se  Se177  1  0.57884103  0.41713985  0.44251936  1
  Se  Se178  1  0.58962267  0.41398405  0.93793127  1
  Se  Se179  1  0.59345530  0.73994410  0.43392252  1
  Se  Se180  1  0.57425354  0.74980826  0.94909367  1
  Se  Se181  1  0.92167071  0.07773686  0.43352286  1
  Se  Se182  1  0.92316970  0.07317158  0.93790033  1
  Se  Se183  1  0.91378267  0.41225449  0.44896225  1
  Se  Se184  1  0.92509274  0.41189951  0.94577669  1
  Se  Se185  1  0.93027983  0.74289612  0.45218935  1
  Se  Se186  1  0.90908598  0.75433991  0.94142657  1
  Se  Se187  1  0.24615195  0.25320314  0.30498554  1
  Se  Se188  1  0.25045893  0.24112494  0.81679601  1
  Se  Se189  1  0.25017940  0.58430339  0.30661539  1
  Se  Se190  1  0.24200081  0.57775542  0.80761856  1
  Se  Se191  1  0.24942742  0.91909026  0.30643104  1
  Se  Se192  1  0.24900808  0.91564433  0.80354007  1
  Se  Se193  1  0.57511845  0.24430791  0.29420501  1
  Se  Se194  1  0.59830491  0.26357696  0.79916094  1
  Se  Se195  1  0.58704615  0.58162940  0.30344859  1
  Se  Se196  1  0.58455762  0.58932216  0.79620171  1
  Se  Se197  1  0.57920477  0.90452533  0.29598582  1
  Se  Se198  1  0.57560978  0.91114982  0.82009500  1
  Se  Se199  1  0.91246687  0.24452213  0.30447496  1
  Se  Se200  1  0.92349186  0.25860934  0.80146983  1
  Se  Se201  1  0.91352783  0.57377771  0.31823953  1
  Se  Se202  1  0.91554472  0.58692757  0.79879867  1
  Se  Se203  1  0.91969742  0.91384728  0.29998802  1
  Se  Se204  1  0.90374204  0.91577252  0.80504957  1
  Se  Se205  1  0.08327361  0.08199058  0.30143636  1
  Se  Se206  1  0.08827163  0.08909218  0.81095914  1
  Se  Se207  1  0.07755441  0.41776419  0.31063650  1
  Se  Se208  1  0.08632105  0.41226217  0.80504166  1
  Se  Se209  1  0.09478316  0.75808696  0.31019566  1
  Se  Se210  1  0.07416218  0.75119955  0.80075098  1
  Se  Se211  1  0.42004959  0.09371041  0.31175114  1
  Se  Se212  1  0.42674327  0.08723109  0.81259953  1
  Se  Se213  1  0.41280164  0.41612937  0.30337400  1
  Se  Se214  1  0.43014841  0.42364247  0.81084397  1
  Se  Se215  1  0.42897246  0.75865794  0.29401670  1
  Se  Se216  1  0.41718374  0.75428142  0.81514686  1
  Se  Se217  1  0.74772006  0.07369395  0.29638832  1
  Se  Se218  1  0.75989363  0.09692579  0.81337406  1
  Se  Se219  1  0.74401310  0.41004944  0.30606804  1
  Se  Se220  1  0.75343655  0.42261331  0.79945059  1
  Se  Se221  1  0.76094104  0.74120072  0.30395569  1
  Se  Se222  1  0.73953795  0.75311690  0.80769136  1
  Se  Se223  1  0.24229791  0.09775842  0.18672604  1
  Se  Se224  1  0.25333789  0.08236678  0.69796371  1
  Se  Se225  1  0.24811868  0.41638133  0.20081498  1
  Se  Se226  1  0.25157888  0.42186474  0.69205804  1
  Se  Se227  1  0.25348323  0.74957828  0.19781723  1
  Se  Se228  1  0.23869671  0.75710142  0.68806481  1
  Se  Se229  1  0.57506135  0.08573477  0.20244344  1
  Se  Se230  1  0.58119652  0.09256608  0.69275584  1
  Se  Se231  1  0.58134201  0.41460299  0.19730885  1
  Se  Se232  1  0.58659164  0.41650510  0.68736170  1
  Se  Se233  1  0.61361441  0.72495848  0.18966001  1
  Se  Se234  1  0.57718066  0.75383875  0.69984088  1
  Se  Se235  1  0.92072376  0.07807273  0.19670783  1
  Se  Se236  1  0.90869770  0.09537840  0.68886819  1
  Se  Se237  1  0.92004418  0.41221915  0.20436228  1
  Se  Se238  1  0.91956466  0.41780377  0.69564581  1
  Se  Se239  1  0.92187105  0.75342597  0.18854361  1
  Se  Se240  1  0.90890596  0.75170882  0.69410020  1
  Se  Se241  1  0.07322814  0.25642604  0.19946593  1
  Se  Se242  1  0.08941590  0.25265397  0.69860651  1
  Se  Se243  1  0.09157005  0.57622732  0.19238769  1
  Se  Se244  1  0.08093226  0.58437243  0.69521817  1
  Se  Se245  1  0.08296211  0.92061115  0.19656596  1
  Se  Se246  1  0.08819595  0.91255005  0.68454164  1
  Se  Se247  1  0.40162834  0.25501604  0.19736678  1
  Se  Se248  1  0.42944400  0.24214058  0.69214705  1
  Se  Se249  1  0.41464149  0.58530364  0.20412657  1
  Se  Se250  1  0.41769518  0.57315946  0.68735859  1
  Se  Se251  1  0.42330284  0.91225113  0.18687641  1
  Se  Se252  1  0.41430926  0.92146123  0.70362770  1
  Se  Se253  1  0.74861540  0.24856649  0.20033419  1
  Se  Se254  1  0.74995201  0.25771093  0.69561468  1
  Se  Se255  1  0.75791202  0.57574291  0.19958004  1
  Se  Se256  1  0.74468790  0.58801838  0.69059102  1
  Se  Se257  1  0.75156005  0.91150905  0.19366053  1
  Se  Se258  1  0.74891239  0.91913438  0.69080447  1
