# generated using pymatgen
data_In86Cu29Se144
_symmetry_space_group_name_H-M   'P 1'
_cell_length_a   17.57546378
_cell_length_b   17.57415288
_cell_length_c   23.43820186
_cell_angle_alpha   89.99951838
_cell_angle_beta   90.00043952
_cell_angle_gamma   90.01929418
_symmetry_Int_Tables_number   1
_chemical_formula_structural   In86Cu29Se144
_chemical_formula_sum   'In86 Cu29 Se144'
_cell_volume   7239.44811226
_cell_formula_units_Z   1
loop_
 _symmetry_equiv_pos_site_id
 _symmetry_equiv_pos_as_xyz
  1  'x, y, z'
loop_
 _atom_site_type_symbol
 _atom_site_label
 _atom_site_symmetry_multiplicity
 _atom_site_fract_x
 _atom_site_fract_y
 _atom_site_fract_z
 _atom_site_occupancy
  In  In0  1  0.01572358  0.17029719  0.12871067  1
  In  In1  1  -0.01673814  0.16388832  0.62151072  1
  In  In2  1  0.00238807  0.50819041  0.12980486  1
  In  In3  1  0.00239782  0.51569105  0.62639570  1
  In  In4  1  0.01293183  0.80416285  0.13160372  1
  In  In5  1  0.00499926  0.83062148  0.62377315  1
  In  In6  1  0.33949127  0.16426928  0.12922372  1
  In  In7  1  0.32948749  0.15122999  0.61908779  1
  In  In8  1  0.32851264  0.49922637  0.13029368  1
  In  In9  1  0.33327593  0.51717552  0.63405172  1
  In  In10  1  0.32427227  0.83993630  0.12640757  1
  In  In11  1  0.33546087  0.82805079  0.61997331  1
  In  In12  1  0.65426576  0.17843216  0.13608797  1
  In  In13  1  0.66836009  0.17195132  0.61856938  1
  In  In14  1  0.65092192  0.49646681  0.12375819  1
  In  In15  1  0.65860256  0.48140929  0.62724213  1
  In  In16  1  0.67090918  0.83223547  0.13371428  1
  In  In17  1  0.66732471  0.83650355  0.61445159  1
  In  In18  1  0.16729371  -0.01752648  0.37578339  1
  In  In19  1  0.15859161  -0.01273859  0.86268035  1
  In  In20  1  0.17653630  0.35021010  0.35764695  1
  In  In21  1  0.18490185  0.34138825  0.88129317  1
  In  In22  1  0.17432781  0.67377013  0.35450450  1
  In  In23  1  0.17067390  0.66598020  0.88212030  1
  In  In24  1  0.50070294  -0.00349595  0.37163207  1
  In  In25  1  0.49382698  0.01645497  0.87753947  1
  In  In26  1  0.49610833  0.32606823  0.36979021  1
  In  In27  1  0.49439665  0.33018951  0.88281284  1
  In  In28  1  0.49211938  0.68018737  0.37622924  1
  In  In29  1  0.48709644  0.66609112  0.87993473  1
  In  In30  1  0.82801338  0.01171378  0.38517702  1
  In  In31  1  0.83714487  -0.01326179  0.86916339  1
  In  In32  1  0.83147146  0.33512729  0.37209715  1
  In  In33  1  0.83059452  0.34843183  0.87351096  1
  In  In34  1  0.84242902  0.65654120  0.38448377  1
  In  In35  1  0.84645413  0.65180309  0.87224809  1
  In  In36  1  -0.01152595  0.17151710  0.37800799  1
  In  In37  1  0.01332286  0.16174626  0.87293961  1
  In  In38  1  -0.00096210  0.49523378  0.36439313  1
  In  In39  1  0.01512590  0.51571885  0.86675317  1
  In  In40  1  0.01497674  0.82129296  0.38609853  1
  In  In41  1  0.01017256  0.83060582  0.86978499  1
  In  In42  1  0.34827993  0.17245377  0.37171390  1
  In  In43  1  0.34319766  0.17534688  0.87471128  1
  In  In44  1  0.33449123  0.51148451  0.36260282  1
  In  In45  1  0.31716569  0.53121207  0.90856583  1
  In  In46  1  0.32801377  0.83210794  0.37019216  1
  In  In47  1  0.31205233  0.80695192  0.86033983  1
  In  In48  1  0.66642271  0.16501013  0.37438633  1
  In  In49  1  0.64500901  0.16673767  0.87562674  1
  In  In50  1  0.68074794  0.50368148  0.37449716  1
  In  In51  1  0.66869439  0.48509505  0.87607005  1
  In  In52  1  0.65725747  0.84508488  0.38287754  1
  In  In53  1  0.66412449  0.83658903  0.86963408  1
  In  In54  1  0.17963663  0.00490796  0.12294718  1
  In  In55  1  0.18505025  -0.01790061  0.63157071  1
  In  In56  1  0.15158879  0.35805070  0.15020742  1
  In  In57  1  0.17838709  0.33884111  0.62405296  1
  In  In58  1  0.16808031  0.66749749  0.12007101  1
  In  In59  1  0.15802132  0.66859462  0.63008643  1
  In  In60  1  0.48962312  0.00927025  0.13054482  1
  In  In61  1  0.48787900  -0.01107825  0.61576339  1
  In  In62  1  0.49853595  0.33228296  0.12998617  1
  In  In63  1  0.51432659  0.34194782  0.62283979  1
  In  In64  1  0.48891606  0.64012188  0.10808023  1
  In  In65  1  0.48184165  0.66954830  0.62531904  1
  In  In66  1  0.83132109  -0.01772050  0.13177262  1
  In  In67  1  0.83580984  0.00256440  0.62042688  1
  In  In68  1  0.83537395  0.33230797  0.13704029  1
  In  In69  1  0.82378207  0.31895695  0.61516635  1
  In  In70  1  0.83527222  0.67534568  0.12808205  1
  In  In71  1  0.84282287  0.67599127  0.61636131  1
  In  In72  1  -0.00384733  0.00156472  0.25721709  1
  In  In73  1  0.18494181  0.17286364  0.00230768  1
  In  In74  1  0.66666971  0.66187191  0.75002750  1
  In  In75  1  -0.00446532  0.32794005  0.75017944  1
  In  In76  1  0.82998254  0.16596952  0.00638274  1
  In  In77  1  0.66630739  0.00203516  0.73961941  1
  In  In78  1  0.83412116  0.50296903  0.00371763  1
  In  In79  1  0.15463801  0.16089864  0.49210205  1
  In  In80  1  0.83398967  0.83170827  0.00005649  1
  In  In81  1  0.49788150  0.50462299  0.50137263  1
  In  In82  1  0.49360362  0.83276894  -0.00490527  1
  In  In83  1  0.34251459  0.34366381  0.75265961  1
  In  In84  1  0.66197263  0.66852030  0.25066604  1
  In  In85  1  0.16426291  0.50698859  0.50211606  1
  Cu  Cu86  1  0.49657775  0.17371062  0.74953241  1
  Cu  Cu87  1  0.85021907  0.82471993  0.74768528  1
  Cu  Cu88  1  0.00226874  0.66727891  0.49942389  1
  Cu  Cu89  1  0.66554368  0.00617644  0.49850348  1
  Cu  Cu90  1  0.17305715  0.16816602  0.25138091  1
  Cu  Cu91  1  0.83311894  0.49672856  0.74621468  1
  Cu  Cu92  1  0.49226337  0.83065363  0.24881247  1
  Cu  Cu93  1  -0.00726444  0.33968291  0.49265029  1
  Cu  Cu94  1  0.82526634  0.16669511  0.74392139  1
  Cu  Cu95  1  0.33197415  -0.00515170  -0.00293923  1
  Cu  Cu96  1  0.66912144  0.66714394  0.49793206  1
  Cu  Cu97  1  0.00145420  -0.00548075  0.50388449  1
  Cu  Cu98  1  0.50486059  0.16059459  0.25228369  1
  Cu  Cu99  1  0.83097616  0.16568251  0.25651191  1
  Cu  Cu100  1  0.16959120  0.82743776  0.74626762  1
  Cu  Cu101  1  0.65928713  0.32633136  0.00239503  1
  Cu  Cu102  1  0.00816127  0.34412356  0.00594500  1
  Cu  Cu103  1  0.83590531  0.50100466  0.25374387  1
  Cu  Cu104  1  0.66920759  0.33021803  0.49609084  1
  Cu  Cu105  1  0.82874875  0.83692073  0.26134241  1
  Cu  Cu106  1  0.49079427  0.83410354  0.74598138  1
  Cu  Cu107  1  0.00180730  -0.00799102  -0.00526139  1
  Cu  Cu108  1  0.16411184  0.16054453  0.74489704  1
  Cu  Cu109  1  0.16781239  0.83477165  0.24694742  1
  Cu  Cu110  1  0.33863907  0.33369291  0.49378885  1
  Cu  Cu111  1  0.33971468  -0.00586704  0.49604785  1
  Cu  Cu112  1  0.49963708  0.49639591  0.24552315  1
  Cu  Cu113  1  0.65708697  0.00604421  0.00672394  1
  Cu  Cu114  1  0.33757817  0.33831518  0.01144572  1
  Se  Se115  1  0.08021150  0.07993815  0.05188251  1
  Se  Se116  1  0.08269098  0.07400926  0.56576009  1
  Se  Se117  1  0.08788369  0.42348398  0.06302652  1
  Se  Se118  1  0.07490779  0.40855860  0.55912879  1
  Se  Se119  1  0.09663624  0.76152609  0.04958921  1
  Se  Se120  1  0.08736968  0.74826266  0.55329105  1
  Se  Se121  1  0.41029016  0.08031568  0.05291317  1
  Se  Se122  1  0.41839128  0.08438062  0.54690501  1
  Se  Se123  1  0.42282172  0.42236247  0.06233362  1
  Se  Se124  1  0.40498730  0.41522186  0.56231445  1
  Se  Se125  1  0.40556552  0.74694174  0.05758054  1
  Se  Se126  1  0.42992905  0.76020962  0.55050565  1
  Se  Se127  1  0.74400892  0.07564015  0.06805616  1
  Se  Se128  1  0.75140312  0.08573555  0.55351931  1
  Se  Se129  1  0.74717083  0.40341558  0.05969434  1
  Se  Se130  1  0.74675196  0.41549419  0.55299660  1
  Se  Se131  1  0.73811497  0.74348891  0.05669052  1
  Se  Se132  1  0.75282271  0.75268799  0.54969098  1
  Se  Se133  1  0.25086941  0.26538981  0.07353745  1
  Se  Se134  1  0.25243829  0.25231838  0.55010203  1
  Se  Se135  1  0.25051464  0.57747416  0.05715821  1
  Se  Se136  1  0.25800699  0.59610015  0.55773769  1
  Se  Se137  1  0.24563051  0.91642721  0.05011247  1
  Se  Se138  1  0.25326008  0.91320227  0.54933221  1
  Se  Se139  1  0.57653732  0.24549827  0.05727395  1
  Se  Se140  1  0.58151088  0.25261341  0.55062205  1
  Se  Se141  1  0.59691984  0.58477224  0.04735620  1
  Se  Se142  1  0.59055934  0.59046723  0.56307105  1
  Se  Se143  1  0.58326869  0.91688409  0.06312058  1
  Se  Se144  1  0.58255352  0.91881381  0.54880867  1
  Se  Se145  1  0.92809488  0.25818252  0.06006362  1
  Se  Se146  1  0.91693074  0.24860917  0.54589682  1
  Se  Se147  1  0.92306966  0.59921009  0.05638070  1
  Se  Se148  1  0.91850416  0.58144446  0.55030554  1
  Se  Se149  1  0.92909004  0.91602904  0.06214360  1
  Se  Se150  1  0.91620896  0.91198472  0.55653086  1
  Se  Se151  1  0.08297511  0.26829617  0.43369626  1
  Se  Se152  1  0.08175008  0.25829759  0.94422446  1
  Se  Se153  1  0.07911184  0.58928419  0.43443831  1
  Se  Se154  1  0.08380861  0.58060529  0.94791807  1
  Se  Se155  1  0.08914733  0.91345723  0.45360917  1
  Se  Se156  1  0.08802883  0.91312278  0.94241813  1
  Se  Se157  1  0.42469832  0.24825007  0.44841156  1
  Se  Se158  1  0.41203271  0.24939897  0.95485524  1
  Se  Se159  1  0.40471492  0.59233929  0.44337809  1
  Se  Se160  1  0.43371837  0.58487462  0.96243894  1
  Se  Se161  1  0.41757308  0.91017773  0.43851176  1
  Se  Se162  1  0.40566765  0.91777969  0.93028183  1
  Se  Se163  1  0.75285515  0.24840798  0.44154597  1
  Se  Se164  1  0.74539607  0.25449785  0.94021995  1
  Se  Se165  1  0.75316843  0.57837236  0.45230371  1
  Se  Se166  1  0.74465754  0.58894159  0.93937685  1
  Se  Se167  1  0.75051988  0.91867894  0.44961821  1
  Se  Se168  1  0.73761862  0.92857603  0.94453453  1
  Se  Se169  1  0.25664026  0.07725726  0.43800215  1
  Se  Se170  1  0.25299012  0.07661574  0.93335190  1
  Se  Se171  1  0.25764295  0.41845246  0.44028187  1
  Se  Se172  1  0.24830693  0.41849896  0.96106511  1
  Se  Se173  1  0.23884854  0.74978538  0.43426384  1
  Se  Se174  1  0.24959066  0.75540440  0.95008221  1
  Se  Se175  1  0.58027119  0.08307683  0.44158331  1
  Se  Se176  1  0.57512768  0.08872191  0.95312634  1
  Se  Se177  1  0.58768619  0.41527930  0.43898952  1
  Se  Se178  1  0.58258281  0.41369055  0.94838833  1
  Se  Se179  1  0.58255330  0.74855540  0.44674067  1
  Se  Se180  1  0.59346948  0.74686152  0.93938944  1
  Se  Se181  1  0.92284613  0.08401076  0.45217221  1
  Se  Se182  1  0.91972166  0.07641145  0.94117315  1
  Se  Se183  1  0.91346360  0.42444738  0.43872940  1
  Se  Se184  1  0.92833849  0.41681024  0.94114998  1
  Se  Se185  1  0.91497791  0.75251737  0.44997180  1
  Se  Se186  1  0.92427461  0.74347333  0.94065377  1
  Se  Se187  1  0.25824184  0.24976294  0.30428995  1
  Se  Se188  1  0.24294736  0.24495167  0.80428632  1
  Se  Se189  1  0.23080876  0.56349214  0.29606998  1
  Se  Se190  1  0.26091285  0.58530142  0.81678573  1
  Se  Se191  1  0.25066679  0.91991506  0.29831561  1
  Se  Se192  1  0.25385745  0.91471647  0.79760619  1
  Se  Se193  1  0.58646185  0.24866446  0.30357752  1
  Se  Se194  1  0.57648544  0.25633018  0.80529786  1
  Se  Se195  1  0.57348213  0.57698266  0.31251914  1
  Se  Se196  1  0.58028462  0.57852043  0.81493216  1
  Se  Se197  1  0.58082765  0.90988039  0.30137734  1
  Se  Se198  1  0.57231562  0.91719781  0.80400855  1
  Se  Se199  1  0.91728196  0.25218870  0.30284847  1
  Se  Se200  1  0.90484637  0.23836846  0.81319440  1
  Se  Se201  1  0.91643314  0.59044418  0.30295586  1
  Se  Se202  1  0.92107698  0.57925289  0.79471657  1
  Se  Se203  1  0.91360440  0.91170545  0.32152856  1
  Se  Se204  1  0.92564419  0.91504027  0.80092825  1
  Se  Se205  1  0.09131519  0.09139204  0.31510232  1
  Se  Se206  1  0.07820390  0.07874476  0.79706184  1
  Se  Se207  1  0.08401989  0.42177882  0.29295399  1
  Se  Se208  1  0.09282174  0.41151434  0.80771822  1
  Se  Se209  1  0.07616041  0.75682796  0.29777962  1
  Se  Se210  1  0.09104165  0.74365953  0.80431635  1
  Se  Se211  1  0.41624049  0.07886111  0.30256551  1
  Se  Se212  1  0.41376958  0.08860212  0.80132081  1
  Se  Se213  1  0.41794543  0.41679696  0.30444972  1
  Se  Se214  1  0.40182897  0.42668918  0.83143360  1
  Se  Se215  1  0.40886481  0.74545615  0.29965107  1
  Se  Se216  1  0.41806853  0.74203675  0.79965532  1
  Se  Se217  1  0.74935415  0.07803783  0.30592933  1
  Se  Se218  1  0.74959175  0.08800039  0.81135885  1
  Se  Se219  1  0.74793898  0.41699918  0.30103657  1
  Se  Se220  1  0.74778552  0.41421894  0.79739146  1
  Se  Se221  1  0.74994666  0.75037905  0.31832602  1
  Se  Se222  1  0.76274471  0.75398457  0.80884274  1
  Se  Se223  1  0.25285348  0.08280293  0.19800040  1
  Se  Se224  1  0.25501924  0.08002795  0.69741663  1
  Se  Se225  1  0.26863241  0.40529072  0.20406028  1
  Se  Se226  1  0.24073914  0.43027013  0.69793961  1
  Se  Se227  1  0.24972597  0.74932404  0.19412147  1
  Se  Se228  1  0.25457001  0.74665382  0.69163358  1
  Se  Se229  1  0.58717857  0.07570335  0.19822232  1
  Se  Se230  1  0.57045311  0.09067759  0.68530866  1
  Se  Se231  1  0.58720851  0.41141895  0.19968721  1
  Se  Se232  1  0.57184235  0.42133904  0.70386947  1
  Se  Se233  1  0.56759839  0.74766370  0.18618239  1
  Se  Se234  1  0.58202191  0.75929919  0.69032685  1
  Se  Se235  1  0.91012816  0.09034190  0.18969592  1
  Se  Se236  1  0.91183174  0.08195269  0.69675007  1
  Se  Se237  1  0.92010142  0.42089469  0.19725471  1
  Se  Se238  1  0.91048649  0.41422337  0.68406611  1
  Se  Se239  1  0.90847230  0.75687341  0.20201514  1
  Se  Se240  1  0.92808312  0.73964161  0.69326367  1
  Se  Se241  1  0.08078354  0.24966695  0.20616653  1
  Se  Se242  1  0.08907913  0.24362893  0.68441620  1
  Se  Se243  1  0.06807479  0.61021844  0.19080452  1
  Se  Se244  1  0.09150941  0.57455935  0.69952969  1
  Se  Se245  1  0.08434728  0.91916293  0.18909737  1
  Se  Se246  1  0.08530012  0.91361371  0.69524350  1
  Se  Se247  1  0.42078497  0.24536825  0.19973318  1
  Se  Se248  1  0.41598460  0.24777851  0.68396738  1
  Se  Se249  1  0.41895833  0.58473229  0.19561609  1
  Se  Se250  1  0.44296169  0.56520681  0.69623043  1
  Se  Se251  1  0.41139082  0.91808197  0.19540210  1
  Se  Se252  1  0.40954724  0.91830399  0.69257035  1
  Se  Se253  1  0.74900156  0.25033831  0.20194157  1
  Se  Se254  1  0.74307677  0.25218924  0.69432504  1
  Se  Se255  1  0.75280449  0.57631210  0.18993155  1
  Se  Se256  1  0.75585869  0.57850510  0.68410143  1
  Se  Se257  1  0.74484269  0.91666970  0.20650701  1
  Se  Se258  1  0.76069313  0.90314150  0.69212440  1
