# generated using pymatgen
data_In86Cu29Se144
_symmetry_space_group_name_H-M   'P 1'
_cell_length_a   17.58465921
_cell_length_b   17.58254457
_cell_length_c   23.44104006
_cell_angle_alpha   89.99407118
_cell_angle_beta   90.02750371
_cell_angle_gamma   89.98292514
_symmetry_Int_Tables_number   1
_chemical_formula_structural   In86Cu29Se144
_chemical_formula_sum   'In86 Cu29 Se144'
_cell_volume   7247.57116762
_cell_formula_units_Z   1
loop_
 _symmetry_equiv_pos_site_id
 _symmetry_equiv_pos_as_xyz
  1  'x, y, z'
loop_
 _atom_site_type_symbol
 _atom_site_label
 _atom_site_symmetry_multiplicity
 _atom_site_fract_x
 _atom_site_fract_y
 _atom_site_fract_z
 _atom_site_occupancy
  In  In0  1  0.01200405  0.16676952  0.12893143  1
  In  In1  1  0.01076278  0.16945933  0.62396252  1
  In  In2  1  -0.00902331  0.51070886  0.13026837  1
  In  In3  1  -0.00113028  0.49931031  0.63107013  1
  In  In4  1  -0.00953633  0.82328301  0.11798083  1
  In  In5  1  -0.01677647  0.83393986  0.62314496  1
  In  In6  1  0.33891022  0.16625358  0.12124758  1
  In  In7  1  0.33069228  0.15897937  0.62188647  1
  In  In8  1  0.32985374  0.50010697  0.13500867  1
  In  In9  1  0.33578796  0.49185928  0.62161264  1
  In  In10  1  0.31966260  0.84092208  0.12152314  1
  In  In11  1  0.34924471  0.83614713  0.62721663  1
  In  In12  1  0.66197321  0.17300729  0.13691375  1
  In  In13  1  0.65770443  0.17514311  0.62917401  1
  In  In14  1  0.67684701  0.49714149  0.12673677  1
  In  In15  1  0.65774231  0.49990133  0.61997947  1
  In  In16  1  0.69664371  0.81447496  0.15411682  1
  In  In17  1  0.66814649  0.83742417  0.62079449  1
  In  In18  1  0.17987078  0.00933771  0.37617078  1
  In  In19  1  0.18027666  -0.01191761  0.88899419  1
  In  In20  1  0.15733752  0.31144437  0.36307750  1
  In  In21  1  0.15872086  0.33125602  0.87752597  1
  In  In22  1  0.16022096  0.65944153  0.36196412  1
  In  In23  1  0.16080186  0.68637373  0.87873949  1
  In  In24  1  0.50751379  -0.00794656  0.38478059  1
  In  In25  1  0.51354597  -0.00021907  0.86736927  1
  In  In26  1  0.49996531  0.33276376  0.37577973  1
  In  In27  1  0.49201685  0.31657562  0.87625397  1
  In  In28  1  0.50358774  0.66785365  0.37017192  1
  In  In29  1  0.49783697  0.67985119  0.87357627  1
  In  In30  1  0.81784933  -0.00241773  0.36713334  1
  In  In31  1  0.81647783  0.00186692  0.87563273  1
  In  In32  1  0.84381934  0.33008684  0.35895259  1
  In  In33  1  0.84020621  0.33518380  0.87317273  1
  In  In34  1  0.83668687  0.67939019  0.36576812  1
  In  In35  1  0.83646687  0.65307961  0.88666338  1
  In  In36  1  0.00975466  0.17859570  0.37301019  1
  In  In37  1  0.00269163  0.17887671  0.87724630  1
  In  In38  1  -0.00478502  0.49628719  0.37055061  1
  In  In39  1  -0.01348723  0.49109583  0.87375466  1
  In  In40  1  -0.00497628  0.82187897  0.37099768  1
  In  In41  1  0.00147513  0.82706552  0.87907591  1
  In  In42  1  0.32557897  0.17871270  0.38104150  1
  In  In43  1  0.35111677  0.14611517  0.89650280  1
  In  In44  1  0.33883045  0.50440862  0.36919175  1
  In  In45  1  0.33942724  0.50318270  0.87697852  1
  In  In46  1  0.34759349  0.84186290  0.37300381  1
  In  In47  1  0.32908059  0.83246035  0.87264104  1
  In  In48  1  0.66100996  0.15487192  0.36389187  1
  In  In49  1  0.65536229  0.15693094  0.86978234  1
  In  In50  1  0.66004999  0.48944393  0.36762183  1
  In  In51  1  0.68389804  0.50070898  0.87721171  1
  In  In52  1  0.66747735  0.83350191  0.37155496  1
  In  In53  1  0.66406157  0.84500853  0.87765004  1
  In  In54  1  0.17798425  0.00326205  0.11025588  1
  In  In55  1  0.16899060  0.01773834  0.62631498  1
  In  In56  1  0.16845297  0.31957948  0.14343476  1
  In  In57  1  0.16311931  0.32393094  0.62557538  1
  In  In58  1  0.15649597  0.67354043  0.13009689  1
  In  In59  1  0.16132857  0.65579869  0.62782565  1
  In  In60  1  0.50075281  0.01448077  0.11800987  1
  In  In61  1  0.49966771  0.00069099  0.62519622  1
  In  In62  1  0.51113588  0.32340745  0.13320112  1
  In  In63  1  0.50775419  0.34100902  0.61552828  1
  In  In64  1  0.50916311  0.66120562  0.13504229  1
  In  In65  1  0.50623513  0.66969977  0.61197935  1
  In  In66  1  0.83069182  -0.01697969  0.12797202  1
  In  In67  1  0.83063382  -0.01536590  0.62189996  1
  In  In68  1  0.82012497  0.34050165  0.13694167  1
  In  In69  1  0.83403573  0.32814697  0.63078773  1
  In  In70  1  0.83608985  0.67120505  0.12470167  1
  In  In71  1  0.82773625  0.67817545  0.62366279  1
  In  In72  1  0.32823467  0.66938185  0.75420257  1
  In  In73  1  0.32654728  0.32665662  0.74525345  1
  In  In74  1  0.83604838  0.16580615  0.00130090  1
  In  In75  1  0.83321090  0.16509815  0.49269105  1
  In  In76  1  -0.00279418  0.00559776  0.74699545  1
  In  In77  1  0.33666132  0.00301508  0.24380294  1
  In  In78  1  0.83206469  0.49821639  0.48486962  1
  In  In79  1  0.16226370  0.49694520  0.00356038  1
  In  In80  1  0.16976246  0.83652244  0.49431084  1
  In  In81  1  -0.00130863  -0.00395849  0.24746948  1
  In  In82  1  0.66667937  0.66712901  0.75010436  1
  In  In83  1  0.51325062  0.49318078  0.01170022  1
  In  In84  1  0.17121721  0.49329887  0.50097753  1
  In  In85  1  0.50838233  0.83646445  0.00108178  1
  Cu  Cu86  1  0.83759138  0.49594111  0.75368167  1
  Cu  Cu87  1  0.34222207  0.67170345  0.49086830  1
  Cu  Cu88  1  0.49994833  0.49696458  0.25024655  1
  Cu  Cu89  1  0.00033025  -0.00384763  0.00497350  1
  Cu  Cu90  1  0.33870497  0.33444575  0.49788795  1
  Cu  Cu91  1  0.17224349  0.49743447  0.25015296  1
  Cu  Cu92  1  0.50314534  0.83515880  0.25547799  1
  Cu  Cu93  1  0.82605083  0.16756798  0.75286432  1
  Cu  Cu94  1  0.33771181  0.67078302  0.00248785  1
  Cu  Cu95  1  0.83134314  0.83068905  0.74863650  1
  Cu  Cu96  1  -0.00651505  0.66857012  0.49798549  1
  Cu  Cu97  1  0.66447880  0.32503367  0.00591199  1
  Cu  Cu98  1  0.16302653  0.82975393  0.24247393  1
  Cu  Cu99  1  0.49244112  0.16759252  0.25399238  1
  Cu  Cu100  1  0.83390227  0.50950789  0.25052683  1
  Cu  Cu101  1  0.50152383  0.16372966  0.75067431  1
  Cu  Cu102  1  0.14986338  0.50310847  0.75473520  1
  Cu  Cu103  1  0.16606474  0.16924870  0.75366531  1
  Cu  Cu104  1  -0.00435740  0.33864676  0.00347741  1
  Cu  Cu105  1  0.33876542  0.00705248  0.50074626  1
  Cu  Cu106  1  -0.00160982  0.66883105  0.00461142  1
  Cu  Cu107  1  -0.00183718  0.00165699  0.50138611  1
  Cu  Cu108  1  0.33175289  0.32452090  0.00801528  1
  Cu  Cu109  1  0.66620606  -0.00171036  0.00109414  1
  Cu  Cu110  1  0.50268714  0.49831545  0.74310467  1
  Cu  Cu111  1  0.16403082  0.84049788  0.75468053  1
  Cu  Cu112  1  0.66128815  0.67295652  0.49485616  1
  Cu  Cu113  1  0.66405255  0.00066589  0.49748344  1
  Cu  Cu114  1  0.66704146  0.33093694  0.49439134  1
  Se  Se115  1  0.08122754  0.08594695  0.05240487  1
  Se  Se116  1  0.08344247  0.08466672  0.55114263  1
  Se  Se117  1  0.07842863  0.41047958  0.06852824  1
  Se  Se118  1  0.07358324  0.40985707  0.55812149  1
  Se  Se119  1  0.08809399  0.75173315  0.05136890  1
  Se  Se120  1  0.07947302  0.74563847  0.55709514  1
  Se  Se121  1  0.39854549  0.06880774  0.05131909  1
  Se  Se122  1  0.42369566  0.08914239  0.55374371  1
  Se  Se123  1  0.41121889  0.40984725  0.06482866  1
  Se  Se124  1  0.41986323  0.42252384  0.54872255  1
  Se  Se125  1  0.41997031  0.74491208  0.06389236  1
  Se  Se126  1  0.41743615  0.75489934  0.55024068  1
  Se  Se127  1  0.74467651  0.08053740  0.06270322  1
  Se  Se128  1  0.74529793  0.08033120  0.55879915  1
  Se  Se129  1  0.74992149  0.41046447  0.05407033  1
  Se  Se130  1  0.74884151  0.41033136  0.55444386  1
  Se  Se131  1  0.75480158  0.76377942  0.06199618  1
  Se  Se132  1  0.74736469  0.75180150  0.55044821  1
  Se  Se133  1  0.24261702  0.25061871  0.06231998  1
  Se  Se134  1  0.25637696  0.25631637  0.55774061  1
  Se  Se135  1  0.25560370  0.58877505  0.05932087  1
  Se  Se136  1  0.26166191  0.59489740  0.55484326  1
  Se  Se137  1  0.25581970  0.91765981  0.04251858  1
  Se  Se138  1  0.25421183  0.92493300  0.55948710  1
  Se  Se139  1  0.58180456  0.24103172  0.05725269  1
  Se  Se140  1  0.58507805  0.24911978  0.54993258  1
  Se  Se141  1  0.59915662  0.59579397  0.05879366  1
  Se  Se142  1  0.58443598  0.58105802  0.54591121  1
  Se  Se143  1  0.59501625  0.91848091  0.06736112  1
  Se  Se144  1  0.58184245  0.91843042  0.55401477  1
  Se  Se145  1  0.91795936  0.25691739  0.06528185  1
  Se  Se146  1  0.92071466  0.25357474  0.55611770  1
  Se  Se147  1  0.91390457  0.58264033  0.05324331  1
  Se  Se148  1  0.91559578  0.58447814  0.55670547  1
  Se  Se149  1  0.91181888  0.91338503  0.05147623  1
  Se  Se150  1  0.91309056  0.91392737  0.54658681  1
  Se  Se151  1  0.09374970  0.24481762  0.44813826  1
  Se  Se152  1  0.08051792  0.25499524  0.95263827  1
  Se  Se153  1  0.07786061  0.58754943  0.44317528  1
  Se  Se154  1  0.07652199  0.58774885  0.94062952  1
  Se  Se155  1  0.07649662  0.92448427  0.43503090  1
  Se  Se156  1  0.08117281  0.91216531  0.94786976  1
  Se  Se157  1  0.42179778  0.24805429  0.44752049  1
  Se  Se158  1  0.42297103  0.24667614  0.95793861  1
  Se  Se159  1  0.42135611  0.58305883  0.44035068  1
  Se  Se160  1  0.42065524  0.58793478  0.94759726  1
  Se  Se161  1  0.41727941  0.91537406  0.45247440  1
  Se  Se162  1  0.41865306  0.91948311  0.93672598  1
  Se  Se163  1  0.74752641  0.25709081  0.43117611  1
  Se  Se164  1  0.74296842  0.24970502  0.93884889  1
  Se  Se165  1  0.74073269  0.59327957  0.43278730  1
  Se  Se166  1  0.74498406  0.58155551  0.95435795  1
  Se  Se167  1  0.74783572  0.91800888  0.44392865  1
  Se  Se168  1  0.75198371  0.91495224  0.95064276  1
  Se  Se169  1  0.25069560  0.08883341  0.45170327  1
  Se  Se170  1  0.22571519  0.10664029  0.94338284  1
  Se  Se171  1  0.25551274  0.40890727  0.43529464  1
  Se  Se172  1  0.26140631  0.40952124  0.94437559  1
  Se  Se173  1  0.25296111  0.74268168  0.43239853  1
  Se  Se174  1  0.25486410  0.75207234  0.94785559  1
  Se  Se175  1  0.58531658  0.08953388  0.44583287  1
  Se  Se176  1  0.58208885  0.07986285  0.94685350  1
  Se  Se177  1  0.58279611  0.41816966  0.44529030  1
  Se  Se178  1  0.58834753  0.40485257  0.93957631  1
  Se  Se179  1  0.57863171  0.75640566  0.44122281  1
  Se  Se180  1  0.59666906  0.73945790  0.94359793  1
  Se  Se181  1  0.92319465  0.07528671  0.43235244  1
  Se  Se182  1  0.92426916  0.07426247  0.93855085  1
  Se  Se183  1  0.92697504  0.39920680  0.44118408  1
  Se  Se184  1  0.90922725  0.41743313  0.95048064  1
  Se  Se185  1  0.91123737  0.75265119  0.44624062  1
  Se  Se186  1  0.91495261  0.74954893  0.94780612  1
  Se  Se187  1  0.25718330  0.24616830  0.29880933  1
  Se  Se188  1  0.25087803  0.24176325  0.81683551  1
  Se  Se189  1  0.25534018  0.58559371  0.29929579  1
  Se  Se190  1  0.23652291  0.57690092  0.81439846  1
  Se  Se191  1  0.24312224  0.90954417  0.30400916  1
  Se  Se192  1  0.25041300  0.92098339  0.80498442  1
  Se  Se193  1  0.58047211  0.25069935  0.30413305  1
  Se  Se194  1  0.58112626  0.25187179  0.80338620  1
  Se  Se195  1  0.58420141  0.58169823  0.30179413  1
  Se  Se196  1  0.57455763  0.57644185  0.81099891  1
  Se  Se197  1  0.58398134  0.92348405  0.30572299  1
  Se  Se198  1  0.58820215  0.91123348  0.79944613  1
  Se  Se199  1  0.93426587  0.24977992  0.29485503  1
  Se  Se200  1  0.91555417  0.24650034  0.80344014  1
  Se  Se201  1  0.92085029  0.58794604  0.30458860  1
  Se  Se202  1  0.91460019  0.58563471  0.80676120  1
  Se  Se203  1  0.90649952  0.90523160  0.30349866  1
  Se  Se204  1  0.90978905  0.91491787  0.80901293  1
  Se  Se205  1  0.09334907  0.08505889  0.30474208  1
  Se  Se206  1  0.08766505  0.08465440  0.81311591  1
  Se  Se207  1  0.08795522  0.41916285  0.30684348  1
  Se  Se208  1  0.07676532  0.41167528  0.80796524  1
  Se  Se209  1  0.07972606  0.74979541  0.29830756  1
  Se  Se210  1  0.07942549  0.75313807  0.80128919  1
  Se  Se211  1  0.41868613  0.08345457  0.31606882  1
  Se  Se212  1  0.41805926  0.08636221  0.80891925  1
  Se  Se213  1  0.41771413  0.41338848  0.30412977  1
  Se  Se214  1  0.41979901  0.42096816  0.80408191  1
  Se  Se215  1  0.41493444  0.75107156  0.30302888  1
  Se  Se216  1  0.42624397  0.76521690  0.79893519  1
  Se  Se217  1  0.76053374  0.09341848  0.29697801  1
  Se  Se218  1  0.74314205  0.07948381  0.80018102  1
  Se  Se219  1  0.75446080  0.41840098  0.30067397  1
  Se  Se220  1  0.75082710  0.41352015  0.80424888  1
  Se  Se221  1  0.74235341  0.74865479  0.29973240  1
  Se  Se222  1  0.75675282  0.75122879  0.81371682  1
  Se  Se223  1  0.23952680  0.09019191  0.19068412  1
  Se  Se224  1  0.25168962  0.08852999  0.70045209  1
  Se  Se225  1  0.25563419  0.40989003  0.20249767  1
  Se  Se226  1  0.23558307  0.42896644  0.69359153  1
  Se  Se227  1  0.25362646  0.74966271  0.19298301  1
  Se  Se228  1  0.23980660  0.75844719  0.68927811  1
  Se  Se229  1  0.57401060  0.08433402  0.19852322  1
  Se  Se230  1  0.58501176  0.08191201  0.69546399  1
  Se  Se231  1  0.58733188  0.41915517  0.19464794  1
  Se  Se232  1  0.58673384  0.41429628  0.69304323  1
  Se  Se233  1  0.58507276  0.74650239  0.20580280  1
  Se  Se234  1  0.57587842  0.75389466  0.68946455  1
  Se  Se235  1  0.91060019  0.08607884  0.18670601  1
  Se  Se236  1  0.90447704  0.09219145  0.68566927  1
  Se  Se237  1  0.91445545  0.42172509  0.19817079  1
  Se  Se238  1  0.91780614  0.41279391  0.69708942  1
  Se  Se239  1  0.92652918  0.74358201  0.19528730  1
  Se  Se240  1  0.91556560  0.74696341  0.69705423  1
  Se  Se241  1  0.06273199  0.25922904  0.20689114  1
  Se  Se242  1  0.08125099  0.25104052  0.70069832  1
  Se  Se243  1  0.08648400  0.58058947  0.19771613  1
  Se  Se244  1  0.07274867  0.58979553  0.70021543  1
  Se  Se245  1  0.09063425  0.91490458  0.18087400  1
  Se  Se246  1  0.08654456  0.91318646  0.68596842  1
  Se  Se247  1  0.41353545  0.24837707  0.19530729  1
  Se  Se248  1  0.42626281  0.24676402  0.68750335  1
  Se  Se249  1  0.41672617  0.58363791  0.19912854  1
  Se  Se250  1  0.41994466  0.58242004  0.68899357  1
  Se  Se251  1  0.42617962  0.90884410  0.18743804  1
  Se  Se252  1  0.40474693  0.93395458  0.69502658  1
  Se  Se253  1  0.75130639  0.24634178  0.20358265  1
  Se  Se254  1  0.74507475  0.25280564  0.69800545  1
  Se  Se255  1  0.75065828  0.58846004  0.19415905  1
  Se  Se256  1  0.75700271  0.57359595  0.69003307  1
  Se  Se257  1  0.73620044  0.93737339  0.20530125  1
  Se  Se258  1  0.74791210  0.91420067  0.69637265  1
