# generated using pymatgen
data_In86Cu29Se144
_symmetry_space_group_name_H-M   'P 1'
_cell_length_a   17.57207336
_cell_length_b   17.57517642
_cell_length_c   23.41762574
_cell_angle_alpha   89.99770713
_cell_angle_beta   90.00611647
_cell_angle_gamma   89.98030574
_symmetry_Int_Tables_number   1
_chemical_formula_structural   In86Cu29Se144
_chemical_formula_sum   'In86 Cu29 Se144'
_cell_volume   7232.11849248
_cell_formula_units_Z   1
loop_
 _symmetry_equiv_pos_site_id
 _symmetry_equiv_pos_as_xyz
  1  'x, y, z'
loop_
 _atom_site_type_symbol
 _atom_site_label
 _atom_site_symmetry_multiplicity
 _atom_site_fract_x
 _atom_site_fract_y
 _atom_site_fract_z
 _atom_site_occupancy
  In  In0  1  0.01571495  0.16248353  0.12497792  1
  In  In1  1  0.01959464  0.15340982  0.63096180  1
  In  In2  1  -0.01106703  0.49875450  0.12866643  1
  In  In3  1  0.00130476  0.50052689  0.62067378  1
  In  In4  1  0.00451827  0.83300301  0.12588231  1
  In  In5  1  0.00000762  0.83354994  0.61443661  1
  In  In6  1  0.32462722  0.16931315  0.13770996  1
  In  In7  1  0.31927680  0.15725764  0.60970008  1
  In  In8  1  0.33031855  0.49800694  0.14991352  1
  In  In9  1  0.34575456  0.50964992  0.61068695  1
  In  In10  1  0.33567031  0.82171648  0.14120971  1
  In  In11  1  0.33256315  0.83247820  0.61971360  1
  In  In12  1  0.64498705  0.18210206  0.15408883  1
  In  In13  1  0.66204614  0.17738690  0.61814391  1
  In  In14  1  0.66107086  0.49916400  0.14797349  1
  In  In15  1  0.67480806  0.50874529  0.61044978  1
  In  In16  1  0.65976943  0.84414886  0.14105847  1
  In  In17  1  0.65359574  0.82507003  0.61266795  1
  In  In18  1  0.18645587  -0.01752228  0.39533992  1
  In  In19  1  0.17415812  0.00498793  0.86738183  1
  In  In20  1  0.16512181  0.33604864  0.36984126  1
  In  In21  1  0.15992360  0.34083819  0.87567235  1
  In  In22  1  0.17376461  0.66541440  0.37887079  1
  In  In23  1  0.17341685  0.67106989  0.85984997  1
  In  In24  1  0.49133043  0.00257392  0.37136005  1
  In  In25  1  0.49228840  0.01009070  0.87101256  1
  In  In26  1  0.49538374  0.33832955  0.36189386  1
  In  In27  1  0.50444023  0.33900750  0.87777880  1
  In  In28  1  0.50004827  0.66074482  0.37341700  1
  In  In29  1  0.50077784  0.66258204  0.86394122  1
  In  In30  1  0.82533917  -0.00425700  0.38160978  1
  In  In31  1  0.83135397  -0.01439084  0.87047213  1
  In  In32  1  0.83946221  0.34033820  0.37347346  1
  In  In33  1  0.83688550  0.32381368  0.87728173  1
  In  In34  1  0.82252816  0.67161290  0.38715132  1
  In  In35  1  0.83385122  0.66853906  0.86024128  1
  In  In36  1  0.00310127  0.17512503  0.37923435  1
  In  In37  1  0.01410686  0.17649086  0.86624761  1
  In  In38  1  0.01159579  0.48397118  0.38801073  1
  In  In39  1  0.00257766  0.50033369  0.86191868  1
  In  In40  1  0.01029242  0.82989289  0.39709826  1
  In  In41  1  0.00367608  0.83620610  0.85341218  1
  In  In42  1  0.33819777  0.16545487  0.37128733  1
  In  In43  1  0.33381002  0.15127270  0.87397716  1
  In  In44  1  0.32811204  0.50838920  0.36419526  1
  In  In45  1  0.33222231  0.49764295  0.87058854  1
  In  In46  1  0.32971759  0.83732606  0.37443190  1
  In  In47  1  0.32721790  0.82722587  0.86590966  1
  In  In48  1  0.64711331  0.15581899  0.35799430  1
  In  In49  1  0.66778690  0.17789214  0.87721737  1
  In  In50  1  0.66202533  0.50293986  0.37072224  1
  In  In51  1  0.65745157  0.50810498  0.87450545  1
  In  In52  1  0.66347391  0.82742392  0.38052197  1
  In  In53  1  0.67563258  0.82690506  0.87342740  1
  In  In54  1  0.15862377  0.00690080  0.12705737  1
  In  In55  1  0.16161636  0.00112557  0.61574767  1
  In  In56  1  0.18037942  0.32162485  0.14119122  1
  In  In57  1  0.15999733  0.32568382  0.61557813  1
  In  In58  1  0.18243136  0.65775368  0.13397149  1
  In  In59  1  0.16902801  0.66677581  0.61851771  1
  In  In60  1  0.48546464  0.01723944  0.15465399  1
  In  In61  1  0.48726386  -0.01060060  0.61242738  1
  In  In62  1  0.49260853  0.33032377  0.15363477  1
  In  In63  1  0.49972711  0.33218806  0.60793986  1
  In  In64  1  0.49281521  0.66670201  0.14245824  1
  In  In65  1  0.49757233  0.66886972  0.61990142  1
  In  In66  1  0.82509687  -0.00595300  0.12991493  1
  In  In67  1  0.85270899  -0.00134559  0.61691506  1
  In  In68  1  0.82931693  0.33781884  0.13572047  1
  In  In69  1  0.83235468  0.34536359  0.61877875  1
  In  In70  1  0.83311808  0.65927448  0.12896406  1
  In  In71  1  0.83210120  0.66508768  0.61903341  1
  In  In72  1  0.32881763  0.33571598  0.74383158  1
  In  In73  1  0.00733097  0.66302435  0.26483371  1
  In  In74  1  0.49419880  0.17602043  0.02266189  1
  In  In75  1  0.66583814  -0.00339365  0.74775966  1
  In  In76  1  0.82910199  0.17239252  0.49746042  1
  In  In77  1  0.82994377  0.16493738  -0.00137074  1
  In  In78  1  0.83394223  0.83276904  -0.00137663  1
  In  In79  1  0.66995281  0.33997148  0.75479022  1
  In  In80  1  0.49554793  0.49861119  0.01112957  1
  In  In81  1  0.16747500  0.49536589  0.01146092  1
  In  In82  1  0.17436526  0.83297366  -0.00852442  1
  In  In83  1  0.00223646  0.00096171  0.25600620  1
  In  In84  1  0.49669816  0.83443745  0.01482428  1
  In  In85  1  0.83015808  0.49700114  0.00803559  1
  Cu  Cu86  1  0.33777210  0.00546644  0.49880328  1
  Cu  Cu87  1  0.66302030  0.66804034  0.00318744  1
  Cu  Cu88  1  0.16530295  0.16290081  0.25693048  1
  Cu  Cu89  1  0.84416408  0.16869653  0.74710887  1
  Cu  Cu90  1  0.65682496  0.65821694  0.49751577  1
  Cu  Cu91  1  0.33507666  0.32471682  0.01146265  1
  Cu  Cu92  1  0.50130685  0.83290117  0.26145205  1
  Cu  Cu93  1  0.83695806  0.16925715  0.25941611  1
  Cu  Cu94  1  0.33357432  0.67008750  0.49451479  1
  Cu  Cu95  1  0.83291383  0.83152189  0.73847837  1
  Cu  Cu96  1  0.48887031  0.16021471  0.74084330  1
  Cu  Cu97  1  0.16611599  0.83352364  0.73680579  1
  Cu  Cu98  1  0.32698684  -0.00664108  -0.00098212  1
  Cu  Cu99  1  0.00469770  0.00857324  -0.00492126  1
  Cu  Cu100  1  0.65614411  0.01561921  0.01052173  1
  Cu  Cu101  1  0.16771483  0.50519170  0.74133333  1
  Cu  Cu102  1  0.50697033  0.50598188  0.73709305  1
  Cu  Cu103  1  0.66150311  -0.00168668  0.49279934  1
  Cu  Cu104  1  0.83680619  0.50573439  0.74001295  1
  Cu  Cu105  1  -0.00160393  0.66125282  0.50165189  1
  Cu  Cu106  1  0.49690539  0.83057208  0.74006032  1
  Cu  Cu107  1  0.65662590  0.33011522  0.48613785  1
  Cu  Cu108  1  0.00162119  0.33297871  0.50062329  1
  Cu  Cu109  1  0.83581057  0.50468605  0.25718798  1
  Cu  Cu110  1  0.01477735  0.67137474  -0.00952999  1
  Cu  Cu111  1  0.16946694  0.16388901  0.74172281  1
  Cu  Cu112  1  0.33442032  0.33960215  0.48571875  1
  Cu  Cu113  1  0.00271232  0.32716523  0.00033263  1
  Cu  Cu114  1  0.83385635  0.82808903  0.26043887  1
  Se  Se115  1  0.09091448  0.08706484  0.04796514  1
  Se  Se116  1  0.09222371  0.09618549  0.54734670  1
  Se  Se117  1  0.07641848  0.40382997  0.06791571  1
  Se  Se118  1  0.08605833  0.42061666  0.55050483  1
  Se  Se119  1  0.08830733  0.74265819  0.05942098  1
  Se  Se120  1  0.08537425  0.74798949  0.54881714  1
  Se  Se121  1  0.40485677  0.07034117  0.06508081  1
  Se  Se122  1  0.42455767  0.09273849  0.54843101  1
  Se  Se123  1  0.40968491  0.40559718  0.07313814  1
  Se  Se124  1  0.41973606  0.41924869  0.54235176  1
  Se  Se125  1  0.40623936  0.73516912  0.06247285  1
  Se  Se126  1  0.41694277  0.75229560  0.54992835  1
  Se  Se127  1  0.73993912  0.09087701  0.06977974  1
  Se  Se128  1  0.74125125  0.07498337  0.55758717  1
  Se  Se129  1  0.73540288  0.41570781  0.06780558  1
  Se  Se130  1  0.74044421  0.40677911  0.54598387  1
  Se  Se131  1  0.74236771  0.74978250  0.06447121  1
  Se  Se132  1  0.74285290  0.74233927  0.54957646  1
  Se  Se133  1  0.24690154  0.24320902  0.06087173  1
  Se  Se134  1  0.25453383  0.25904764  0.54606152  1
  Se  Se135  1  0.26948008  0.57949672  0.06232537  1
  Se  Se136  1  0.25009150  0.58424360  0.54706874  1
  Se  Se137  1  0.25471460  0.91429005  0.06519628  1
  Se  Se138  1  0.25450864  0.92108049  0.55155717  1
  Se  Se139  1  0.58757875  0.27012298  0.07230112  1
  Se  Se140  1  0.57958574  0.24312401  0.54177722  1
  Se  Se141  1  0.58928694  0.59046399  0.06770247  1
  Se  Se142  1  0.57099883  0.57672122  0.55081128  1
  Se  Se143  1  0.57994969  0.93419821  0.07072942  1
  Se  Se144  1  0.57711932  0.91407078  0.54516896  1
  Se  Se145  1  0.91840172  0.25336824  0.06240491  1
  Se  Se146  1  0.92405817  0.25075587  0.56288218  1
  Se  Se147  1  0.92920422  0.59712802  0.05180386  1
  Se  Se148  1  0.91218680  0.57717508  0.55135151  1
  Se  Se149  1  0.92642431  0.92886617  0.05671436  1
  Se  Se150  1  0.91531037  0.91193537  0.54353188  1
  Se  Se151  1  0.08848765  0.25478289  0.44675596  1
  Se  Se152  1  0.08904619  0.24965043  0.94539532  1
  Se  Se153  1  0.08598773  0.58493555  0.44646889  1
  Se  Se154  1  0.08959410  0.58144723  0.93635409  1
  Se  Se155  1  0.07865359  0.92913516  0.45880084  1
  Se  Se156  1  0.07454150  0.91858313  0.93487625  1
  Se  Se157  1  0.42060439  0.25452878  0.43742935  1
  Se  Se158  1  0.41359301  0.25352300  0.94327046  1
  Se  Se159  1  0.41120238  0.58173619  0.44119254  1
  Se  Se160  1  0.41593617  0.58448143  0.93993922  1
  Se  Se161  1  0.41605238  0.91873692  0.44400125  1
  Se  Se162  1  0.41260153  0.91783328  0.94071602  1
  Se  Se163  1  0.73944031  0.24838812  0.42897785  1
  Se  Se164  1  0.73683468  0.26808607  0.95130006  1
  Se  Se165  1  0.74483648  0.57494099  0.44849328  1
  Se  Se166  1  0.74895520  0.59417175  0.94258008  1
  Se  Se167  1  0.74853103  0.90968709  0.45021174  1
  Se  Se168  1  0.73270974  0.92984125  0.94916068  1
  Se  Se169  1  0.25550278  0.09310008  0.44747808  1
  Se  Se170  1  0.24757908  0.08089092  0.94655378  1
  Se  Se171  1  0.24839626  0.42324171  0.43591257  1
  Se  Se172  1  0.26168836  0.40774972  0.94764727  1
  Se  Se173  1  0.24719555  0.75686633  0.44742649  1
  Se  Se174  1  0.26146251  0.73235840  0.94107932  1
  Se  Se175  1  0.58041066  0.08352920  0.44056598  1
  Se  Se176  1  0.57875997  0.09077873  0.94585165  1
  Se  Se177  1  0.57542279  0.41861318  0.43660717  1
  Se  Se178  1  0.59277274  0.41429318  0.94862379  1
  Se  Se179  1  0.57584382  0.74635345  0.44700113  1
  Se  Se180  1  0.58342528  0.74793967  0.94349299  1
  Se  Se181  1  0.92099586  0.07914990  0.44346070  1
  Se  Se182  1  0.91862267  0.07932982  0.93338095  1
  Se  Se183  1  0.91126288  0.41517776  0.45308172  1
  Se  Se184  1  0.92646729  0.41457303  0.94280436  1
  Se  Se185  1  0.91288746  0.74876840  0.45424551  1
  Se  Se186  1  0.92674609  0.74758662  0.93362206  1
  Se  Se187  1  0.25060999  0.24852740  0.30477403  1
  Se  Se188  1  0.24572344  0.24344291  0.80856400  1
  Se  Se189  1  0.24584561  0.59742817  0.29812384  1
  Se  Se190  1  0.25610172  0.57847772  0.79867295  1
  Se  Se191  1  0.25300167  0.92858493  0.30738498  1
  Se  Se192  1  0.24612203  0.91224610  0.79984998  1
  Se  Se193  1  0.59017872  0.26209468  0.29638063  1
  Se  Se194  1  0.56917434  0.24078251  0.80262050  1
  Se  Se195  1  0.59158563  0.59458468  0.30129738  1
  Se  Se196  1  0.58964325  0.58487352  0.79606915  1
  Se  Se197  1  0.58587165  0.91648807  0.31205191  1
  Se  Se198  1  0.57344544  0.90691462  0.80927421  1
  Se  Se199  1  0.92297896  0.25336968  0.30720147  1
  Se  Se200  1  0.92033537  0.25606390  0.80290913  1
  Se  Se201  1  0.91346013  0.57819285  0.32340792  1
  Se  Se202  1  0.92176007  0.58700565  0.79624542  1
  Se  Se203  1  0.91866567  0.90601686  0.31748606  1
  Se  Se204  1  0.91211489  0.91954369  0.79293790  1
  Se  Se205  1  0.09273135  0.08139975  0.32005368  1
  Se  Se206  1  0.08554323  0.08271285  0.79968289  1
  Se  Se207  1  0.07134152  0.41240902  0.30443084  1
  Se  Se208  1  0.09034193  0.41724134  0.79754286  1
  Se  Se209  1  0.09045388  0.76599256  0.31433747  1
  Se  Se210  1  0.08532974  0.74654411  0.79180560  1
  Se  Se211  1  0.42849460  0.09611688  0.29819301  1
  Se  Se212  1  0.40766068  0.07682649  0.79553229  1
  Se  Se213  1  0.40931844  0.42247658  0.29625691  1
  Se  Se214  1  0.43197973  0.42293069  0.80052122  1
  Se  Se215  1  0.41408504  0.74962602  0.30983880  1
  Se  Se216  1  0.41706163  0.74865030  0.80047628  1
  Se  Se217  1  0.75645275  0.07985969  0.30715134  1
  Se  Se218  1  0.75580912  0.09377590  0.80797116  1
  Se  Se219  1  0.75114045  0.41785657  0.30559926  1
  Se  Se220  1  0.76392618  0.43137345  0.81282494  1
  Se  Se221  1  0.74722138  0.74563722  0.30900358  1
  Se  Se222  1  0.74728924  0.75248091  0.79537908  1
  Se  Se223  1  0.24401121  0.07703033  0.20038170  1
  Se  Se224  1  0.24923219  0.07982403  0.68801818  1
  Se  Se225  1  0.24862731  0.40939215  0.21122384  1
  Se  Se226  1  0.24674608  0.42515716  0.67980214  1
  Se  Se227  1  0.24891189  0.74150998  0.20734029  1
  Se  Se228  1  0.25215396  0.74772311  0.68959480  1
  Se  Se229  1  0.60841113  0.05820029  0.20426090  1
  Se  Se230  1  0.57829548  0.08571951  0.68464104  1
  Se  Se231  1  0.57070370  0.42461291  0.21299827  1
  Se  Se232  1  0.58335842  0.41621113  0.68282227  1
  Se  Se233  1  0.58353194  0.75120791  0.20357051  1
  Se  Se234  1  0.58406549  0.74767842  0.69174458  1
  Se  Se235  1  0.91150943  0.09020842  0.19198937  1
  Se  Se236  1  0.92034809  0.08062380  0.69402549  1
  Se  Se237  1  0.91544152  0.41890327  0.20280380  1
  Se  Se238  1  0.91766113  0.41662865  0.69144990  1
  Se  Se239  1  0.91528569  0.75377302  0.19618805  1
  Se  Se240  1  0.91723666  0.75020674  0.68521537  1
  Se  Se241  1  0.08097376  0.24441125  0.20158978  1
  Se  Se242  1  0.08605528  0.25481173  0.69619342  1
  Se  Se243  1  0.08556425  0.57275627  0.19427469  1
  Se  Se244  1  0.08306432  0.58665418  0.68866109  1
  Se  Se245  1  0.09192453  0.90622562  0.19673552  1
  Se  Se246  1  0.08084397  0.91699189  0.68627557  1
  Se  Se247  1  0.43552674  0.21146294  0.20399390  1
  Se  Se248  1  0.41674761  0.24716091  0.68137374  1
  Se  Se249  1  0.42429207  0.57549091  0.21027745  1
  Se  Se250  1  0.41459138  0.58577418  0.69105755  1
  Se  Se251  1  0.41205403  0.91200161  0.20770805  1
  Se  Se252  1  0.41390201  0.91715084  0.69161108  1
  Se  Se253  1  0.75300282  0.25427594  0.20697886  1
  Se  Se254  1  0.75629481  0.24620974  0.69198964  1
  Se  Se255  1  0.75311188  0.58890897  0.20388932  1
  Se  Se256  1  0.74643745  0.58304714  0.68968542  1
  Se  Se257  1  0.75517995  0.91642867  0.20690525  1
  Se  Se258  1  0.75079476  0.91345269  0.68042647  1
