# generated using pymatgen
data_In86Cu29Se144
_symmetry_space_group_name_H-M   'P 1'
_cell_length_a   17.58075299
_cell_length_b   17.57940579
_cell_length_c   23.44503017
_cell_angle_alpha   90.01329756
_cell_angle_beta   90.02194011
_cell_angle_gamma   90.00986838
_symmetry_Int_Tables_number   1
_chemical_formula_structural   In86Cu29Se144
_chemical_formula_sum   'In86 Cu29 Se144'
_cell_volume   7245.90122101
_cell_formula_units_Z   1
loop_
 _symmetry_equiv_pos_site_id
 _symmetry_equiv_pos_as_xyz
  1  'x, y, z'
loop_
 _atom_site_type_symbol
 _atom_site_label
 _atom_site_symmetry_multiplicity
 _atom_site_fract_x
 _atom_site_fract_y
 _atom_site_fract_z
 _atom_site_occupancy
  In  In0  1  -0.00003897  0.15102281  0.11995165  1
  In  In1  1  -0.01942509  0.16652767  0.62534075  1
  In  In2  1  -0.00388522  0.51768084  0.12185917  1
  In  In3  1  -0.00034957  0.51555085  0.62655639  1
  In  In4  1  -0.01803904  0.84516322  0.12310834  1
  In  In5  1  -0.00551086  0.83766955  0.62638604  1
  In  In6  1  0.32412110  0.16784183  0.13384486  1
  In  In7  1  0.32541658  0.17076738  0.62117536  1
  In  In8  1  0.33814874  0.48765335  0.12238646  1
  In  In9  1  0.35012777  0.51293431  0.62318476  1
  In  In10  1  0.35060816  0.83649698  0.12465504  1
  In  In11  1  0.32465170  0.82671636  0.61732128  1
  In  In12  1  0.67483196  0.16079001  0.13718152  1
  In  In13  1  0.67752425  0.15460651  0.63414368  1
  In  In14  1  0.66970709  0.50436983  0.12105938  1
  In  In15  1  0.66753658  0.49389678  0.62908384  1
  In  In16  1  0.66618263  0.83687415  0.12787033  1
  In  In17  1  0.68166936  0.84225600  0.60893232  1
  In  In18  1  0.15468239  -0.00969660  0.36181124  1
  In  In19  1  0.17244202  0.00665557  0.87569301  1
  In  In20  1  0.16666272  0.31655257  0.36484467  1
  In  In21  1  0.15444262  0.32147949  0.88336923  1
  In  In22  1  0.16348955  0.68391032  0.37475569  1
  In  In23  1  0.16225536  0.67115464  0.86436069  1
  In  In24  1  0.49267533  -0.00803466  0.36991008  1
  In  In25  1  0.50310700  -0.01392429  0.88172709  1
  In  In26  1  0.49642153  0.33236220  0.36191328  1
  In  In27  1  0.52028150  0.33405246  0.87604865  1
  In  In28  1  0.51714591  0.66926423  0.37588413  1
  In  In29  1  0.49705102  0.67612348  0.88364017  1
  In  In30  1  0.83261400  -0.00298296  0.37536205  1
  In  In31  1  0.82672741  -0.01303861  0.87333036  1
  In  In32  1  0.81870699  0.34234467  0.38044445  1
  In  In33  1  0.83459405  0.34667877  0.87977803  1
  In  In34  1  0.82998105  0.66868490  0.37946856  1
  In  In35  1  0.84119259  0.66869388  0.88542320  1
  In  In36  1  -0.00684267  0.13806980  0.36503428  1
  In  In37  1  0.01554624  0.16850903  0.88456251  1
  In  In38  1  -0.02198802  0.50240859  0.37507201  1
  In  In39  1  -0.01105651  0.50808975  0.88401285  1
  In  In40  1  -0.00256282  0.83407795  0.37239094  1
  In  In41  1  -0.00737798  0.82790920  0.86870400  1
  In  In42  1  0.31687366  0.15891996  0.34989883  1
  In  In43  1  0.32143923  0.15609559  0.87947777  1
  In  In44  1  0.34426848  0.49700343  0.36781608  1
  In  In45  1  0.33082411  0.51569821  0.87787850  1
  In  In46  1  0.32544800  0.83760072  0.38239969  1
  In  In47  1  0.33771198  0.83648731  0.87497202  1
  In  In48  1  0.67104056  0.17489254  0.36708788  1
  In  In49  1  0.66476359  0.16055967  0.87167781  1
  In  In50  1  0.67966985  0.51715004  0.36065014  1
  In  In51  1  0.68068793  0.49907448  0.88137998  1
  In  In52  1  0.66679277  0.83120817  0.37822373  1
  In  In53  1  0.67644996  0.84338550  0.88531656  1
  In  In54  1  0.15077322  0.01367383  0.13858230  1
  In  In55  1  0.16368389  -0.02134758  0.62750534  1
  In  In56  1  0.17916092  0.33342134  0.12652993  1
  In  In57  1  0.16899766  0.32661219  0.62238452  1
  In  In58  1  0.15115601  0.66688885  0.12924520  1
  In  In59  1  0.13836670  0.70582718  0.65773814  1
  In  In60  1  0.51054127  -0.01023527  0.13546901  1
  In  In61  1  0.51626661  0.00171207  0.62717994  1
  In  In62  1  0.49959474  0.33531543  0.12488167  1
  In  In63  1  0.50941515  0.35232439  0.62512653  1
  In  In64  1  0.51945204  0.68361051  0.11379738  1
  In  In65  1  0.49232205  0.67006776  0.62837375  1
  In  In66  1  0.83837694  -0.01186677  0.12712209  1
  In  In67  1  0.83613048  -0.00096392  0.62490229  1
  In  In68  1  0.82221510  0.33126304  0.12635732  1
  In  In69  1  0.82506491  0.32673108  0.61964471  1
  In  In70  1  0.83248471  0.66700846  0.12301243  1
  In  In71  1  0.84022726  0.68217012  0.60600101  1
  In  In72  1  0.50704214  0.50549329  0.49476151  1
  In  In73  1  0.15228562  0.15039862  0.48159638  1
  In  In74  1  0.16809714  0.50570727  0.50760555  1
  In  In75  1  -0.00164818  0.33017667  0.24602756  1
  In  In76  1  0.33985818  0.33982099  0.74213483  1
  In  In77  1  0.50007713  0.16154090  -0.00027559  1
  In  In78  1  -0.00638717  0.33795572  0.76189120  1
  In  In79  1  0.50337691  0.16531844  0.49722717  1
  In  In80  1  0.33726223  -0.00613996  0.75643201  1
  In  In81  1  0.66864029  0.66688253  0.74537386  1
  In  In82  1  0.33451903  0.66263188  0.24673458  1
  In  In83  1  0.16393367  0.49837229  -0.00188557  1
  In  In84  1  0.83543086  0.16110574  0.00788562  1
  In  In85  1  0.16387240  0.83624602  0.00214185  1
  Cu  Cu86  1  0.16394426  0.16634593  0.75321923  1
  Cu  Cu87  1  -0.00380319  -0.00709441  0.49783799  1
  Cu  Cu88  1  0.66817060  0.33632821  0.00224023  1
  Cu  Cu89  1  0.66620364  0.33270088  0.49867295  1
  Cu  Cu90  1  0.32812094  0.67334979  0.50433860  1
  Cu  Cu91  1  0.82522876  0.50816504  0.25031732  1
  Cu  Cu92  1  0.50264882  0.50057971  0.24168742  1
  Cu  Cu93  1  0.50659415  0.83528666  0.75522172  1
  Cu  Cu94  1  0.50771758  0.49977301  0.75273394  1
  Cu  Cu95  1  0.15966903  0.83369456  0.24865119  1
  Cu  Cu96  1  0.16956925  0.50955147  0.75285829  1
  Cu  Cu97  1  0.50956212  0.16897278  0.75149160  1
  Cu  Cu98  1  0.00332706  0.67150142  0.50221447  1
  Cu  Cu99  1  0.83315813  0.15811829  0.75117435  1
  Cu  Cu100  1  0.33050916  0.32873599  0.48435399  1
  Cu  Cu101  1  0.33554264  0.66234383  0.00275206  1
  Cu  Cu102  1  0.83591662  0.16391484  0.24975452  1
  Cu  Cu103  1  0.33734934  0.32719037  0.00390958  1
  Cu  Cu104  1  0.33031682  0.00202108  0.00635941  1
  Cu  Cu105  1  0.15940052  0.50086942  0.24621705  1
  Cu  Cu106  1  0.33662304  -0.00992456  0.49690425  1
  Cu  Cu107  1  0.50429708  0.82885646  0.25255419  1
  Cu  Cu108  1  0.67339447  -0.00038811  0.50085138  1
  Cu  Cu109  1  0.83414193  0.50241896  0.75432733  1
  Cu  Cu110  1  0.83141915  0.83142528  0.25190678  1
  Cu  Cu111  1  0.66885324  0.66841751  0.00087322  1
  Cu  Cu112  1  0.83042778  0.83246273  0.74484838  1
  Cu  Cu113  1  -0.01247465  0.33219222  0.49773711  1
  Cu  Cu114  1  0.50008419  0.16643054  0.24612950  1
  Se  Se115  1  0.08512088  0.07325467  0.05132620  1
  Se  Se116  1  0.07581027  0.07589982  0.56170385  1
  Se  Se117  1  0.08022584  0.41416411  0.06539276  1
  Se  Se118  1  0.07286320  0.40609931  0.55889650  1
  Se  Se119  1  0.06943052  0.74775913  0.05869603  1
  Se  Se120  1  0.08357764  0.75090825  0.56108139  1
  Se  Se121  1  0.41473104  0.07796885  0.06606712  1
  Se  Se122  1  0.40841828  0.07622221  0.55894212  1
  Se  Se123  1  0.42222606  0.41469605  0.04959571  1
  Se  Se124  1  0.40804857  0.40876316  0.54946461  1
  Se  Se125  1  0.41844777  0.75185637  0.04992627  1
  Se  Se126  1  0.42121476  0.75214524  0.55299881  1
  Se  Se127  1  0.73997197  0.07205027  0.06164333  1
  Se  Se128  1  0.75299896  0.08453177  0.55553904  1
  Se  Se129  1  0.75450384  0.41844054  0.05302863  1
  Se  Se130  1  0.74617086  0.41777723  0.55428013  1
  Se  Se131  1  0.74641223  0.75191668  0.05775115  1
  Se  Se132  1  0.74092045  0.74445103  0.54117061  1
  Se  Se133  1  0.25282204  0.24647213  0.05547739  1
  Se  Se134  1  0.24655246  0.24896768  0.54229981  1
  Se  Se135  1  0.25182650  0.58881892  0.06340808  1
  Se  Se136  1  0.25113539  0.59723228  0.56869729  1
  Se  Se137  1  0.25216926  0.92055151  0.06684132  1
  Se  Se138  1  0.24595981  0.91484931  0.54971973  1
  Se  Se139  1  0.59447716  0.24767028  0.06041517  1
  Se  Se140  1  0.58872604  0.25454858  0.56314513  1
  Se  Se141  1  0.58383916  0.58165499  0.04953307  1
  Se  Se142  1  0.58907753  0.58957653  0.56334491  1
  Se  Se143  1  0.56909871  0.90380267  0.05916992  1
  Se  Se144  1  0.58146842  0.92049514  0.55023433  1
  Se  Se145  1  0.92361038  0.25767024  0.06296412  1
  Se  Se146  1  0.90786979  0.24471730  0.55003595  1
  Se  Se147  1  0.90957027  0.58361041  0.04987795  1
  Se  Se148  1  0.91978118  0.58156861  0.54913718  1
  Se  Se149  1  0.90036917  0.91154092  0.04383235  1
  Se  Se150  1  0.91185915  0.91340229  0.55276722  1
  Se  Se151  1  0.06443452  0.25445718  0.43380616  1
  Se  Se152  1  0.08826540  0.24492738  0.96081773  1
  Se  Se153  1  0.07857045  0.58733257  0.43944208  1
  Se  Se154  1  0.08042089  0.59951727  0.94452779  1
  Se  Se155  1  0.08320757  0.91778062  0.44165870  1
  Se  Se156  1  0.07880640  0.92085526  0.93662259  1
  Se  Se157  1  0.40873174  0.24330921  0.42939463  1
  Se  Se158  1  0.41319510  0.25355716  0.93607969  1
  Se  Se159  1  0.40566063  0.59470816  0.44055701  1
  Se  Se160  1  0.42118160  0.58134091  0.94961900  1
  Se  Se161  1  0.42406131  0.90930824  0.44667367  1
  Se  Se162  1  0.40966030  0.91820648  0.95029477  1
  Se  Se163  1  0.74788881  0.24540648  0.44661814  1
  Se  Se164  1  0.74561393  0.25196460  0.94272584  1
  Se  Se165  1  0.74876754  0.57732244  0.44395278  1
  Se  Se166  1  0.75643123  0.58457454  0.95098583  1
  Se  Se167  1  0.75294732  0.91452582  0.44602159  1
  Se  Se168  1  0.76946670  0.90881197  0.95760054  1
  Se  Se169  1  0.25999649  0.06992906  0.43280667  1
  Se  Se170  1  0.24446064  0.08363564  0.95490367  1
  Se  Se171  1  0.24815204  0.41625080  0.43487394  1
  Se  Se172  1  0.25923654  0.40746147  0.93966334  1
  Se  Se173  1  0.24244876  0.75425558  0.45102622  1
  Se  Se174  1  0.25439079  0.74200936  0.94267757  1
  Se  Se175  1  0.59178280  0.07606237  0.43695126  1
  Se  Se176  1  0.59543311  0.07047089  0.94704091  1
  Se  Se177  1  0.58596075  0.40796874  0.43485354  1
  Se  Se178  1  0.58761205  0.42158688  0.94836917  1
  Se  Se179  1  0.58716455  0.74819968  0.44989424  1
  Se  Se180  1  0.58886991  0.75516728  0.94665108  1
  Se  Se181  1  0.91515211  0.08092749  0.44731813  1
  Se  Se182  1  0.91738359  0.07910564  0.93827668  1
  Se  Se183  1  0.90619801  0.42111493  0.44897358  1
  Se  Se184  1  0.93963864  0.39826712  0.94504052  1
  Se  Se185  1  0.92049231  0.75078749  0.44466800  1
  Se  Se186  1  0.90722122  0.76993546  0.94781394  1
  Se  Se187  1  0.25912737  0.26667248  0.28984954  1
  Se  Se188  1  0.24896587  0.25117654  0.80573475  1
  Se  Se189  1  0.24010749  0.57838287  0.31016161  1
  Se  Se190  1  0.25739128  0.59183150  0.80195837  1
  Se  Se191  1  0.24963806  0.90774934  0.30299911  1
  Se  Se192  1  0.23818695  0.90480835  0.80696591  1
  Se  Se193  1  0.58463447  0.25190873  0.29749360  1
  Se  Se194  1  0.59392216  0.25319670  0.80222778  1
  Se  Se195  1  0.57939078  0.58593986  0.29763107  1
  Se  Se196  1  0.58407696  0.58285121  0.81417113  1
  Se  Se197  1  0.58622351  0.91453765  0.30630226  1
  Se  Se198  1  0.59012354  0.91551611  0.80993879  1
  Se  Se199  1  0.91024188  0.24737855  0.31319975  1
  Se  Se200  1  0.90864981  0.23849949  0.81617246  1
  Se  Se201  1  0.91122254  0.58996383  0.30310211  1
  Se  Se202  1  0.91414849  0.58672492  0.80906978  1
  Se  Se203  1  0.91555292  0.91782466  0.30347594  1
  Se  Se204  1  0.91292463  0.91511651  0.79998331  1
  Se  Se205  1  0.10799046  0.10537661  0.30283958  1
  Se  Se206  1  0.08283574  0.08448550  0.80793176  1
  Se  Se207  1  0.08268102  0.42372568  0.31157117  1
  Se  Se208  1  0.09452896  0.42674392  0.81499754  1
  Se  Se209  1  0.07726999  0.74881504  0.30050668  1
  Se  Se210  1  0.07618145  0.74896942  0.79849762  1
  Se  Se211  1  0.41922088  0.07949136  0.29854719  1
  Se  Se212  1  0.42714394  0.09205533  0.81299138  1
  Se  Se213  1  0.41598003  0.41810783  0.29306790  1
  Se  Se214  1  0.42369078  0.42114331  0.81273976  1
  Se  Se215  1  0.41789342  0.75135860  0.31207851  1
  Se  Se216  1  0.42123495  0.75327006  0.80713497  1
  Se  Se217  1  0.75219177  0.08205803  0.30513738  1
  Se  Se218  1  0.74870621  0.07691173  0.80578664  1
  Se  Se219  1  0.74770229  0.41373131  0.29930105  1
  Se  Se220  1  0.75101479  0.41716406  0.80455549  1
  Se  Se221  1  0.74882111  0.74941021  0.30694776  1
  Se  Se222  1  0.75525150  0.75318870  0.81021723  1
  Se  Se223  1  0.25997550  0.06846191  0.19868461  1
  Se  Se224  1  0.24611358  0.08635909  0.69307806  1
  Se  Se225  1  0.24998881  0.42350718  0.19694640  1
  Se  Se226  1  0.24343991  0.42960411  0.68649552  1
  Se  Se227  1  0.24489771  0.75745392  0.18830748  1
  Se  Se228  1  0.26854880  0.74436346  0.69727545  1
  Se  Se229  1  0.58833598  0.07938222  0.20224691  1
  Se  Se230  1  0.59008393  0.07802048  0.70344783  1
  Se  Se231  1  0.58740184  0.41758439  0.18985214  1
  Se  Se232  1  0.59162639  0.41376069  0.70397505  1
  Se  Se233  1  0.58740825  0.74758930  0.19864856  1
  Se  Se234  1  0.58385479  0.76295322  0.68737236  1
  Se  Se235  1  0.91577033  0.08092010  0.19384357  1
  Se  Se236  1  0.91920133  0.07738378  0.69918410  1
  Se  Se237  1  0.90888351  0.42658781  0.19129793  1
  Se  Se238  1  0.91204264  0.42134792  0.69036978  1
  Se  Se239  1  0.91315043  0.75236633  0.19314088  1
  Se  Se240  1  0.90957490  0.74623489  0.69052533  1
  Se  Se241  1  0.08776143  0.24194620  0.18709173  1
  Se  Se242  1  0.08300049  0.24918002  0.69517252  1
  Se  Se243  1  0.07372919  0.58710006  0.20137194  1
  Se  Se244  1  0.07626855  0.58617741  0.70418572  1
  Se  Se245  1  0.07306096  0.91439196  0.19552292  1
  Se  Se246  1  0.08097877  0.90978867  0.69977929  1
  Se  Se247  1  0.41873866  0.25090710  0.19265109  1
  Se  Se248  1  0.42972377  0.24232431  0.68585355  1
  Se  Se249  1  0.42577200  0.58431123  0.18084735  1
  Se  Se250  1  0.42276788  0.58399036  0.70279236  1
  Se  Se251  1  0.41821573  0.91399661  0.20345955  1
  Se  Se252  1  0.42551121  0.91169577  0.69008927  1
  Se  Se253  1  0.75135906  0.25238500  0.20294371  1
  Se  Se254  1  0.75585809  0.24825744  0.69823487  1
  Se  Se255  1  0.74452923  0.58943828  0.19371915  1
  Se  Se256  1  0.76418292  0.58235558  0.68666055  1
  Se  Se257  1  0.74982350  0.91743457  0.19888638  1
  Se  Se258  1  0.74739966  0.91572123  0.69114914  1
