# generated using pymatgen
data_In86Cu29Se144
_symmetry_space_group_name_H-M   'P 1'
_cell_length_a   17.57964352
_cell_length_b   17.57170161
_cell_length_c   23.43739087
_cell_angle_alpha   89.99847870
_cell_angle_beta   90.03190617
_cell_angle_gamma   90.01637470
_symmetry_Int_Tables_number   1
_chemical_formula_structural   In86Cu29Se144
_chemical_formula_sum   'In86 Cu29 Se144'
_cell_volume   7239.90823898
_cell_formula_units_Z   1
loop_
 _symmetry_equiv_pos_site_id
 _symmetry_equiv_pos_as_xyz
  1  'x, y, z'
loop_
 _atom_site_type_symbol
 _atom_site_label
 _atom_site_symmetry_multiplicity
 _atom_site_fract_x
 _atom_site_fract_y
 _atom_site_fract_z
 _atom_site_occupancy
  In  In0  1  0.01500620  0.19495793  0.10629723  1
  In  In1  1  0.02465059  0.20036941  0.59828189  1
  In  In2  1  -0.00025268  0.49273622  0.12681281  1
  In  In3  1  0.00536220  0.48326213  0.62973946  1
  In  In4  1  -0.01495351  0.83664718  0.12073983  1
  In  In5  1  0.00858121  0.83183847  0.62254882  1
  In  In6  1  0.32938313  0.19346201  0.13152342  1
  In  In7  1  0.32928647  0.19261023  0.61788358  1
  In  In8  1  0.33444798  0.49904811  0.12308554  1
  In  In9  1  0.33771586  0.49359104  0.61447470  1
  In  In10  1  0.32036157  0.81871067  0.12436866  1
  In  In11  1  0.33522863  0.81402164  0.62180263  1
  In  In12  1  0.68817446  0.17520212  0.12341301  1
  In  In13  1  0.66120285  0.15563843  0.62570943  1
  In  In14  1  0.66745072  0.50455396  0.12901471  1
  In  In15  1  0.67055130  0.51264085  0.62773348  1
  In  In16  1  0.66631650  0.81639769  0.12760636  1
  In  In17  1  0.66126108  0.83631993  0.62661732  1
  In  In18  1  0.17195428  0.01616183  0.38031255  1
  In  In19  1  0.17130062  0.02166294  0.87305650  1
  In  In20  1  0.17395866  0.33563303  0.37612516  1
  In  In21  1  0.16303190  0.33919130  0.87231991  1
  In  In22  1  0.15689871  0.64429607  0.36484303  1
  In  In23  1  0.16403682  0.63865394  0.87063745  1
  In  In24  1  0.48065782  -0.00220277  0.38616764  1
  In  In25  1  0.50173247  -0.01494442  0.86841859  1
  In  In26  1  0.50696547  0.34613838  0.37473688  1
  In  In27  1  0.50195584  0.35042975  0.87549949  1
  In  In28  1  0.49783777  0.66528935  0.37716291  1
  In  In29  1  0.49292648  0.65640735  0.86520426  1
  In  In30  1  0.84425721  0.01451489  0.37049667  1
  In  In31  1  0.82864652  0.00254553  0.87467023  1
  In  In32  1  0.83433967  0.33708787  0.36744635  1
  In  In33  1  0.84125242  0.32663205  0.89009538  1
  In  In34  1  0.81676017  0.63598762  0.34185849  1
  In  In35  1  0.83167405  0.66731899  0.88445792  1
  In  In36  1  -0.00397384  0.19128798  0.39480579  1
  In  In37  1  -0.00784388  0.18383347  0.88237360  1
  In  In38  1  0.00170306  0.49762242  0.36579292  1
  In  In39  1  0.01936280  0.47158841  0.90887263  1
  In  In40  1  0.00472161  0.81554994  0.37518700  1
  In  In41  1  -0.00410771  0.81644197  0.88187094  1
  In  In42  1  0.30967311  0.17489045  0.38750297  1
  In  In43  1  0.31150215  0.17682734  0.87533857  1
  In  In44  1  0.33124180  0.49811755  0.37707494  1
  In  In45  1  0.33496575  0.50129791  0.87139564  1
  In  In46  1  0.34413514  0.83376014  0.38419518  1
  In  In47  1  0.34800801  0.82460970  0.87450785  1
  In  In48  1  0.66469167  0.19818860  0.38237016  1
  In  In49  1  0.68155798  0.16452496  0.86944837  1
  In  In50  1  0.65656653  0.48637476  0.36213377  1
  In  In51  1  0.65711103  0.50804282  0.88287287  1
  In  In52  1  0.66429226  0.82034739  0.37513340  1
  In  In53  1  0.67123801  0.83225543  0.86898329  1
  In  In54  1  0.14817497  0.00872065  0.12638548  1
  In  In55  1  0.15644984  0.00912649  0.62749028  1
  In  In56  1  0.16369749  0.34097917  0.12267242  1
  In  In57  1  0.17117244  0.34001925  0.61381979  1
  In  In58  1  0.18422203  0.65127572  0.13243563  1
  In  In59  1  0.18109906  0.65853030  0.62696166  1
  In  In60  1  0.50014251  -0.00143540  0.12854312  1
  In  In61  1  0.51553047  0.00397268  0.62426366  1
  In  In62  1  0.48760505  0.34955554  0.13484133  1
  In  In63  1  0.48498065  0.33367241  0.61809133  1
  In  In64  1  0.51379946  0.65474139  0.13601775  1
  In  In65  1  0.50006847  0.66246064  0.61864510  1
  In  In66  1  0.84382518  0.01095623  0.11310651  1
  In  In67  1  0.81882481  0.00874572  0.62989124  1
  In  In68  1  0.83583905  0.34074499  0.13056528  1
  In  In69  1  0.84833831  0.33580646  0.62313357  1
  In  In70  1  0.82851697  0.66210683  0.12851449  1
  In  In71  1  0.82497723  0.64894309  0.62946007  1
  In  In72  1  0.17232382  0.83440125  0.49862862  1
  In  In73  1  0.83047773  0.48954611  0.49118552  1
  In  In74  1  0.33906582  0.00206170  0.74621516  1
  In  In75  1  0.16233609  0.83076751  -0.00212135  1
  In  In76  1  0.66824843  0.33571934  0.75371028  1
  In  In77  1  -0.01371478  0.00815079  0.74893145  1
  In  In78  1  0.00029382  -0.00051623  0.25088583  1
  In  In79  1  0.49819201  0.16868926  0.50134076  1
  In  In80  1  0.66661679  0.00155674  0.24890043  1
  In  In81  1  0.83569943  0.83187675  0.49582731  1
  In  In82  1  0.50311647  0.82897187  -0.00138712  1
  In  In83  1  -0.00473656  0.65444604  0.74855892  1
  In  In84  1  0.50382920  0.17195205  -0.00130986  1
  In  In85  1  0.33061532  0.00274244  0.26235063  1
  Cu  Cu86  1  0.33377261  0.65760076  0.49800407  1
  Cu  Cu87  1  0.32497529  0.34067942  0.00110967  1
  Cu  Cu88  1  0.83959847  0.17739256  0.24985204  1
  Cu  Cu89  1  0.16133943  0.18591905  0.74440703  1
  Cu  Cu90  1  0.66990436  0.66181621  0.00608599  1
  Cu  Cu91  1  -0.00431728  0.66469496  0.00823775  1
  Cu  Cu92  1  0.65994604  0.66540096  0.49705189  1
  Cu  Cu93  1  0.49369468  0.50555967  0.25182063  1
  Cu  Cu94  1  0.17509978  0.83002303  0.75400176  1
  Cu  Cu95  1  0.83471775  0.50000755  0.75922907  1
  Cu  Cu96  1  -0.00320598  0.00659046  0.49904875  1
  Cu  Cu97  1  0.50557206  0.18001418  0.25571721  1
  Cu  Cu98  1  0.82509948  0.82700106  0.75126890  1
  Cu  Cu99  1  0.33531194  0.65524238  -0.00245291  1
  Cu  Cu100  1  0.17334955  0.48923129  0.24925023  1
  Cu  Cu101  1  0.49340723  0.50034680  0.74530483  1
  Cu  Cu102  1  0.16673338  0.81588093  0.25547992  1
  Cu  Cu103  1  0.49528798  0.16815585  0.74501706  1
  Cu  Cu104  1  -0.00387932  0.65697263  0.49317380  1
  Cu  Cu105  1  0.32639039  0.01342952  0.00504318  1
  Cu  Cu106  1  0.66809874  0.33767319  0.00476563  1
  Cu  Cu107  1  0.16346072  0.17749897  0.25122725  1
  Cu  Cu108  1  0.84130248  0.16910436  0.74979576  1
  Cu  Cu109  1  -0.00331815  0.00682122  -0.00519736  1
  Cu  Cu110  1  0.50977250  0.82522239  0.74699231  1
  Cu  Cu111  1  0.67460987  -0.00292022  -0.00611371  1
  Cu  Cu112  1  0.83195024  0.82781790  0.24277256  1
  Cu  Cu113  1  0.49179602  0.83222067  0.25684082  1
  Cu  Cu114  1  0.66792990  -0.00158903  0.49984739  1
  Se  Se115  1  0.08242023  0.08691216  0.04805429  1
  Se  Se116  1  0.08909144  0.08409831  0.54827021  1
  Se  Se117  1  0.07037724  0.40785111  0.05301096  1
  Se  Se118  1  0.06929747  0.40768756  0.55040567  1
  Se  Se119  1  0.08333694  0.74376298  0.06689543  1
  Se  Se120  1  0.07851711  0.73695910  0.55363019  1
  Se  Se121  1  0.41163254  0.08653280  0.06478781  1
  Se  Se122  1  0.41164469  0.08205377  0.56697031  1
  Se  Se123  1  0.41723389  0.41683098  0.05209010  1
  Se  Se124  1  0.41992438  0.41509830  0.54239367  1
  Se  Se125  1  0.41282516  0.73866794  0.05897382  1
  Se  Se126  1  0.41732068  0.74491921  0.54698232  1
  Se  Se127  1  0.75014123  0.08651376  0.04789150  1
  Se  Se128  1  0.74755117  0.08501598  0.55180201  1
  Se  Se129  1  0.74863562  0.42009354  0.06031515  1
  Se  Se130  1  0.74429200  0.41239579  0.56357140  1
  Se  Se131  1  0.75233986  0.75032147  0.05428789  1
  Se  Se132  1  0.74695325  0.74026424  0.55758861  1
  Se  Se133  1  0.24639410  0.25273884  0.05342906  1
  Se  Se134  1  0.23343457  0.23913224  0.54341300  1
  Se  Se135  1  0.24832481  0.57605813  0.05053013  1
  Se  Se136  1  0.24560917  0.57800888  0.54928274  1
  Se  Se137  1  0.24994816  0.92529735  0.06167141  1
  Se  Se138  1  0.25198637  0.92050613  0.56837879  1
  Se  Se139  1  0.58472592  0.25881726  0.06616065  1
  Se  Se140  1  0.59174234  0.25576488  0.56014746  1
  Se  Se141  1  0.58023185  0.58132538  0.05529997  1
  Se  Se142  1  0.58468251  0.57669618  0.55150413  1
  Se  Se143  1  0.59295683  0.92354374  0.05823753  1
  Se  Se144  1  0.58516001  0.91527914  0.55185781  1
  Se  Se145  1  0.88932604  0.23482393  0.06235804  1
  Se  Se146  1  0.90234546  0.24299128  0.54743235  1
  Se  Se147  1  0.91437526  0.58114213  0.06118826  1
  Se  Se148  1  0.91900812  0.58063226  0.55887501  1
  Se  Se149  1  0.91600119  0.91831317  0.04511285  1
  Se  Se150  1  0.92135611  0.92424933  0.56051436  1
  Se  Se151  1  0.12258267  0.22563053  0.44430179  1
  Se  Se152  1  0.09625209  0.24493427  0.94264165  1
  Se  Se153  1  0.08059392  0.57361523  0.44275705  1
  Se  Se154  1  0.08675628  0.58771456  0.95613134  1
  Se  Se155  1  0.07336452  0.92270753  0.43849148  1
  Se  Se156  1  0.07872736  0.92666683  0.93391261  1
  Se  Se157  1  0.41278540  0.25887174  0.43981640  1
  Se  Se158  1  0.40795215  0.25915628  0.94059276  1
  Se  Se159  1  0.42106845  0.57702384  0.44557057  1
  Se  Se160  1  0.42345953  0.57858455  0.94318335  1
  Se  Se161  1  0.41352859  0.91340634  0.46009145  1
  Se  Se162  1  0.40608298  0.92846929  0.94753494  1
  Se  Se163  1  0.76821180  0.25380198  0.44584293  1
  Se  Se164  1  0.74031425  0.24844366  0.94789185  1
  Se  Se165  1  0.74537763  0.59055341  0.43585837  1
  Se  Se166  1  0.75139781  0.57815732  0.95078013  1
  Se  Se167  1  0.74798309  0.92504864  0.43382070  1
  Se  Se168  1  0.75281916  0.91000901  0.94097538  1
  Se  Se169  1  0.28466756  0.05153190  0.44426520  1
  Se  Se170  1  0.24250769  0.09500312  0.95243396  1
  Se  Se171  1  0.23600751  0.43212189  0.44604857  1
  Se  Se172  1  0.24929053  0.42282524  0.94121645  1
  Se  Se173  1  0.24807241  0.73547176  0.43640391  1
  Se  Se174  1  0.25621545  0.74192528  0.93934329  1
  Se  Se175  1  0.59079170  0.08103449  0.43724605  1
  Se  Se176  1  0.58660124  0.07358578  0.93664122  1
  Se  Se177  1  0.60439013  0.40687189  0.44414817  1
  Se  Se178  1  0.58183065  0.41817930  0.95223939  1
  Se  Se179  1  0.57756598  0.75370206  0.44765913  1
  Se  Se180  1  0.59004711  0.73790795  0.93889957  1
  Se  Se181  1  0.91285648  0.09100233  0.44867444  1
  Se  Se182  1  0.91092330  0.08718808  0.94127884  1
  Se  Se183  1  0.93322593  0.40553315  0.44135663  1
  Se  Se184  1  0.91046193  0.41095688  0.96427263  1
  Se  Se185  1  0.91027916  0.73111654  0.43456118  1
  Se  Se186  1  0.91299056  0.74975314  0.95652810  1
  Se  Se187  1  0.25556273  0.25249394  0.30335220  1
  Se  Se188  1  0.24965717  0.26186590  0.79909058  1
  Se  Se189  1  0.25538830  0.57784355  0.29972000  1
  Se  Se190  1  0.26666717  0.59573545  0.80156649  1
  Se  Se191  1  0.23775089  0.90511818  0.31570440  1
  Se  Se192  1  0.24918587  0.91488648  0.81347637  1
  Se  Se193  1  0.59177739  0.26629611  0.30214384  1
  Se  Se194  1  0.57496412  0.24292188  0.81171898  1
  Se  Se195  1  0.58035828  0.58746347  0.30438222  1
  Se  Se196  1  0.58262339  0.57517486  0.80072442  1
  Se  Se197  1  0.57140436  0.91828406  0.31284327  1
  Se  Se198  1  0.58876304  0.91408630  0.79835935  1
  Se  Se199  1  0.92789406  0.25100868  0.30740651  1
  Se  Se200  1  0.91232063  0.25717865  0.80711401  1
  Se  Se201  1  0.92576433  0.57319733  0.28781673  1
  Se  Se202  1  0.91721126  0.57449840  0.82133730  1
  Se  Se203  1  0.90885159  0.90398569  0.30916122  1
  Se  Se204  1  0.91312229  0.90147623  0.80884571  1
  Se  Se205  1  0.08476603  0.09436429  0.31064325  1
  Se  Se206  1  0.08352384  0.09891704  0.80277643  1
  Se  Se207  1  0.08813219  0.40909079  0.30342988  1
  Se  Se208  1  0.07258874  0.42703128  0.81338917  1
  Se  Se209  1  0.07436306  0.73477326  0.29997899  1
  Se  Se210  1  0.08900526  0.74965584  0.80856593  1
  Se  Se211  1  0.42333535  0.09893136  0.31424193  1
  Se  Se212  1  0.41920288  0.09255001  0.81444972  1
  Se  Se213  1  0.41620786  0.41852010  0.30630842  1
  Se  Se214  1  0.41576235  0.41483457  0.80097447  1
  Se  Se215  1  0.40997520  0.74835681  0.30935375  1
  Se  Se216  1  0.41827161  0.74793011  0.79719858  1
  Se  Se217  1  0.75252599  0.09843725  0.30756767  1
  Se  Se218  1  0.75615961  0.08105931  0.79689784  1
  Se  Se219  1  0.77509842  0.44389187  0.30443778  1
  Se  Se220  1  0.75517031  0.41881468  0.82000924  1
  Se  Se221  1  0.74462838  0.75221977  0.29838065  1
  Se  Se222  1  0.75063249  0.73856134  0.80645616  1
  Se  Se223  1  0.24237762  0.08962352  0.19382168  1
  Se  Se224  1  0.24402231  0.09612576  0.69232275  1
  Se  Se225  1  0.25674997  0.41098365  0.19205586  1
  Se  Se226  1  0.26218198  0.40607433  0.68432740  1
  Se  Se227  1  0.25790524  0.74050373  0.20384535  1
  Se  Se228  1  0.25364334  0.74613150  0.69843861  1
  Se  Se229  1  0.57730360  0.09808654  0.19073041  1
  Se  Se230  1  0.58419366  0.08197546  0.70311404  1
  Se  Se231  1  0.58184265  0.42340781  0.19966866  1
  Se  Se232  1  0.57802494  0.41821650  0.68845205  1
  Se  Se233  1  0.57904018  0.75445691  0.20298028  1
  Se  Se234  1  0.58723964  0.74086136  0.68994815  1
  Se  Se235  1  0.91650594  0.09255165  0.19007900  1
  Se  Se236  1  0.91889201  0.10104359  0.67910546  1
  Se  Se237  1  0.90745934  0.43066772  0.20198141  1
  Se  Se238  1  0.91247006  0.41828267  0.70133002  1
  Se  Se239  1  0.91993905  0.74766919  0.19301795  1
  Se  Se240  1  0.90903137  0.75411747  0.68728943  1
  Se  Se241  1  0.08087539  0.25583321  0.19328509  1
  Se  Se242  1  0.07960176  0.26474450  0.68747957  1
  Se  Se243  1  0.09127525  0.57263117  0.19413122  1
  Se  Se244  1  0.09559509  0.57081047  0.69457476  1
  Se  Se245  1  0.09144580  0.90192213  0.19442052  1
  Se  Se246  1  0.08892706  0.91072721  0.69996595  1
  Se  Se247  1  0.41528459  0.25946903  0.20562705  1
  Se  Se248  1  0.41374446  0.25448173  0.69591958  1
  Se  Se249  1  0.41035379  0.58570297  0.19530822  1
  Se  Se250  1  0.41469327  0.58135608  0.68643871  1
  Se  Se251  1  0.41319347  0.91073277  0.19364251  1
  Se  Se252  1  0.42605250  0.90728566  0.68767288  1
  Se  Se253  1  0.74931129  0.25827637  0.20156166  1
  Se  Se254  1  0.75426394  0.24649386  0.69016653  1
  Se  Se255  1  0.72750284  0.60552434  0.19689003  1
  Se  Se256  1  0.74747629  0.58132461  0.70810634  1
  Se  Se257  1  0.75900797  0.91818097  0.18485113  1
  Se  Se258  1  0.74866110  0.91432758  0.69574095  1
