# generated using pymatgen
data_In86Cu29Se144
_symmetry_space_group_name_H-M   'P 1'
_cell_length_a   17.57875311
_cell_length_b   17.57598173
_cell_length_c   23.43687170
_cell_angle_alpha   90.02864051
_cell_angle_beta   89.99995213
_cell_angle_gamma   90.03547187
_symmetry_Int_Tables_number   1
_chemical_formula_structural   In86Cu29Se144
_chemical_formula_sum   'In86 Cu29 Se144'
_cell_volume   7241.14366947
_cell_formula_units_Z   1
loop_
 _symmetry_equiv_pos_site_id
 _symmetry_equiv_pos_as_xyz
  1  'x, y, z'
loop_
 _atom_site_type_symbol
 _atom_site_label
 _atom_site_symmetry_multiplicity
 _atom_site_fract_x
 _atom_site_fract_y
 _atom_site_fract_z
 _atom_site_occupancy
  In  In0  1  0.00843626  0.16770065  0.12551131  1
  In  In1  1  -0.01946224  0.18747204  0.63225614  1
  In  In2  1  -0.00757463  0.49906376  0.13148648  1
  In  In3  1  -0.02653389  0.45213403  0.58116151  1
  In  In4  1  -0.00924884  0.82339392  0.12693633  1
  In  In5  1  0.00545994  0.83590943  0.61887886  1
  In  In6  1  0.34494467  0.16039882  0.13786474  1
  In  In7  1  0.34618202  0.17758827  0.62393363  1
  In  In8  1  0.34618938  0.48513976  0.14032685  1
  In  In9  1  0.32567970  0.49284951  0.61205779  1
  In  In10  1  0.33410832  0.82883023  0.13843861  1
  In  In11  1  0.31786009  0.81659394  0.59950776  1
  In  In12  1  0.67094075  0.18670931  0.12547831  1
  In  In13  1  0.67542244  0.15947114  0.63096322  1
  In  In14  1  0.66521194  0.49788359  0.12992841  1
  In  In15  1  0.66616236  0.49569235  0.62449315  1
  In  In16  1  0.65384004  0.82759641  0.13042850  1
  In  In17  1  0.67354748  0.83713712  0.61428421  1
  In  In18  1  0.16953361  -0.01021380  0.37511761  1
  In  In19  1  0.16187992  0.00994593  0.86887497  1
  In  In20  1  0.16994239  0.33815477  0.37556430  1
  In  In21  1  0.16090329  0.32977692  0.86628912  1
  In  In22  1  0.16960156  0.66841654  0.37647238  1
  In  In23  1  0.16701968  0.65162310  0.87349362  1
  In  In24  1  0.48711182  0.00618965  0.36901699  1
  In  In25  1  0.51610729  0.00321957  0.87101993  1
  In  In26  1  0.51337830  0.34096863  0.36520672  1
  In  In27  1  0.50060164  0.33532108  0.87860884  1
  In  In28  1  0.49808598  0.66040757  0.38047831  1
  In  In29  1  0.49276785  0.66240788  0.87721263  1
  In  In30  1  0.84008964  -0.00385805  0.38522987  1
  In  In31  1  0.83499860  0.00947085  0.86297977  1
  In  In32  1  0.83453897  0.34210792  0.38080127  1
  In  In33  1  0.84464641  0.35243366  0.85988557  1
  In  In34  1  0.83395001  0.66022957  0.37740206  1
  In  In35  1  0.82733006  0.66223304  0.87759290  1
  In  In36  1  -0.01199892  0.17910489  0.38387012  1
  In  In37  1  -0.00265209  0.16829059  0.86859788  1
  In  In38  1  -0.00196349  0.49678968  0.37877519  1
  In  In39  1  -0.00650400  0.48822941  0.87900095  1
  In  In40  1  0.01340624  0.82358438  0.38518600  1
  In  In41  1  -0.01344045  0.83640839  0.87081907  1
  In  In42  1  0.35202068  0.17453275  0.35473890  1
  In  In43  1  0.33043569  0.18570647  0.87534934  1
  In  In44  1  0.33741508  0.50530036  0.37877576  1
  In  In45  1  0.34610689  0.49801329  0.88170845  1
  In  In46  1  0.33145272  0.82966051  0.37836664  1
  In  In47  1  0.32887032  0.82299402  0.87572053  1
  In  In48  1  0.66711295  0.18981208  0.37061775  1
  In  In49  1  0.66443914  0.16934358  0.87218422  1
  In  In50  1  0.66551326  0.49925597  0.37876171  1
  In  In51  1  0.68166448  0.48540827  0.88741103  1
  In  In52  1  0.68039345  0.82101231  0.38360702  1
  In  In53  1  0.65652877  0.83915577  0.86617724  1
  In  In54  1  0.17083860  0.01181806  0.12571137  1
  In  In55  1  0.15968997  -0.00948415  0.62151357  1
  In  In56  1  0.16381608  0.33684486  0.13664940  1
  In  In57  1  0.15811738  0.34552191  0.62728754  1
  In  In58  1  0.16304863  0.66606890  0.13710005  1
  In  In59  1  0.15797378  0.64633860  0.60510990  1
  In  In60  1  0.49273432  -0.00361192  0.12487485  1
  In  In61  1  0.50928020  -0.00100896  0.62193823  1
  In  In62  1  0.49829987  0.33388603  0.12626020  1
  In  In63  1  0.49761671  0.33985222  0.63090084  1
  In  In64  1  0.51044212  0.65397315  0.14057475  1
  In  In65  1  0.48830344  0.65894567  0.60471913  1
  In  In66  1  0.83643951  -0.00527928  0.12395592  1
  In  In67  1  0.83129495  0.00335122  0.62441607  1
  In  In68  1  0.82452379  0.34128962  0.13433761  1
  In  In69  1  0.83278698  0.32873449  0.62407414  1
  In  In70  1  0.85217427  0.64031327  0.14422673  1
  In  In71  1  0.82954531  0.65750087  0.61778253  1
  In  In72  1  0.00702490  -0.00216337  0.24835912  1
  In  In73  1  0.00316758  0.66395092  0.74470862  1
  In  In74  1  0.50012751  0.82934032  -0.00265172  1
  In  In75  1  0.82982524  0.82766118  0.00275774  1
  In  In76  1  0.50750309  0.16599714  0.49426981  1
  In  In77  1  0.16100769  0.49938287  0.00677984  1
  In  In78  1  0.83435537  0.17568075  -0.00731025  1
  In  In79  1  0.16470637  0.17235127  -0.00019684  1
  In  In80  1  0.16405383  0.83321060  0.00573900  1
  In  In81  1  0.66560656  0.66133454  0.73934377  1
  In  In82  1  0.33742960  0.00433709  0.73916277  1
  In  In83  1  0.66566115  0.00091897  0.25034812  1
  In  In84  1  0.16458641  0.16538010  0.49264693  1
  In  In85  1  0.33497082  0.66848336  0.73096373  1
  Cu  Cu86  1  0.16198787  0.83855418  0.74502057  1
  Cu  Cu87  1  0.82628280  0.16841538  0.74836832  1
  Cu  Cu88  1  0.17062514  0.82831445  0.25815544  1
  Cu  Cu89  1  0.50203483  0.83686238  0.73872436  1
  Cu  Cu90  1  0.50431857  0.49167715  0.75409630  1
  Cu  Cu91  1  0.66176665  0.34159651  0.00346752  1
  Cu  Cu92  1  0.67068959  0.00900143  -0.00679342  1
  Cu  Cu93  1  -0.00211769  0.66779804  0.49253230  1
  Cu  Cu94  1  0.33060103  -0.00323008  0.49172350  1
  Cu  Cu95  1  0.49954561  0.50079054  0.25490345  1
  Cu  Cu96  1  0.66989225  -0.00194275  0.49985857  1
  Cu  Cu97  1  0.66757985  0.65970817  0.49866614  1
  Cu  Cu98  1  0.16699980  0.16860621  0.25283671  1
  Cu  Cu99  1  0.67150250  0.65823504  0.00885753  1
  Cu  Cu100  1  0.33827140  0.65673555  0.00996255  1
  Cu  Cu101  1  0.82919663  0.84246180  0.74278840  1
  Cu  Cu102  1  0.83626604  0.82215141  0.25776584  1
  Cu  Cu103  1  0.33385428  0.33833714  0.49724036  1
  Cu  Cu104  1  0.34190565  0.00717416  0.00375267  1
  Cu  Cu105  1  0.49947492  0.82770705  0.25895086  1
  Cu  Cu106  1  0.82904425  0.49583514  0.25807810  1
  Cu  Cu107  1  -0.00611764  0.00598630  0.50492669  1
  Cu  Cu108  1  0.16066231  0.16998411  0.74667198  1
  Cu  Cu109  1  0.16986549  0.49826770  0.74439923  1
  Cu  Cu110  1  0.66968384  0.33483148  0.49974833  1
  Cu  Cu111  1  0.33509380  0.33468500  0.00475503  1
  Cu  Cu112  1  0.83360562  0.17561366  0.25640471  1
  Cu  Cu113  1  0.50051999  0.17472970  0.75074913  1
  Cu  Cu114  1  0.16446370  0.50168240  0.25910182  1
  Se  Se115  1  0.07422424  0.07165121  0.05225321  1
  Se  Se116  1  0.07507393  0.08861950  0.56301226  1
  Se  Se117  1  0.07359517  0.40415403  0.06154042  1
  Se  Se118  1  0.11396651  0.44102815  0.55046202  1
  Se  Se119  1  0.07558318  0.73623167  0.05835428  1
  Se  Se120  1  0.08176309  0.74898278  0.54955420  1
  Se  Se121  1  0.42177486  0.09029142  0.05740719  1
  Se  Se122  1  0.40982805  0.07693005  0.55327574  1
  Se  Se123  1  0.41707348  0.42090348  0.05622752  1
  Se  Se124  1  0.42291052  0.41300968  0.55268747  1
  Se  Se125  1  0.41694266  0.74379793  0.06548620  1
  Se  Se126  1  0.43142977  0.76613972  0.54368060  1
  Se  Se127  1  0.74860982  0.08159311  0.05891081  1
  Se  Se128  1  0.74912561  0.08568595  0.55300373  1
  Se  Se129  1  0.74931550  0.41869699  0.05847468  1
  Se  Se130  1  0.75130945  0.41668926  0.55521980  1
  Se  Se131  1  0.74632934  0.74188231  0.06932525  1
  Se  Se132  1  0.75183717  0.74528390  0.55046468  1
  Se  Se133  1  0.25382241  0.25497761  0.06475501  1
  Se  Se134  1  0.25480626  0.25487093  0.55620895  1
  Se  Se135  1  0.25504446  0.58152594  0.06957852  1
  Se  Se136  1  0.28297136  0.61062666  0.55416997  1
  Se  Se137  1  0.26334034  0.92307580  0.06064884  1
  Se  Se138  1  0.24175994  0.92161396  0.54583354  1
  Se  Se139  1  0.58148407  0.25306037  0.05386202  1
  Se  Se140  1  0.58951571  0.25341371  0.56121803  1
  Se  Se141  1  0.58075833  0.58177066  0.06007258  1
  Se  Se142  1  0.58560090  0.57448078  0.55146492  1
  Se  Se143  1  0.59367194  0.92390246  0.05360750  1
  Se  Se144  1  0.58154504  0.91621008  0.54869043  1
  Se  Se145  1  0.91680365  0.25488460  0.06500193  1
  Se  Se146  1  0.91369999  0.25174589  0.54880918  1
  Se  Se147  1  0.91669248  0.58071949  0.05813646  1
  Se  Se148  1  0.91874931  0.58408401  0.54890936  1
  Se  Se149  1  0.92831750  0.92229542  0.05407402  1
  Se  Se150  1  0.91346916  0.91722745  0.55629751  1
  Se  Se151  1  0.07393824  0.26798447  0.44928754  1
  Se  Se152  1  0.07105091  0.25979606  0.94217154  1
  Se  Se153  1  0.08438033  0.58353400  0.44349418  1
  Se  Se154  1  0.07257655  0.58912287  0.94445093  1
  Se  Se155  1  0.07850606  0.92741779  0.44837315  1
  Se  Se156  1  0.08042622  0.91971527  0.93774084  1
  Se  Se157  1  0.41386486  0.25588759  0.43845853  1
  Se  Se158  1  0.41680930  0.25134950  0.94916942  1
  Se  Se159  1  0.41462239  0.58459240  0.45269421  1
  Se  Se160  1  0.42335557  0.58059261  0.95329871  1
  Se  Se161  1  0.42053043  0.91814124  0.44164519  1
  Se  Se162  1  0.41009839  0.92292195  0.93712024  1
  Se  Se163  1  0.75255471  0.25047586  0.44722733  1
  Se  Se164  1  0.74233667  0.26628778  0.93830769  1
  Se  Se165  1  0.75377944  0.57658498  0.44795724  1
  Se  Se166  1  0.75593590  0.58078523  0.95203594  1
  Se  Se167  1  0.75564669  0.91243109  0.45074948  1
  Se  Se168  1  0.74612955  0.92125323  0.93652203  1
  Se  Se169  1  0.26370733  0.08746675  0.43081916  1
  Se  Se170  1  0.25793294  0.07830812  0.94111995  1
  Se  Se171  1  0.24968844  0.42090866  0.44569370  1
  Se  Se172  1  0.25004529  0.40898559  0.94278806  1
  Se  Se173  1  0.22808456  0.77093070  0.44359757  1
  Se  Se174  1  0.25604481  0.73263655  0.94876659  1
  Se  Se175  1  0.59597346  0.07613207  0.43304639  1
  Se  Se176  1  0.58167133  0.08986896  0.94523623  1
  Se  Se177  1  0.58123635  0.41347248  0.44695060  1
  Se  Se178  1  0.57643803  0.42357457  0.94945766  1
  Se  Se179  1  0.58545920  0.74568937  0.44708514  1
  Se  Se180  1  0.59822217  0.73896974  0.94179358  1
  Se  Se181  1  0.91254549  0.09006044  0.45140535  1
  Se  Se182  1  0.92279663  0.07515699  0.94104336  1
  Se  Se183  1  0.91476711  0.42238287  0.45308240  1
  Se  Se184  1  0.90877840  0.41181381  0.94767678  1
  Se  Se185  1  0.91076071  0.75323302  0.44515405  1
  Se  Se186  1  0.92472597  0.74089573  0.94351133  1
  Se  Se187  1  0.24910582  0.25503730  0.30373890  1
  Se  Se188  1  0.24805985  0.25116240  0.79845324  1
  Se  Se189  1  0.25166440  0.58456308  0.30791445  1
  Se  Se190  1  0.25523031  0.57744718  0.80233283  1
  Se  Se191  1  0.25498489  0.91697795  0.30407009  1
  Se  Se192  1  0.24903902  0.91168318  0.80496869  1
  Se  Se193  1  0.56267435  0.23046903  0.30196905  1
  Se  Se194  1  0.58250961  0.25632367  0.80635647  1
  Se  Se195  1  0.58363949  0.58286788  0.30901281  1
  Se  Se196  1  0.58083797  0.58003513  0.81057782  1
  Se  Se197  1  0.58488039  0.90870789  0.31506393  1
  Se  Se198  1  0.58197935  0.92078640  0.79313983  1
  Se  Se199  1  0.91740813  0.25912134  0.30820055  1
  Se  Se200  1  0.91468551  0.24955332  0.80021590  1
  Se  Se201  1  0.91706577  0.57974376  0.30708598  1
  Se  Se202  1  0.91190491  0.57952901  0.80812415  1
  Se  Se203  1  0.91743395  0.90994985  0.31061794  1
  Se  Se204  1  0.91629214  0.92027585  0.79781037  1
  Se  Se205  1  0.08464969  0.09153733  0.31545112  1
  Se  Se206  1  0.07832209  0.08440281  0.79840828  1
  Se  Se207  1  0.08016131  0.41448543  0.30754568  1
  Se  Se208  1  0.08418869  0.42499494  0.80469091  1
  Se  Se209  1  0.08036770  0.74699961  0.30522830  1
  Se  Se210  1  0.09258962  0.75492313  0.81030185  1
  Se  Se211  1  0.42150280  0.08007059  0.28907340  1
  Se  Se212  1  0.41886881  0.09048224  0.80930783  1
  Se  Se213  1  0.41400513  0.41839841  0.30727643  1
  Se  Se214  1  0.41422416  0.41500610  0.80722842  1
  Se  Se215  1  0.41522228  0.74523959  0.31100619  1
  Se  Se216  1  0.42407580  0.75655021  0.80115600  1
  Se  Se217  1  0.75918908  0.08560181  0.31296111  1
  Se  Se218  1  0.74089231  0.08438502  0.80036554  1
  Se  Se219  1  0.74382834  0.41164853  0.30891676  1
  Se  Se220  1  0.74072554  0.41937931  0.80104008  1
  Se  Se221  1  0.74822795  0.74048775  0.30611101  1
  Se  Se222  1  0.75440496  0.75690042  0.80392562  1
  Se  Se223  1  0.24953031  0.08186929  0.20144339  1
  Se  Se224  1  0.24176467  0.09449599  0.68332968  1
  Se  Se225  1  0.24710000  0.41695055  0.20485741  1
  Se  Se226  1  0.25704040  0.41689929  0.69259990  1
  Se  Se227  1  0.25260430  0.74331304  0.20381610  1
  Se  Se228  1  0.23158841  0.75438732  0.68231404  1
  Se  Se229  1  0.58363531  0.08857521  0.18510163  1
  Se  Se230  1  0.57596628  0.08713485  0.69479564  1
  Se  Se231  1  0.58000129  0.41644549  0.19796266  1
  Se  Se232  1  0.58968801  0.41375936  0.69835013  1
  Se  Se233  1  0.58647646  0.74667844  0.20672889  1
  Se  Se234  1  0.57449387  0.74891913  0.67941413  1
  Se  Se235  1  0.90776632  0.09065066  0.19472177  1
  Se  Se236  1  0.91249218  0.08590637  0.69528808  1
  Se  Se237  1  0.91517036  0.41480749  0.20311962  1
  Se  Se238  1  0.92877331  0.41350678  0.68155021  1
  Se  Se239  1  0.92399820  0.74388253  0.20412067  1
  Se  Se240  1  0.90793920  0.75509803  0.68784067  1
  Se  Se241  1  0.07937313  0.24791803  0.20046794  1
  Se  Se242  1  0.07988250  0.25852514  0.69545909  1
  Se  Se243  1  0.07996369  0.57852394  0.20026923  1
  Se  Se244  1  0.08564756  0.57128473  0.68430395  1
  Se  Se245  1  0.09625684  0.90467878  0.18801276  1
  Se  Se246  1  0.07504852  0.92021200  0.69577514  1
  Se  Se247  1  0.40109291  0.27012099  0.19525120  1
  Se  Se248  1  0.41404575  0.25714939  0.70068272  1
  Se  Se249  1  0.41188722  0.58620838  0.20529034  1
  Se  Se250  1  0.42905708  0.56936461  0.68711876  1
  Se  Se251  1  0.42428857  0.91255547  0.19983361  1
  Se  Se252  1  0.41205702  0.90453301  0.67768445  1
  Se  Se253  1  0.74536442  0.25555622  0.20488581  1
  Se  Se254  1  0.74509231  0.25526334  0.69703588  1
  Se  Se255  1  0.74477970  0.57958960  0.20372048  1
  Se  Se256  1  0.76557362  0.56842940  0.69489640  1
  Se  Se257  1  0.76038287  0.90417897  0.19487557  1
  Se  Se258  1  0.74093169  0.92099206  0.69090671  1
