# generated using pymatgen
data_In86Cu29Se144
_symmetry_space_group_name_H-M   'P 1'
_cell_length_a   17.58268236
_cell_length_b   17.58315758
_cell_length_c   23.44495708
_cell_angle_alpha   89.99840292
_cell_angle_beta   89.97973729
_cell_angle_gamma   89.99906010
_symmetry_Int_Tables_number   1
_chemical_formula_structural   In86Cu29Se144
_chemical_formula_sum   'In86 Cu29 Se144'
_cell_volume   7248.22077853
_cell_formula_units_Z   1
loop_
 _symmetry_equiv_pos_site_id
 _symmetry_equiv_pos_as_xyz
  1  'x, y, z'
loop_
 _atom_site_type_symbol
 _atom_site_label
 _atom_site_symmetry_multiplicity
 _atom_site_fract_x
 _atom_site_fract_y
 _atom_site_fract_z
 _atom_site_occupancy
  In  In0  1  -0.01973147  0.16762812  0.12592454  1
  In  In1  1  -0.01096258  0.16085892  0.62053948  1
  In  In2  1  -0.00063818  0.49691186  0.11555391  1
  In  In3  1  0.00052714  0.50901540  0.61762971  1
  In  In4  1  0.01166308  0.83561366  0.12431751  1
  In  In5  1  -0.01140775  0.83736049  0.63295197  1
  In  In6  1  0.34633324  0.16882161  0.11993307  1
  In  In7  1  0.33564305  0.18560849  0.62837239  1
  In  In8  1  0.33221051  0.49458719  0.12360306  1
  In  In9  1  0.32825160  0.48796048  0.62698802  1
  In  In10  1  0.33141421  0.84480743  0.10142938  1
  In  In11  1  0.33589494  0.83001194  0.62717796  1
  In  In12  1  0.67402607  0.17674389  0.11553687  1
  In  In13  1  0.67403711  0.16699698  0.62960698  1
  In  In14  1  0.66122630  0.49532986  0.11888607  1
  In  In15  1  0.66509840  0.49789544  0.61817661  1
  In  In16  1  0.66630499  0.84474346  0.11893754  1
  In  In17  1  0.68709830  0.81544459  0.64913587  1
  In  In18  1  0.16545717  0.02009719  0.37697130  1
  In  In19  1  0.15139422  -0.00511595  0.87278051  1
  In  In20  1  0.16480405  0.33117548  0.37808325  1
  In  In21  1  0.17978047  0.33594089  0.86785591  1
  In  In22  1  0.15596783  0.66186981  0.38306225  1
  In  In23  1  0.16202295  0.66821694  0.87439504  1
  In  In24  1  0.50607591  -0.00510207  0.37188631  1
  In  In25  1  0.50952279  -0.00873734  0.88430396  1
  In  In26  1  0.51735547  0.34633785  0.35986767  1
  In  In27  1  0.50357767  0.33545258  0.87422528  1
  In  In28  1  0.49713068  0.65718114  0.37949225  1
  In  In29  1  0.50286892  0.66131076  0.87726717  1
  In  In30  1  0.84454744  -0.00867808  0.38290105  1
  In  In31  1  0.83714200  0.00615618  0.86969709  1
  In  In32  1  0.82014233  0.33277832  0.38693995  1
  In  In33  1  0.82327977  0.34748768  0.87827092  1
  In  In34  1  0.84321712  0.64674847  0.40752925  1
  In  In35  1  0.81930421  0.65703571  0.86302094  1
  In  In36  1  0.00428248  0.16386483  0.37934869  1
  In  In37  1  -0.00285697  0.15300351  0.87212709  1
  In  In38  1  0.00293470  0.50600161  0.39004105  1
  In  In39  1  -0.00694531  0.50686727  0.87422397  1
  In  In40  1  -0.01070759  0.82572590  0.37681218  1
  In  In41  1  0.00504467  0.83364783  0.86957905  1
  In  In42  1  0.31800310  0.17399143  0.37703957  1
  In  In43  1  0.33380838  0.18274222  0.87448833  1
  In  In44  1  0.34333224  0.48335218  0.37995480  1
  In  In45  1  0.33859899  0.49512314  0.87597173  1
  In  In46  1  0.34430085  0.83230742  0.37570006  1
  In  In47  1  0.33656102  0.83328197  0.88622644  1
  In  In48  1  0.66213091  0.17949521  0.38064637  1
  In  In49  1  0.66932747  0.17145373  0.87389810  1
  In  In50  1  0.68663147  0.46929984  0.40579099  1
  In  In51  1  0.66585191  0.49931997  0.87162914  1
  In  In52  1  0.67617038  0.83739109  0.38159953  1
  In  In53  1  0.64921383  0.82744037  0.85834262  1
  In  In54  1  0.17070026  -0.00860069  0.12085568  1
  In  In55  1  0.15041411  -0.00369053  0.62710821  1
  In  In56  1  0.16602202  0.35093527  0.12364926  1
  In  In57  1  0.17789581  0.34626808  0.62348548  1
  In  In58  1  0.16596095  0.66971085  0.11621188  1
  In  In59  1  0.15818140  0.64088322  0.63034044  1
  In  In60  1  0.49531502  0.00496561  0.10275333  1
  In  In61  1  0.50714958  0.00388328  0.63652948  1
  In  In62  1  0.50217319  0.33392541  0.12264181  1
  In  In63  1  0.49865183  0.34131736  0.62886215  1
  In  In64  1  0.49667927  0.66408044  0.11027088  1
  In  In65  1  0.54584558  0.65467328  0.63692021  1
  In  In66  1  0.82615311  0.00866650  0.12822464  1
  In  In67  1  0.83551808  -0.00136180  0.62969132  1
  In  In68  1  0.82962683  0.33241241  0.11966286  1
  In  In69  1  0.82057313  0.33402690  0.60869513  1
  In  In70  1  0.84146783  0.65967426  0.12525201  1
  In  In71  1  0.82806970  0.66746804  0.61969502  1
  In  In72  1  0.82825883  0.83274635  -0.00889222  1
  In  In73  1  0.66785019  0.01098403  0.24332904  1
  In  In74  1  -0.00089054  0.33344032  0.74433545  1
  In  In75  1  0.16042317  0.82708898  0.50674303  1
  In  In76  1  -0.00598009  0.33583461  0.24994456  1
  In  In77  1  0.33616168  0.00841446  0.24444421  1
  In  In78  1  0.33834360  0.66271051  0.75685662  1
  In  In79  1  0.33254600  0.00451199  0.76096769  1
  In  In80  1  0.51211198  0.82239621  0.51621838  1
  In  In81  1  0.67271584  0.65994599  0.25544293  1
  In  In82  1  0.16418520  0.16605419  -0.00400393  1
  In  In83  1  -0.00507337  0.65970560  0.26417148  1
  In  In84  1  0.50079505  0.17479502  0.50574836  1
  In  In85  1  0.32545121  0.66171211  0.23950676  1
  Cu  Cu86  1  0.16134781  0.17454232  0.25305656  1
  Cu  Cu87  1  0.83132001  0.16484067  0.25079074  1
  Cu  Cu88  1  0.66498732  0.00215273  -0.00495603  1
  Cu  Cu89  1  0.84113109  0.82873040  0.26283750  1
  Cu  Cu90  1  0.83225663  0.17121686  0.74604541  1
  Cu  Cu91  1  0.00012863  0.00236676  0.50401269  1
  Cu  Cu92  1  0.50066145  0.82987496  0.23802588  1
  Cu  Cu93  1  0.33399322  0.00482238  0.49808589  1
  Cu  Cu94  1  0.16678964  0.50551666  0.24941893  1
  Cu  Cu95  1  0.33134957  0.65806834  0.50802737  1
  Cu  Cu96  1  0.51096494  0.48984774  0.25059054  1
  Cu  Cu97  1  0.00643661  0.32736707  0.50497012  1
  Cu  Cu98  1  0.16690267  0.16524238  0.74937990  1
  Cu  Cu99  1  -0.00588763  -0.00181716  -0.00367052  1
  Cu  Cu100  1  0.16545529  0.84718323  0.24568046  1
  Cu  Cu101  1  0.83562123  0.83472418  0.75387752  1
  Cu  Cu102  1  0.66421859  0.33507398  -0.00322460  1
  Cu  Cu103  1  0.33076428  0.66156407  -0.00441733  1
  Cu  Cu104  1  0.33053356  0.33053118  0.49919484  1
  Cu  Cu105  1  0.50056899  0.17673755  0.24456122  1
  Cu  Cu106  1  0.33702551  0.34013287  -0.00208535  1
  Cu  Cu107  1  0.50861862  0.17564196  0.75126191  1
  Cu  Cu108  1  0.50556612  0.49876026  0.75185387  1
  Cu  Cu109  1  0.66821443  0.66327383  -0.00920242  1
  Cu  Cu110  1  0.15929199  0.82396338  0.74734981  1
  Cu  Cu111  1  0.67812662  0.00149222  0.50700347  1
  Cu  Cu112  1  0.82663067  0.50083369  0.74292697  1
  Cu  Cu113  1  -0.00163562  0.66360426  -0.00303299  1
  Cu  Cu114  1  -0.00187287  0.33425107  -0.00351045  1
  Se  Se115  1  0.07121755  0.08067169  0.05899791  1
  Se  Se116  1  0.08528935  0.08544383  0.55459099  1
  Se  Se117  1  0.08448500  0.41775489  0.04676578  1
  Se  Se118  1  0.08467931  0.41710831  0.55568058  1
  Se  Se119  1  0.07852924  0.75031225  0.04985454  1
  Se  Se120  1  0.07575772  0.74203501  0.57013148  1
  Se  Se121  1  0.39891865  0.07981884  0.04333873  1
  Se  Se122  1  0.41178450  0.07884669  0.56446197  1
  Se  Se123  1  0.42060049  0.42047036  0.05429394  1
  Se  Se124  1  0.41306684  0.41177958  0.55508999  1
  Se  Se125  1  0.41628586  0.75050081  0.04418077  1
  Se  Se126  1  0.41591252  0.73086069  0.56932303  1
  Se  Se127  1  0.74971289  0.08075369  0.05161618  1
  Se  Se128  1  0.75744634  0.08673329  0.55996187  1
  Se  Se129  1  0.74959395  0.41711348  0.05094826  1
  Se  Se130  1  0.76133275  0.43882951  0.54356420  1
  Se  Se131  1  0.74453886  0.74099876  0.05818808  1
  Se  Se132  1  0.73918275  0.75608405  0.55895678  1
  Se  Se133  1  0.25187192  0.26008730  0.05686865  1
  Se  Se134  1  0.24756610  0.24960646  0.55447823  1
  Se  Se135  1  0.25166847  0.58156483  0.05600150  1
  Se  Se136  1  0.24672446  0.57391033  0.55754951  1
  Se  Se137  1  0.23593579  0.91879111  0.04043661  1
  Se  Se138  1  0.25649881  0.92331068  0.55973802  1
  Se  Se139  1  0.58103621  0.25072077  0.05040119  1
  Se  Se140  1  0.59457309  0.26181245  0.56140203  1
  Se  Se141  1  0.58544594  0.58153443  0.04784357  1
  Se  Se142  1  0.56713878  0.56885881  0.55171582  1
  Se  Se143  1  0.58306498  0.91335997  0.04499280  1
  Se  Se144  1  0.59607206  0.92408289  0.56809056  1
  Se  Se145  1  0.91560851  0.25182108  0.05021792  1
  Se  Se146  1  0.91424148  0.24761660  0.55102819  1
  Se  Se147  1  0.91416259  0.58157508  0.05001493  1
  Se  Se148  1  0.90894038  0.58174411  0.55193553  1
  Se  Se149  1  0.91433952  0.91911523  0.05926634  1
  Se  Se150  1  0.91758086  0.91852179  0.55696986  1
  Se  Se151  1  0.08798272  0.24554327  0.44750085  1
  Se  Se152  1  0.07699151  0.25655042  0.93304028  1
  Se  Se153  1  0.08493484  0.58672525  0.45876269  1
  Se  Se154  1  0.08342990  0.58118263  0.94410829  1
  Se  Se155  1  0.08218901  0.92319122  0.44094763  1
  Se  Se156  1  0.07795630  0.91268613  0.94710132  1
  Se  Se157  1  0.41534159  0.25678938  0.43670643  1
  Se  Se158  1  0.41885533  0.25516884  0.94619216  1
  Se  Se159  1  0.41229050  0.57931012  0.44762593  1
  Se  Se160  1  0.41789270  0.58020422  0.94481027  1
  Se  Se161  1  0.42053640  0.91989230  0.44884378  1
  Se  Se162  1  0.41329946  0.92339743  0.94979208  1
  Se  Se163  1  0.74975002  0.23953346  0.45476660  1
  Se  Se164  1  0.75178277  0.25282624  0.94520111  1
  Se  Se165  1  0.73822152  0.58084215  0.46576311  1
  Se  Se166  1  0.75306655  0.57888701  0.94226463  1
  Se  Se167  1  0.75731103  0.91444373  0.45245457  1
  Se  Se168  1  0.73905171  0.92049930  0.93130202  1
  Se  Se169  1  0.24818523  0.09025367  0.45199943  1
  Se  Se170  1  0.24979133  0.07990695  0.93159870  1
  Se  Se171  1  0.24629809  0.41546370  0.44646987  1
  Se  Se172  1  0.24811638  0.41721024  0.94461845  1
  Se  Se173  1  0.26146875  0.74469561  0.44516227  1
  Se  Se174  1  0.24639793  0.74647142  0.94508295  1
  Se  Se175  1  0.58780466  0.07205658  0.44705775  1
  Se  Se176  1  0.58439204  0.09103009  0.94451193  1
  Se  Se177  1  0.56516791  0.41170289  0.44986931  1
  Se  Se178  1  0.58303262  0.42058418  0.94372365  1
  Se  Se179  1  0.59099706  0.74170617  0.44265951  1
  Se  Se180  1  0.58681200  0.75144408  0.94145011  1
  Se  Se181  1  0.91813177  0.08531250  0.44824229  1
  Se  Se182  1  0.91187231  0.08462647  0.94698107  1
  Se  Se183  1  0.92492809  0.40506166  0.44515575  1
  Se  Se184  1  0.91628265  0.42077571  0.94495245  1
  Se  Se185  1  0.92548481  0.74883720  0.45519322  1
  Se  Se186  1  0.91683066  0.74012015  0.93396247  1
  Se  Se187  1  0.24748017  0.25723964  0.30265465  1
  Se  Se188  1  0.25316448  0.25007449  0.79627723  1
  Se  Se189  1  0.24663686  0.58085820  0.31394139  1
  Se  Se190  1  0.24279947  0.57287555  0.80849724  1
  Se  Se191  1  0.25136919  0.91704885  0.31044234  1
  Se  Se192  1  0.24042043  0.90231903  0.80871751  1
  Se  Se193  1  0.59307670  0.24901322  0.29792724  1
  Se  Se194  1  0.59101825  0.25890530  0.80436941  1
  Se  Se195  1  0.58245533  0.57140767  0.31432450  1
  Se  Se196  1  0.58532871  0.58734486  0.80321661  1
  Se  Se197  1  0.58395368  0.90467868  0.30117693  1
  Se  Se198  1  0.58036964  0.93112640  0.79980329  1
  Se  Se199  1  0.90931479  0.24563810  0.31206328  1
  Se  Se200  1  0.91091540  0.24852624  0.81090294  1
  Se  Se201  1  0.90104281  0.56947276  0.31840566  1
  Se  Se202  1  0.91203147  0.57966203  0.79835986  1
  Se  Se203  1  0.92534269  0.91997544  0.30592537  1
  Se  Se204  1  0.91979583  0.91865685  0.80477997  1
  Se  Se205  1  0.08037559  0.08624689  0.30197971  1
  Se  Se206  1  0.08235840  0.08114447  0.79899870  1
  Se  Se207  1  0.08402951  0.42825111  0.30973641  1
  Se  Se208  1  0.08538821  0.42118333  0.80742634  1
  Se  Se209  1  0.09603362  0.75916287  0.30723951  1
  Se  Se210  1  0.07671533  0.74084394  0.80093305  1
  Se  Se211  1  0.42609965  0.09487701  0.30987746  1
  Se  Se212  1  0.42783408  0.09613949  0.81272355  1
  Se  Se213  1  0.41378614  0.41363063  0.29785303  1
  Se  Se214  1  0.41922099  0.41690431  0.80361765  1
  Se  Se215  1  0.42292302  0.75025029  0.30025450  1
  Se  Se216  1  0.42341991  0.76053093  0.81134362  1
  Se  Se217  1  0.75430618  0.08550680  0.31521544  1
  Se  Se218  1  0.75138302  0.08845551  0.80335741  1
  Se  Se219  1  0.74843470  0.41759039  0.31492779  1
  Se  Se220  1  0.74761781  0.41766993  0.79957484  1
  Se  Se221  1  0.76368753  0.74480105  0.32025253  1
  Se  Se222  1  0.74477021  0.74914098  0.79741603  1
  Se  Se223  1  0.23982632  0.09746745  0.18732629  1
  Se  Se224  1  0.24813400  0.08486743  0.68840984  1
  Se  Se225  1  0.24989635  0.42055120  0.19864645  1
  Se  Se226  1  0.25153585  0.41423435  0.70315929  1
  Se  Se227  1  0.24514380  0.76664368  0.18413762  1
  Se  Se228  1  0.24274699  0.74661087  0.68979193  1
  Se  Se229  1  0.57106867  0.08955276  0.18166603  1
  Se  Se230  1  0.59003357  0.08872665  0.70086430  1
  Se  Se231  1  0.59166670  0.40974355  0.19324675  1
  Se  Se232  1  0.58961000  0.41739057  0.69561429  1
  Se  Se233  1  0.58581858  0.74819183  0.18429563  1
  Se  Se234  1  0.56601394  0.77003914  0.70080944  1
  Se  Se235  1  0.91445738  0.07929619  0.20012486  1
  Se  Se236  1  0.91890731  0.08426630  0.69881629  1
  Se  Se237  1  0.90891232  0.42686092  0.18974744  1
  Se  Se238  1  0.90612731  0.41797842  0.68382884  1
  Se  Se239  1  0.91711595  0.75479893  0.19541055  1
  Se  Se240  1  0.90879410  0.74603708  0.69591840  1
  Se  Se241  1  0.08514067  0.24876148  0.18601728  1
  Se  Se242  1  0.08919839  0.24268674  0.68456928  1
  Se  Se243  1  0.08418122  0.58336248  0.19049137  1
  Se  Se244  1  0.07227809  0.57269306  0.70202725  1
  Se  Se245  1  0.07937724  0.92836631  0.19483964  1
  Se  Se246  1  0.07810082  0.91560581  0.70107985  1
  Se  Se247  1  0.41324547  0.25583790  0.19313267  1
  Se  Se248  1  0.42066823  0.25615793  0.70034814  1
  Se  Se249  1  0.43214185  0.57619813  0.19166783  1
  Se  Se250  1  0.42615185  0.57932294  0.68979623  1
  Se  Se251  1  0.42118834  0.91292176  0.18177615  1
  Se  Se252  1  0.41813095  0.91263515  0.69793396  1
  Se  Se253  1  0.75386903  0.24692400  0.19253485  1
  Se  Se254  1  0.75534007  0.25950737  0.69269200  1
  Se  Se255  1  0.75796827  0.57246233  0.19116171  1
  Se  Se256  1  0.74310951  0.58450864  0.68942663  1
  Se  Se257  1  0.75991230  0.90391239  0.19801550  1
  Se  Se258  1  0.75320444  0.92438670  0.70420624  1
