# generated using pymatgen
data_In86Cu29Se144
_symmetry_space_group_name_H-M   'P 1'
_cell_length_a   17.58402080
_cell_length_b   17.59064191
_cell_length_c   23.44669684
_cell_angle_alpha   89.95432133
_cell_angle_beta   90.00172363
_cell_angle_gamma   90.00137407
_symmetry_Int_Tables_number   1
_chemical_formula_structural   In86Cu29Se144
_chemical_formula_sum   'In86 Cu29 Se144'
_cell_volume   7252.39427438
_cell_formula_units_Z   1
loop_
 _symmetry_equiv_pos_site_id
 _symmetry_equiv_pos_as_xyz
  1  'x, y, z'
loop_
 _atom_site_type_symbol
 _atom_site_label
 _atom_site_symmetry_multiplicity
 _atom_site_fract_x
 _atom_site_fract_y
 _atom_site_fract_z
 _atom_site_occupancy
  In  In0  1  0.01353187  0.16225369  0.12470768  1
  In  In1  1  0.00483263  0.16579237  0.61278693  1
  In  In2  1  0.01626114  0.51459330  0.11105129  1
  In  In3  1  0.00405519  0.50829900  0.61985637  1
  In  In4  1  0.00074802  0.82651080  0.12505642  1
  In  In5  1  0.00035545  0.82402507  0.62588117  1
  In  In6  1  0.32880025  0.16996194  0.11763902  1
  In  In7  1  0.33420196  0.16916057  0.62575096  1
  In  In8  1  0.33439996  0.51276607  0.12175532  1
  In  In9  1  0.31969140  0.48763175  0.62078030  1
  In  In10  1  0.32506552  0.82609923  0.11612307  1
  In  In11  1  0.32878493  0.84771319  0.63015245  1
  In  In12  1  0.66136994  0.17583867  0.12300175  1
  In  In13  1  0.66212392  0.17205045  0.62947025  1
  In  In14  1  0.67762535  0.50011905  0.12209596  1
  In  In15  1  0.66578539  0.49955526  0.62439324  1
  In  In16  1  0.65001350  0.82974863  0.11948110  1
  In  In17  1  0.66951859  0.83356342  0.63613663  1
  In  In18  1  0.16184334  0.00255169  0.38669706  1
  In  In19  1  0.18230013  -0.01364122  0.88185407  1
  In  In20  1  0.17254049  0.33317880  0.38037042  1
  In  In21  1  0.18660990  0.31505872  0.89828306  1
  In  In22  1  0.16770540  0.66450887  0.37486222  1
  In  In23  1  0.15837613  0.67577566  0.87510149  1
  In  In24  1  0.50441058  0.00603129  0.37827769  1
  In  In25  1  0.49753818  0.00039044  0.87271614  1
  In  In26  1  0.50217937  0.33072525  0.38295552  1
  In  In27  1  0.48456662  0.31954180  0.86297749  1
  In  In28  1  0.49146806  0.65453352  0.36867692  1
  In  In29  1  0.51549440  0.66374409  0.87384251  1
  In  In30  1  0.84661405  0.00376842  0.38377192  1
  In  In31  1  0.83144974  0.00932965  0.86847292  1
  In  In32  1  0.83427932  0.33270271  0.38757894  1
  In  In33  1  0.83728470  0.34883015  0.87417657  1
  In  In34  1  0.82769663  0.65631479  0.36872645  1
  In  In35  1  0.83448459  0.65797344  0.87013771  1
  In  In36  1  0.00327665  0.16033666  0.39081176  1
  In  In37  1  0.01474467  0.16609983  0.88189976  1
  In  In38  1  -0.00696181  0.50543311  0.37860870  1
  In  In39  1  -0.00256398  0.49717007  0.88321991  1
  In  In40  1  0.01739191  0.82869718  0.37563653  1
  In  In41  1  0.03595680  0.83064324  0.87153896  1
  In  In42  1  0.33384903  0.16750060  0.37857391  1
  In  In43  1  0.33986282  0.16791884  0.87446074  1
  In  In44  1  0.32564080  0.50550680  0.38284306  1
  In  In45  1  0.33075119  0.48312579  0.87437349  1
  In  In46  1  0.33059986  0.81688003  0.37416466  1
  In  In47  1  0.32227557  0.84492623  0.87802633  1
  In  In48  1  0.66158436  0.17286000  0.38613565  1
  In  In49  1  0.65243694  0.15583768  0.86371005  1
  In  In50  1  0.66311722  0.50056128  0.38152202  1
  In  In51  1  0.67280336  0.50675742  0.86610906  1
  In  In52  1  0.67822927  0.82902320  0.37572193  1
  In  In53  1  0.66224145  0.82563682  0.87085954  1
  In  In54  1  0.17254277  0.00664218  0.11019608  1
  In  In55  1  0.17231852  0.01147564  0.62000993  1
  In  In56  1  0.16114351  0.33088174  0.10841935  1
  In  In57  1  0.16847073  0.33490931  0.62376518  1
  In  In58  1  0.16698613  0.66906699  0.12392763  1
  In  In59  1  0.15915293  0.66097192  0.62295043  1
  In  In60  1  0.50383382  0.00210547  0.11608310  1
  In  In61  1  0.48659282  0.00989406  0.63436516  1
  In  In62  1  0.49653073  0.32752927  0.11516264  1
  In  In63  1  0.49751386  0.33410612  0.62659609  1
  In  In64  1  0.48830819  0.66823057  0.13064244  1
  In  In65  1  0.51200906  0.66578414  0.62690348  1
  In  In66  1  0.83896381  0.00354402  0.12550802  1
  In  In67  1  0.82419040  -0.00146786  0.62865049  1
  In  In68  1  0.81780745  0.34015407  0.12154319  1
  In  In69  1  0.82592380  0.32778774  0.62194141  1
  In  In70  1  0.84364634  0.65713624  0.13198519  1
  In  In71  1  0.84132063  0.66070459  0.62837769  1
  In  In72  1  0.49552574  0.83286942  0.50435862  1
  In  In73  1  0.00044492  0.34054017  0.24298579  1
  In  In74  1  0.33310282  0.33609623  0.24410791  1
  In  In75  1  0.83519469  0.17334624  -0.00571616  1
  In  In76  1  0.33494695  0.66851893  0.74830114  1
  In  In77  1  -0.00152034  -0.00418153  0.74886061  1
  In  In78  1  0.00730106  -0.00442486  0.25904755  1
  In  In79  1  0.00423853  0.33618106  0.75743085  1
  In  In80  1  0.66205797  0.33890089  0.25832764  1
  In  In81  1  0.83740300  0.83570687  0.50679239  1
  In  In82  1  0.33339627  -0.00192795  0.24428208  1
  In  In83  1  0.49645936  0.49746793  -0.00435353  1
  In  In84  1  0.83878251  0.83154744  0.00248639  1
  In  In85  1  0.66914474  -0.00513311  0.24577425  1
  Cu  Cu86  1  0.66222921  0.01068543  0.50906327  1
  Cu  Cu87  1  0.33255234  0.00420705  0.50542238  1
  Cu  Cu88  1  0.17221148  0.82861824  0.24807807  1
  Cu  Cu89  1  0.00013652  0.66502574  0.49922328  1
  Cu  Cu90  1  0.83255567  0.82856554  0.75266569  1
  Cu  Cu91  1  0.66318931  0.66046770  0.49916452  1
  Cu  Cu92  1  0.66182476  0.00128902  -0.00603313  1
  Cu  Cu93  1  0.83306663  0.50101128  0.74754346  1
  Cu  Cu94  1  0.49763717  0.16733185  0.74769599  1
  Cu  Cu95  1  0.65986637  0.33284390  -0.00647990  1
  Cu  Cu96  1  0.83349365  0.81931126  0.24922669  1
  Cu  Cu97  1  0.17562778  0.16532890  0.75196597  1
  Cu  Cu98  1  0.82726077  0.17317477  0.74910809  1
  Cu  Cu99  1  0.67051836  0.66274906  -0.00613272  1
  Cu  Cu100  1  0.33005172  0.67092509  -0.00041875  1
  Cu  Cu101  1  0.83843000  0.50918508  0.24840832  1
  Cu  Cu102  1  0.16953733  0.50739756  0.24913613  1
  Cu  Cu103  1  0.49986853  0.82384676  0.24774490  1
  Cu  Cu104  1  0.16381590  0.49661798  0.74851640  1
  Cu  Cu105  1  0.66462325  0.33527750  0.50663209  1
  Cu  Cu106  1  0.34033178  0.00326326  -0.00366056  1
  Cu  Cu107  1  0.33413157  0.33087443  0.50327989  1
  Cu  Cu108  1  0.50190637  0.83666907  0.75250569  1
  Cu  Cu109  1  0.50200400  0.50070236  0.25165418  1
  Cu  Cu110  1  0.50277715  0.49599326  0.74951824  1
  Cu  Cu111  1  0.83605720  0.16899928  0.26156499  1
  Cu  Cu112  1  0.00480548  0.34122126  0.50170759  1
  Cu  Cu113  1  0.00173506  0.66988743  -0.00031870  1
  Cu  Cu114  1  0.32765362  0.66523486  0.50028006  1
  Se  Se115  1  0.08016054  0.08433678  0.04810809  1
  Se  Se116  1  0.08907014  0.08540370  0.54770573  1
  Se  Se117  1  0.07222522  0.41183273  0.04659639  1
  Se  Se118  1  0.08885817  0.42184148  0.55591088  1
  Se  Se119  1  0.08507502  0.75307125  0.05331436  1
  Se  Se120  1  0.08202809  0.74878467  0.55244469  1
  Se  Se121  1  0.41809232  0.08725898  0.05339462  1
  Se  Se122  1  0.41896397  0.08680579  0.55507081  1
  Se  Se123  1  0.40224851  0.41004412  0.05418577  1
  Se  Se124  1  0.41614677  0.41704508  0.55527532  1
  Se  Se125  1  0.41995468  0.74795918  0.05258849  1
  Se  Se126  1  0.40583867  0.74247573  0.56492369  1
  Se  Se127  1  0.74304986  0.07843489  0.05675257  1
  Se  Se128  1  0.74974392  0.08889492  0.56154257  1
  Se  Se129  1  0.74388110  0.41703668  0.04508426  1
  Se  Se130  1  0.75158268  0.41997534  0.55456886  1
  Se  Se131  1  0.74635527  0.74076867  0.06018023  1
  Se  Se132  1  0.74054606  0.74424249  0.55918652  1
  Se  Se133  1  0.24743315  0.24628264  0.04718559  1
  Se  Se134  1  0.24842295  0.24842477  0.55593470  1
  Se  Se135  1  0.24740644  0.58621955  0.05188003  1
  Se  Se136  1  0.24536438  0.58114393  0.55485469  1
  Se  Se137  1  0.25458050  0.91770853  0.04756944  1
  Se  Se138  1  0.24918249  0.91653669  0.55318927  1
  Se  Se139  1  0.58127396  0.24675139  0.04718343  1
  Se  Se140  1  0.57996920  0.25013699  0.55691501  1
  Se  Se141  1  0.58584695  0.58727659  0.05744056  1
  Se  Se142  1  0.57926205  0.57961148  0.55318237  1
  Se  Se143  1  0.58039126  0.91508952  0.04668837  1
  Se  Se144  1  0.58591423  0.92117840  0.56534178  1
  Se  Se145  1  0.91595866  0.25288574  0.06697307  1
  Se  Se146  1  0.92006037  0.25753184  0.55400496  1
  Se  Se147  1  0.91367504  0.58733639  0.05047044  1
  Se  Se148  1  0.91327468  0.58332014  0.55093097  1
  Se  Se149  1  0.92874634  0.92783600  0.05752214  1
  Se  Se150  1  0.92619136  0.92841062  0.56302074  1
  Se  Se151  1  0.08629436  0.25479050  0.44880110  1
  Se  Se152  1  0.06571687  0.26705754  0.94979224  1
  Se  Se153  1  0.08438163  0.58245474  0.44450205  1
  Se  Se154  1  0.08385741  0.58691547  0.94474513  1
  Se  Se155  1  0.06926076  0.92414446  0.44743134  1
  Se  Se156  1  0.07919914  0.92481027  0.94683609  1
  Se  Se157  1  0.41682239  0.24764581  0.44824667  1
  Se  Se158  1  0.41657586  0.25386733  0.94493549  1
  Se  Se159  1  0.41640825  0.58515828  0.44859182  1
  Se  Se160  1  0.40828989  0.59170047  0.93581636  1
  Se  Se161  1  0.40704191  0.92154852  0.44042048  1
  Se  Se162  1  0.41913489  0.91498545  0.94357716  1
  Se  Se163  1  0.74856352  0.25036059  0.45292997  1
  Se  Se164  1  0.73973237  0.25301731  0.93142631  1
  Se  Se165  1  0.75217732  0.58266287  0.44633097  1
  Se  Se166  1  0.75313742  0.57855407  0.94303379  1
  Se  Se167  1  0.74024819  0.92732336  0.44834062  1
  Se  Se168  1  0.74852746  0.92173662  0.94002566  1
  Se  Se169  1  0.25159482  0.08640385  0.44790710  1
  Se  Se170  1  0.25424022  0.08512980  0.94357727  1
  Se  Se171  1  0.25041710  0.41651399  0.45067890  1
  Se  Se172  1  0.24534593  0.42852043  0.95254664  1
  Se  Se173  1  0.24513115  0.75007311  0.44789998  1
  Se  Se174  1  0.24650479  0.75236366  0.94416254  1
  Se  Se175  1  0.57732191  0.08698581  0.45169573  1
  Se  Se176  1  0.57815321  0.08631545  0.94352636  1
  Se  Se177  1  0.58207093  0.41687066  0.44948495  1
  Se  Se178  1  0.58378600  0.41345007  0.93027193  1
  Se  Se179  1  0.58536687  0.74565359  0.44057240  1
  Se  Se180  1  0.58516884  0.74962390  0.94763712  1
  Se  Se181  1  0.90633552  0.09324497  0.45588959  1
  Se  Se182  1  0.92360980  0.07372744  0.94241119  1
  Se  Se183  1  0.91673383  0.42156524  0.45005716  1
  Se  Se184  1  0.91688617  0.41190395  0.95158218  1
  Se  Se185  1  0.91756999  0.74548055  0.43907774  1
  Se  Se186  1  0.92435689  0.74863186  0.93539897  1
  Se  Se187  1  0.24584764  0.24546148  0.30561614  1
  Se  Se188  1  0.24885214  0.25255363  0.80967833  1
  Se  Se189  1  0.25490527  0.58449866  0.30543103  1
  Se  Se190  1  0.24629473  0.57781134  0.80906024  1
  Se  Se191  1  0.24440160  0.91321167  0.31065982  1
  Se  Se192  1  0.24407416  0.91223609  0.80002063  1
  Se  Se193  1  0.57345980  0.23918271  0.30761003  1
  Se  Se194  1  0.58393766  0.25295391  0.79767625  1
  Se  Se195  1  0.58839598  0.57982220  0.30556745  1
  Se  Se196  1  0.58532127  0.58488403  0.79696608  1
  Se  Se197  1  0.57629321  0.90620974  0.30876601  1
  Se  Se198  1  0.58679078  0.91904648  0.80568929  1
  Se  Se199  1  0.91982106  0.25108372  0.31423554  1
  Se  Se200  1  0.91239623  0.24018576  0.81331034  1
  Se  Se201  1  0.92522528  0.58828631  0.30170131  1
  Se  Se202  1  0.92115475  0.57376836  0.80521553  1
  Se  Se203  1  0.90718539  0.90429049  0.31051427  1
  Se  Se204  1  0.91461807  0.90479967  0.81430522  1
  Se  Se205  1  0.09232280  0.09548803  0.31143181  1
  Se  Se206  1  0.09191705  0.08393171  0.80826810  1
  Se  Se207  1  0.09151930  0.42383018  0.30857638  1
  Se  Se208  1  0.09716366  0.41730923  0.81866681  1
  Se  Se209  1  0.08738028  0.74642142  0.30123630  1
  Se  Se210  1  0.07863847  0.73818026  0.79451779  1
  Se  Se211  1  0.42250731  0.08746873  0.30586088  1
  Se  Se212  1  0.41570419  0.08288363  0.80253162  1
  Se  Se213  1  0.42136828  0.41993088  0.31106458  1
  Se  Se214  1  0.41206886  0.41537548  0.79732347  1
  Se  Se215  1  0.41397631  0.74460245  0.30164382  1
  Se  Se216  1  0.42273030  0.75483697  0.81311414  1
  Se  Se217  1  0.75256544  0.08453256  0.31415516  1
  Se  Se218  1  0.74681335  0.08178634  0.79728413  1
  Se  Se219  1  0.76413921  0.42386016  0.30993339  1
  Se  Se220  1  0.75118984  0.41543230  0.79977579  1
  Se  Se221  1  0.74428944  0.74299483  0.30200902  1
  Se  Se222  1  0.74898581  0.74364406  0.80506131  1
  Se  Se223  1  0.24056592  0.09020575  0.19067664  1
  Se  Se224  1  0.25469110  0.08181767  0.69565461  1
  Se  Se225  1  0.23948946  0.42364318  0.18508478  1
  Se  Se226  1  0.24780036  0.41092982  0.69912272  1
  Se  Se227  1  0.25559767  0.74700246  0.19381933  1
  Se  Se228  1  0.24106752  0.75437443  0.69074330  1
  Se  Se229  1  0.57795467  0.08939519  0.19280626  1
  Se  Se230  1  0.58377481  0.08268141  0.69761845  1
  Se  Se231  1  0.57500549  0.42046569  0.18724019  1
  Se  Se232  1  0.58588767  0.41454900  0.69419027  1
  Se  Se233  1  0.58566085  0.74345397  0.19466614  1
  Se  Se234  1  0.58277839  0.74975834  0.70057956  1
  Se  Se235  1  0.91463032  0.09082348  0.19920424  1
  Se  Se236  1  0.91349643  0.09541798  0.69121091  1
  Se  Se237  1  0.90937242  0.42830435  0.18346077  1
  Se  Se238  1  0.91623947  0.41888176  0.68950083  1
  Se  Se239  1  0.92519172  0.74500936  0.19754353  1
  Se  Se240  1  0.91685365  0.74875409  0.69751995  1
  Se  Se241  1  0.09674859  0.24800656  0.19336730  1
  Se  Se242  1  0.08648002  0.24050289  0.69408858  1
  Se  Se243  1  0.08295464  0.58580810  0.19368626  1
  Se  Se244  1  0.08113552  0.58145549  0.69738880  1
  Se  Se245  1  0.09483208  0.91484002  0.18962437  1
  Se  Se246  1  0.09104987  0.91432500  0.68714754  1
  Se  Se247  1  0.42508343  0.24127550  0.19069329  1
  Se  Se248  1  0.41360576  0.25266132  0.69650769  1
  Se  Se249  1  0.41291678  0.58035342  0.20027896  1
  Se  Se250  1  0.41975822  0.57413282  0.68774751  1
  Se  Se251  1  0.42568238  0.90756079  0.18656246  1
  Se  Se252  1  0.41397793  0.91828550  0.70271431  1
  Se  Se253  1  0.75508018  0.24414673  0.19875231  1
  Se  Se254  1  0.74491025  0.25793481  0.69816330  1
  Se  Se255  1  0.74558097  0.58498588  0.19679393  1
  Se  Se256  1  0.74932720  0.58386267  0.69354008  1
  Se  Se257  1  0.76010114  0.90227584  0.18642888  1
  Se  Se258  1  0.75151483  0.91798680  0.70352137  1
