# generated using pymatgen
data_In86Cu29Se144
_symmetry_space_group_name_H-M   'P 1'
_cell_length_a   17.58665888
_cell_length_b   17.57922004
_cell_length_c   23.44483002
_cell_angle_alpha   89.99677838
_cell_angle_beta   89.99750698
_cell_angle_gamma   89.98701067
_symmetry_Int_Tables_number   1
_chemical_formula_structural   In86Cu29Se144
_chemical_formula_sum   'In86 Cu29 Se144'
_cell_volume   7248.19749486
_cell_formula_units_Z   1
loop_
 _symmetry_equiv_pos_site_id
 _symmetry_equiv_pos_as_xyz
  1  'x, y, z'
loop_
 _atom_site_type_symbol
 _atom_site_label
 _atom_site_symmetry_multiplicity
 _atom_site_fract_x
 _atom_site_fract_y
 _atom_site_fract_z
 _atom_site_occupancy
  In  In0  1  0.00160658  0.17013769  0.13070828  1
  In  In1  1  0.00706717  0.17308877  0.62954072  1
  In  In2  1  -0.02892395  0.47049221  0.10724569  1
  In  In3  1  0.00786936  0.48138640  0.63384617  1
  In  In4  1  0.00672957  0.84376586  0.12776639  1
  In  In5  1  0.01619752  0.83827436  0.61862945  1
  In  In6  1  0.31627452  0.18453877  0.12999482  1
  In  In7  1  0.29303640  0.19713136  0.65607675  1
  In  In8  1  0.31215560  0.46274175  0.09126343  1
  In  In9  1  0.31794029  0.50790561  0.64575803  1
  In  In10  1  0.34020345  0.83886071  0.12714470  1
  In  In11  1  0.31468188  0.85402357  0.64134011  1
  In  In12  1  0.69962859  0.19004993  0.11428102  1
  In  In13  1  0.67796667  0.17235431  0.62392503  1
  In  In14  1  0.66872707  0.49395645  0.12393869  1
  In  In15  1  0.67087662  0.49975666  0.63810247  1
  In  In16  1  0.65528490  0.82121028  0.12785743  1
  In  In17  1  0.66049587  0.83006928  0.62676855  1
  In  In18  1  0.16481900  0.00278364  0.38464583  1
  In  In19  1  0.17810229  0.01928121  0.85788732  1
  In  In20  1  0.16348537  0.33246126  0.37385997  1
  In  In21  1  0.16688342  0.33298776  0.86338095  1
  In  In22  1  0.16802915  0.66526238  0.38519976  1
  In  In23  1  0.16892495  0.64690446  0.86611388  1
  In  In24  1  0.49337053  0.01730747  0.37206004  1
  In  In25  1  0.48568734  0.00873152  0.87639214  1
  In  In26  1  0.49819648  0.33680741  0.36406495  1
  In  In27  1  0.50472562  0.33947482  0.87588074  1
  In  In28  1  0.50299616  0.65389412  0.37339472  1
  In  In29  1  0.48520585  0.64682077  0.86642204  1
  In  In30  1  0.86873187  0.02322025  0.36022567  1
  In  In31  1  0.85742929  0.01587691  0.86884457  1
  In  In32  1  0.82932090  0.32392747  0.35766753  1
  In  In33  1  0.83340133  0.33074668  0.88351681  1
  In  In34  1  0.82484937  0.66811020  0.36679536  1
  In  In35  1  0.81965853  0.66156589  0.87099115  1
  In  In36  1  0.00362366  0.16950931  0.37818999  1
  In  In37  1  0.00283747  0.17188757  0.87197866  1
  In  In38  1  0.00564374  0.50011526  0.37190592  1
  In  In39  1  0.02586575  0.47506192  0.88545351  1
  In  In40  1  0.00910734  0.84491761  0.37505799  1
  In  In41  1  0.00078340  0.85242481  0.87181107  1
  In  In42  1  0.32547504  0.16060540  0.36447260  1
  In  In43  1  0.32081365  0.16644326  0.86493874  1
  In  In44  1  0.32560884  0.49210365  0.37188473  1
  In  In45  1  0.33168741  0.49516187  0.87052581  1
  In  In46  1  0.31427991  0.84018220  0.38603625  1
  In  In47  1  0.33824757  0.83085472  0.87001488  1
  In  In48  1  0.67492084  0.18484314  0.36995174  1
  In  In49  1  0.67266115  0.19416262  0.88189734  1
  In  In50  1  0.66768035  0.49352292  0.35709751  1
  In  In51  1  0.66062591  0.49227284  0.88592795  1
  In  In52  1  0.67814399  0.82657070  0.37479961  1
  In  In53  1  0.67338195  0.82166974  0.87647097  1
  In  In54  1  0.14985047  0.01842275  0.13828225  1
  In  In55  1  0.16493371  0.00663440  0.62693869  1
  In  In56  1  0.16523699  0.32594772  0.12162533  1
  In  In57  1  0.16045079  0.33381222  0.62543020  1
  In  In58  1  0.17751543  0.65841745  0.12548302  1
  In  In59  1  0.17024034  0.66994897  0.62530548  1
  In  In60  1  0.49726247  -0.00463705  0.12952797  1
  In  In61  1  0.49347142  -0.00568390  0.62462756  1
  In  In62  1  0.49081788  0.34249991  0.12067324  1
  In  In63  1  0.49413750  0.34045422  0.63124958  1
  In  In64  1  0.51312406  0.65128512  0.13051532  1
  In  In65  1  0.50317414  0.66092720  0.63294938  1
  In  In66  1  0.84237448  0.01858692  0.13011355  1
  In  In67  1  0.84104326  0.02562139  0.61688640  1
  In  In68  1  0.83776913  0.33145987  0.13620405  1
  In  In69  1  0.84565167  0.31906816  0.63952671  1
  In  In70  1  0.83244388  0.64078507  0.12642174  1
  In  In71  1  0.82723616  0.65387403  0.63100266  1
  In  In72  1  0.16575020  0.83312958  0.00030337  1
  In  In73  1  -0.00353277  0.65582752  0.24938583  1
  In  In74  1  0.49889132  0.82627903  0.00614398  1
  In  In75  1  0.49199787  0.49273749  0.49396067  1
  In  In76  1  0.83531470  0.83391512  -0.00615920  1
  In  In77  1  -0.00491297  0.66262710  0.74673668  1
  In  In78  1  0.83934735  0.49378067  0.50254519  1
  In  In79  1  0.49142686  0.16783410  -0.00150562  1
  In  In80  1  0.34186368  0.66377556  0.24800946  1
  In  In81  1  0.49429104  0.83294372  0.51154264  1
  In  In82  1  0.83955404  0.83537279  0.49314489  1
  In  In83  1  0.66352120  -0.00068713  0.74777975  1
  In  In84  1  0.65964971  -0.00134618  0.24482748  1
  In  In85  1  0.49070001  0.17151681  0.50297928  1
  Cu  Cu86  1  0.82816807  0.50096355  0.76189807  1
  Cu  Cu87  1  0.83132627  0.17335754  0.75132669  1
  Cu  Cu88  1  0.48821250  0.83677871  0.25279303  1
  Cu  Cu89  1  0.68078165  0.00994222  0.49347515  1
  Cu  Cu90  1  0.67540377  0.00861833  -0.00169706  1
  Cu  Cu91  1  0.50107367  0.16704882  0.24205224  1
  Cu  Cu92  1  0.31834075  0.00878261  0.00098242  1
  Cu  Cu93  1  0.83086157  0.83704975  0.74939907  1
  Cu  Cu94  1  0.66681224  0.65699464  0.00079795  1
  Cu  Cu95  1  0.16663743  0.83168185  0.74702159  1
  Cu  Cu96  1  -0.00031565  0.66146469  -0.00423485  1
  Cu  Cu97  1  0.16835981  0.17097920  0.25521314  1
  Cu  Cu98  1  0.49687414  0.16621177  0.75848849  1
  Cu  Cu99  1  0.66682828  0.65959767  0.49994146  1
  Cu  Cu100  1  0.32016231  0.33147593  0.50041187  1
  Cu  Cu101  1  0.68009463  0.33443701  0.49778395  1
  Cu  Cu102  1  0.32341701  0.66532298  0.51399749  1
  Cu  Cu103  1  0.50751610  0.82530601  0.75084757  1
  Cu  Cu104  1  0.00393498  0.32574386  -0.00049073  1
  Cu  Cu105  1  0.50840427  0.49311432  0.75658535  1
  Cu  Cu106  1  0.49802321  0.49997199  0.24243966  1
  Cu  Cu107  1  0.00469278  0.01979289  0.00108068  1
  Cu  Cu108  1  0.32481705  0.00705999  0.50639774  1
  Cu  Cu109  1  0.00318690  0.32704062  0.50187094  1
  Cu  Cu110  1  0.82860124  0.82534412  0.24969965  1
  Cu  Cu111  1  0.33405364  0.65476766  -0.00514441  1
  Cu  Cu112  1  0.16701158  0.49292182  0.23979615  1
  Cu  Cu113  1  0.00514294  0.66198899  0.50006530  1
  Cu  Cu114  1  0.16642057  0.84602400  0.25590199  1
  Se  Se115  1  0.09049532  0.09613630  0.05669056  1
  Se  Se116  1  0.08255470  0.08777784  0.55898076  1
  Se  Se117  1  0.08493061  0.41430156  0.05206163  1
  Se  Se118  1  0.08262572  0.41730701  0.55225812  1
  Se  Se119  1  0.07422525  0.74116483  0.06003996  1
  Se  Se120  1  0.08782451  0.74601676  0.55193990  1
  Se  Se121  1  0.40616506  0.07781617  0.06327112  1
  Se  Se122  1  0.40503613  0.08536755  0.56657867  1
  Se  Se123  1  0.43020747  0.41687026  0.03654165  1
  Se  Se124  1  0.40265839  0.41187376  0.55901684  1
  Se  Se125  1  0.40693323  0.73396626  0.06252778  1
  Se  Se126  1  0.40539467  0.74467755  0.57277377  1
  Se  Se127  1  0.76292776  0.08549777  0.05104951  1
  Se  Se128  1  0.75519160  0.10003718  0.54645245  1
  Se  Se129  1  0.77291346  0.42661741  0.06490968  1
  Se  Se130  1  0.74973987  0.41011252  0.56692504  1
  Se  Se131  1  0.74629246  0.74441378  0.05689142  1
  Se  Se132  1  0.74822992  0.74252937  0.55627539  1
  Se  Se133  1  0.25521952  0.25785802  0.04844230  1
  Se  Se134  1  0.24442634  0.24534105  0.55769198  1
  Se  Se135  1  0.24240173  0.57946531  0.04681894  1
  Se  Se136  1  0.24619882  0.57208006  0.56163318  1
  Se  Se137  1  0.24712467  0.92520985  0.06555509  1
  Se  Se138  1  0.24606930  0.91644327  0.55693333  1
  Se  Se139  1  0.58538829  0.25104106  0.05874417  1
  Se  Se140  1  0.58853448  0.26308077  0.55707336  1
  Se  Se141  1  0.58143357  0.57474655  0.05265911  1
  Se  Se142  1  0.58746736  0.57805031  0.55825689  1
  Se  Se143  1  0.59509557  0.92594537  0.05595032  1
  Se  Se144  1  0.59895335  0.93062367  0.55397675  1
  Se  Se145  1  0.92044281  0.25243498  0.06117561  1
  Se  Se146  1  0.91666488  0.25075637  0.55823818  1
  Se  Se147  1  0.91255357  0.58064701  0.04593532  1
  Se  Se148  1  0.92781986  0.58611909  0.56376027  1
  Se  Se149  1  0.92622480  0.92651103  0.05411402  1
  Se  Se150  1  0.92295958  0.92502346  0.55608017  1
  Se  Se151  1  0.09061590  0.24898226  0.44819454  1
  Se  Se152  1  0.08780476  0.25234270  0.93962361  1
  Se  Se153  1  0.08517170  0.57505251  0.44712672  1
  Se  Se154  1  0.08971021  0.58283757  0.94590745  1
  Se  Se155  1  0.09177481  0.90719499  0.45022998  1
  Se  Se156  1  0.08348161  0.93230546  0.94343103  1
  Se  Se157  1  0.40767535  0.26107666  0.43718177  1
  Se  Se158  1  0.40431362  0.25270290  0.93445897  1
  Se  Se159  1  0.40039623  0.59437579  0.44406063  1
  Se  Se160  1  0.41855946  0.57101216  0.94556666  1
  Se  Se161  1  0.41375713  0.93011967  0.44723026  1
  Se  Se162  1  0.40526932  0.92283979  0.94990452  1
  Se  Se163  1  0.76190596  0.25336630  0.44293856  1
  Se  Se164  1  0.75730985  0.25046621  0.95856770  1
  Se  Se165  1  0.74376027  0.57946776  0.43888458  1
  Se  Se166  1  0.75426432  0.57931271  0.94709074  1
  Se  Se167  1  0.75493465  0.92983888  0.43111779  1
  Se  Se168  1  0.75005304  0.92858286  0.93269992  1
  Se  Se169  1  0.25336765  0.09264092  0.44628707  1
  Se  Se170  1  0.24244077  0.08944117  0.94187144  1
  Se  Se171  1  0.24354499  0.42011035  0.44510409  1
  Se  Se172  1  0.23601800  0.42331548  0.93485751  1
  Se  Se173  1  0.24596194  0.74971590  0.45568748  1
  Se  Se174  1  0.25598481  0.74266950  0.93940777  1
  Se  Se175  1  0.58961828  0.08821111  0.44047512  1
  Se  Se176  1  0.58902149  0.07990298  0.93836675  1
  Se  Se177  1  0.59504069  0.41013847  0.43809352  1
  Se  Se178  1  0.58364190  0.40562239  0.95465257  1
  Se  Se179  1  0.58488668  0.74481203  0.44523277  1
  Se  Se180  1  0.58352701  0.73755339  0.94141313  1
  Se  Se181  1  0.92743153  0.08114901  0.44859643  1
  Se  Se182  1  0.91638278  0.09732645  0.94795573  1
  Se  Se183  1  0.92302988  0.40592026  0.43887683  1
  Se  Se184  1  0.92186094  0.41510597  0.94919983  1
  Se  Se185  1  0.92505160  0.73587216  0.43567268  1
  Se  Se186  1  0.92693600  0.74521394  0.93280726  1
  Se  Se187  1  0.25387376  0.25954653  0.30237932  1
  Se  Se188  1  0.23506849  0.23807834  0.79278029  1
  Se  Se189  1  0.23800476  0.58099660  0.30288651  1
  Se  Se190  1  0.26648133  0.58983404  0.79849841  1
  Se  Se191  1  0.25138328  0.92495234  0.31014921  1
  Se  Se192  1  0.25088343  0.91162281  0.80419495  1
  Se  Se193  1  0.58083585  0.24919828  0.29984809  1
  Se  Se194  1  0.58278017  0.25085145  0.80619115  1
  Se  Se195  1  0.58023455  0.58350292  0.29704541  1
  Se  Se196  1  0.59125204  0.57909272  0.80920726  1
  Se  Se197  1  0.57484696  0.91081144  0.31495372  1
  Se  Se198  1  0.57726335  0.91090643  0.81505772  1
  Se  Se199  1  0.93832156  0.25925320  0.30464722  1
  Se  Se200  1  0.91299942  0.25501879  0.80712428  1
  Se  Se201  1  0.90010741  0.56759260  0.30550061  1
  Se  Se202  1  0.91983601  0.57521639  0.81748551  1
  Se  Se203  1  0.91417389  0.90495109  0.30286688  1
  Se  Se204  1  0.91716097  0.92054382  0.79665752  1
  Se  Se205  1  0.09005363  0.08499231  0.31026518  1
  Se  Se206  1  0.05968944  0.06631304  0.80548927  1
  Se  Se207  1  0.08568480  0.41881448  0.30179350  1
  Se  Se208  1  0.07909764  0.41520419  0.79495990  1
  Se  Se209  1  0.09103797  0.74882950  0.30697840  1
  Se  Se210  1  0.08515912  0.75515261  0.80940507  1
  Se  Se211  1  0.41590292  0.08551516  0.29473887  1
  Se  Se212  1  0.40891537  0.07874960  0.80047723  1
  Se  Se213  1  0.41342395  0.42340152  0.30014828  1
  Se  Se214  1  0.41801171  0.41098118  0.80371787  1
  Se  Se215  1  0.41516943  0.75718377  0.31964475  1
  Se  Se216  1  0.41822191  0.74630990  0.80212696  1
  Se  Se217  1  0.75189916  0.08548520  0.30465045  1
  Se  Se218  1  0.74844403  0.09065069  0.81061389  1
  Se  Se219  1  0.74104900  0.40312103  0.29261818  1
  Se  Se220  1  0.74825182  0.41481192  0.81550658  1
  Se  Se221  1  0.73884947  0.74337893  0.29593052  1
  Se  Se222  1  0.74993029  0.75044132  0.79874980  1
  Se  Se223  1  0.25176841  0.08776343  0.19937414  1
  Se  Se224  1  0.26696571  0.06342686  0.69530965  1
  Se  Se225  1  0.25460146  0.41436907  0.18615653  1
  Se  Se226  1  0.26573810  0.38912480  0.69434659  1
  Se  Se227  1  0.24334919  0.76056585  0.19566653  1
  Se  Se228  1  0.25223538  0.74438998  0.69948773  1
  Se  Se229  1  0.58653987  0.09586364  0.17921746  1
  Se  Se230  1  0.57537896  0.09325722  0.68890618  1
  Se  Se231  1  0.58053117  0.41306823  0.19204203  1
  Se  Se232  1  0.58803334  0.41017538  0.69952756  1
  Se  Se233  1  0.56986001  0.75157041  0.20102375  1
  Se  Se234  1  0.59159999  0.74331419  0.69841515  1
  Se  Se235  1  0.93666852  0.07267442  0.20105494  1
  Se  Se236  1  0.91492618  0.09099563  0.69724718  1
  Se  Se237  1  0.92140087  0.42046712  0.20143337  1
  Se  Se238  1  0.90806580  0.42339871  0.70179742  1
  Se  Se239  1  0.91147249  0.75155540  0.18529314  1
  Se  Se240  1  0.91039712  0.75894378  0.68446385  1
  Se  Se241  1  0.08677837  0.25327081  0.19897564  1
  Se  Se242  1  0.06540508  0.27306220  0.69827570  1
  Se  Se243  1  0.08258947  0.57263018  0.18276152  1
  Se  Se244  1  0.09413472  0.57436458  0.69569103  1
  Se  Se245  1  0.07699019  0.92264574  0.20378615  1
  Se  Se246  1  0.08343723  0.91690900  0.69608802  1
  Se  Se247  1  0.41772225  0.25389945  0.19165423  1
  Se  Se248  1  0.42118117  0.24789214  0.69779875  1
  Se  Se249  1  0.40823014  0.56762439  0.18052764  1
  Se  Se250  1  0.42528644  0.57661262  0.70177688  1
  Se  Se251  1  0.41009229  0.92320643  0.20131813  1
  Se  Se252  1  0.42562274  0.91348428  0.70071093  1
  Se  Se253  1  0.76076190  0.24125101  0.20442296  1
  Se  Se254  1  0.74085704  0.25414554  0.70243334  1
  Se  Se255  1  0.72847037  0.59587234  0.19343117  1
  Se  Se256  1  0.74760665  0.58646911  0.70795361  1
  Se  Se257  1  0.75452444  0.90830485  0.18529804  1
  Se  Se258  1  0.75751832  0.91853349  0.68294311  1
