# generated using pymatgen
data_In86Cu29Se144
_symmetry_space_group_name_H-M   'P 1'
_cell_length_a   17.56942600
_cell_length_b   17.56881366
_cell_length_c   23.43008184
_cell_angle_alpha   90.01063494
_cell_angle_beta   90.02297671
_cell_angle_gamma   89.98732808
_symmetry_Int_Tables_number   1
_chemical_formula_structural   In86Cu29Se144
_chemical_formula_sum   'In86 Cu29 Se144'
_cell_volume   7232.25553520
_cell_formula_units_Z   1
loop_
 _symmetry_equiv_pos_site_id
 _symmetry_equiv_pos_as_xyz
  1  'x, y, z'
loop_
 _atom_site_type_symbol
 _atom_site_label
 _atom_site_symmetry_multiplicity
 _atom_site_fract_x
 _atom_site_fract_y
 _atom_site_fract_z
 _atom_site_occupancy
  In  In0  1  -0.00142934  0.18780628  0.12749898  1
  In  In1  1  0.00297193  0.14626674  0.62738120  1
  In  In2  1  -0.00309364  0.49587429  0.11890115  1
  In  In3  1  0.02638329  0.49959827  0.63168979  1
  In  In4  1  -0.00206928  0.82904065  0.11583245  1
  In  In5  1  0.00166504  0.82906034  0.62854229  1
  In  In6  1  0.32823620  0.16258507  0.12619750  1
  In  In7  1  0.33913695  0.16810868  0.61272042  1
  In  In8  1  0.33698382  0.49858109  0.11404244  1
  In  In9  1  0.33099359  0.49536493  0.63101947  1
  In  In10  1  0.32631962  0.82255034  0.11618814  1
  In  In11  1  0.32049388  0.83645903  0.62980071  1
  In  In12  1  0.67590386  0.15428179  0.13126892  1
  In  In13  1  0.67058195  0.18116752  0.62588861  1
  In  In14  1  0.66759034  0.50070358  0.12535198  1
  In  In15  1  0.65113387  0.49770895  0.62590708  1
  In  In16  1  0.66584033  0.83149862  0.12177038  1
  In  In17  1  0.67559559  0.82304456  0.62352875  1
  In  In18  1  0.15800552  0.00727141  0.39794875  1
  In  In19  1  0.14945638  0.00266484  0.86818816  1
  In  In20  1  0.16306338  0.33591828  0.37736988  1
  In  In21  1  0.17893706  0.33983056  0.86539850  1
  In  In22  1  0.16620041  0.66481153  0.38542650  1
  In  In23  1  0.16988474  0.66535265  0.87080067  1
  In  In24  1  0.51436748  0.00581006  0.37715914  1
  In  In25  1  0.49269973  -0.01250293  0.87334439  1
  In  In26  1  0.50633745  0.32962122  0.37900558  1
  In  In27  1  0.50530040  0.34302745  0.87071812  1
  In  In28  1  0.49763955  0.65658687  0.37648981  1
  In  In29  1  0.48414765  0.67361791  0.87672697  1
  In  In30  1  0.82581205  0.00611805  0.37680095  1
  In  In31  1  0.84004490  -0.00832127  0.88327561  1
  In  In32  1  0.83487370  0.32986140  0.36259782  1
  In  In33  1  0.82724796  0.34212158  0.88196721  1
  In  In34  1  0.83442212  0.67795074  0.37124388  1
  In  In35  1  0.83835547  0.66329057  0.88124617  1
  In  In36  1  -0.00272441  0.17270695  0.37816958  1
  In  In37  1  -0.00162991  0.15507526  0.87034303  1
  In  In38  1  0.01540780  0.49082437  0.37274804  1
  In  In39  1  -0.00478245  0.50717422  0.87620989  1
  In  In40  1  0.00007083  0.83556394  0.38900661  1
  In  In41  1  0.00077279  0.83568418  0.87521266  1
  In  In42  1  0.32713854  0.17169856  0.39245251  1
  In  In43  1  0.31732168  0.16975467  0.86717528  1
  In  In44  1  0.32994586  0.50492298  0.38310846  1
  In  In45  1  0.33088450  0.50430456  0.87301364  1
  In  In46  1  0.32641384  0.82498054  0.38222836  1
  In  In47  1  0.34205518  0.81521911  0.87550849  1
  In  In48  1  0.67042706  0.16514438  0.37013550  1
  In  In49  1  0.66811105  0.18158772  0.87442524  1
  In  In50  1  0.66062207  0.49003019  0.36468827  1
  In  In51  1  0.67145319  0.49527581  0.88180499  1
  In  In52  1  0.67241799  0.84326332  0.36775878  1
  In  In53  1  0.66354104  0.83423207  0.88184448  1
  In  In54  1  0.17314098  -0.00615859  0.12635222  1
  In  In55  1  0.15034105  -0.02077627  0.60392535  1
  In  In56  1  0.15311586  0.33904716  0.13185046  1
  In  In57  1  0.18079018  0.34804953  0.61806340  1
  In  In58  1  0.16122166  0.66098111  0.11768094  1
  In  In59  1  0.16527750  0.66048839  0.63339779  1
  In  In60  1  0.51308870  0.00105806  0.12456330  1
  In  In61  1  0.48217434  0.00531107  0.61982004  1
  In  In62  1  0.49955513  0.35112557  0.12318086  1
  In  In63  1  0.49682787  0.33232602  0.62531420  1
  In  In64  1  0.50714600  0.67446055  0.11689135  1
  In  In65  1  0.50565102  0.64988958  0.62841233  1
  In  In66  1  0.82630924  -0.00941727  0.11686300  1
  In  In67  1  0.86686676  0.00101900  0.62654164  1
  In  In68  1  0.83376984  0.33298368  0.12175335  1
  In  In69  1  0.82799328  0.31810805  0.63633093  1
  In  In70  1  0.82492718  0.65635940  0.11590367  1
  In  In71  1  0.83597522  0.68244705  0.62740610  1
  In  In72  1  0.66831113  0.00274542  0.75458223  1
  In  In73  1  0.33549089  0.33362508  0.25514900  1
  In  In74  1  0.50310986  0.16554345  -0.00072887  1
  In  In75  1  0.83444627  0.50285517  0.50050754  1
  In  In76  1  0.49769534  0.83426317  0.50329999  1
  In  In77  1  0.66491777  0.66383013  0.75572349  1
  In  In78  1  0.83614393  0.16172852  0.50020145  1
  In  In79  1  0.16040540  0.16983385  -0.00003011  1
  In  In80  1  0.00031462  0.33831155  0.75367709  1
  In  In81  1  0.33733452  -0.00144426  0.25751267  1
  In  In82  1  0.33286501  0.66435019  0.25775596  1
  In  In83  1  -0.00662283  0.66047505  0.24388990  1
  In  In84  1  0.32492668  0.00240671  0.74034725  1
  In  In85  1  -0.00340659  0.00411594  0.26045554  1
  Cu  Cu86  1  0.82993466  0.49976924  0.75634431  1
  Cu  Cu87  1  0.49602144  0.17242798  0.74533717  1
  Cu  Cu88  1  0.67033978  0.00245246  0.49805120  1
  Cu  Cu89  1  0.32908991  0.66255522  0.50707638  1
  Cu  Cu90  1  0.83485552  0.16582945  0.24696884  1
  Cu  Cu91  1  0.33216749  0.33781834  -0.00635545  1
  Cu  Cu92  1  0.16159701  0.83416636  0.74990578  1
  Cu  Cu93  1  0.16542117  0.17043877  0.73939973  1
  Cu  Cu94  1  0.66793667  0.66607397  0.50123663  1
  Cu  Cu95  1  0.32996367  0.66234648  -0.00554432  1
  Cu  Cu96  1  0.16125165  0.83265871  0.25612536  1
  Cu  Cu97  1  0.66026845  0.33859612  0.50076043  1
  Cu  Cu98  1  -0.00121671  -0.00077484  -0.00154182  1
  Cu  Cu99  1  -0.00112471  0.33825327  -0.00256641  1
  Cu  Cu100  1  0.81945458  0.83545897  0.24687561  1
  Cu  Cu101  1  0.66840624  -0.00344619  0.00181536  1
  Cu  Cu102  1  0.00509093  0.66567770  0.50533781  1
  Cu  Cu103  1  0.00552057  0.33046257  0.50097573  1
  Cu  Cu104  1  0.66551179  0.66346114  -0.00050329  1
  Cu  Cu105  1  0.50781724  0.17307686  0.25283847  1
  Cu  Cu106  1  0.32951837  -0.01401231  -0.00334624  1
  Cu  Cu107  1  0.84235380  0.84151776  0.75228194  1
  Cu  Cu108  1  0.33679795  0.34148032  0.50302065  1
  Cu  Cu109  1  0.83378712  0.49620627  0.24076649  1
  Cu  Cu110  1  0.50739492  0.50635571  0.24736286  1
  Cu  Cu111  1  0.50712241  0.83859549  0.24453081  1
  Cu  Cu112  1  0.49382613  0.49127546  0.75047396  1
  Cu  Cu113  1  0.66901061  0.33538746  0.00263807  1
  Cu  Cu114  1  0.00616300  0.67216738  -0.00571884  1
  Se  Se115  1  0.07583065  0.07787852  0.06348508  1
  Se  Se116  1  0.08243799  0.08641938  0.54804013  1
  Se  Se117  1  0.08675343  0.41599808  0.05171772  1
  Se  Se118  1  0.08582020  0.42055213  0.55003123  1
  Se  Se119  1  0.08959933  0.75364838  0.05034237  1
  Se  Se120  1  0.08805234  0.74640136  0.56107854  1
  Se  Se121  1  0.40670013  0.07186848  0.05588095  1
  Se  Se122  1  0.42392971  0.08916353  0.54306390  1
  Se  Se123  1  0.42099406  0.41833324  0.04470092  1
  Se  Se124  1  0.41970214  0.42318355  0.55816197  1
  Se  Se125  1  0.41412671  0.74650431  0.04906232  1
  Se  Se126  1  0.41317099  0.74172786  0.56558081  1
  Se  Se127  1  0.75061340  0.08527585  0.05099046  1
  Se  Se128  1  0.74872888  0.07561129  0.56553874  1
  Se  Se129  1  0.75223834  0.42057105  0.05528407  1
  Se  Se130  1  0.74791079  0.40906084  0.56226856  1
  Se  Se131  1  0.74859270  0.74994816  0.05165850  1
  Se  Se132  1  0.75502610  0.74976233  0.54857125  1
  Se  Se133  1  0.25548875  0.25915262  0.05850251  1
  Se  Se134  1  0.25032872  0.25421138  0.55013128  1
  Se  Se135  1  0.24767143  0.58056364  0.05071211  1
  Se  Se136  1  0.24705523  0.57939847  0.56154620  1
  Se  Se137  1  0.24194270  0.91033737  0.05213966  1
  Se  Se138  1  0.27018050  0.92711665  0.55339564  1
  Se  Se139  1  0.58872266  0.25359894  0.06335948  1
  Se  Se140  1  0.58247849  0.25088784  0.55455493  1
  Se  Se141  1  0.58318408  0.57939141  0.05393937  1
  Se  Se142  1  0.58330344  0.58066123  0.54947857  1
  Se  Se143  1  0.58034681  0.91414356  0.05164321  1
  Se  Se144  1  0.59222652  0.92400831  0.56223816  1
  Se  Se145  1  0.91718592  0.25188762  0.04954767  1
  Se  Se146  1  0.92260001  0.25553316  0.56157694  1
  Se  Se147  1  0.92493218  0.58933760  0.05198566  1
  Se  Se148  1  0.92330771  0.58616437  0.56576167  1
  Se  Se149  1  0.91496077  0.91332971  0.04962890  1
  Se  Se150  1  0.91213004  0.90110109  0.55664741  1
  Se  Se151  1  0.08663704  0.24654447  0.44702845  1
  Se  Se152  1  0.07803529  0.25954462  0.93349211  1
  Se  Se153  1  0.07994921  0.57839746  0.44805046  1
  Se  Se154  1  0.08619115  0.58476307  0.94230170  1
  Se  Se155  1  0.09506031  0.90049639  0.45546857  1
  Se  Se156  1  0.08506233  0.91959493  0.94527751  1
  Se  Se157  1  0.42006267  0.25666613  0.45010707  1
  Se  Se158  1  0.40815412  0.24912281  0.93768535  1
  Se  Se159  1  0.41554039  0.58527331  0.45108839  1
  Se  Se160  1  0.41810846  0.57857673  0.94607824  1
  Se  Se161  1  0.41513076  0.92287045  0.43780910  1
  Se  Se162  1  0.41764467  0.90668747  0.94552953  1
  Se  Se163  1  0.74837389  0.26037959  0.44290385  1
  Se  Se164  1  0.75070724  0.25041977  0.95011448  1
  Se  Se165  1  0.74441785  0.58678766  0.43647680  1
  Se  Se166  1  0.75286204  0.58157647  0.94818782  1
  Se  Se167  1  0.75053432  0.91638969  0.44504523  1
  Se  Se168  1  0.75144300  0.91163660  0.94922193  1
  Se  Se169  1  0.26090723  0.07454879  0.45704605  1
  Se  Se170  1  0.25200786  0.07522420  0.94129778  1
  Se  Se171  1  0.24828581  0.41650717  0.44637917  1
  Se  Se172  1  0.24633344  0.42024378  0.94282641  1
  Se  Se173  1  0.24676264  0.74814418  0.45485154  1
  Se  Se174  1  0.24697857  0.75032035  0.94463663  1
  Se  Se175  1  0.59147303  0.09145109  0.44714789  1
  Se  Se176  1  0.58914193  0.07353477  0.93669045  1
  Se  Se177  1  0.58257867  0.42387723  0.44489800  1
  Se  Se178  1  0.58233526  0.41445816  0.94856362  1
  Se  Se179  1  0.58840649  0.74837755  0.43971041  1
  Se  Se180  1  0.58135747  0.74410168  0.94390252  1
  Se  Se181  1  0.92900293  0.06878520  0.44489171  1
  Se  Se182  1  0.91777355  0.08717106  0.94786056  1
  Se  Se183  1  0.91925113  0.40631652  0.44107642  1
  Se  Se184  1  0.91484019  0.42444558  0.94678941  1
  Se  Se185  1  0.91757802  0.74173875  0.44883445  1
  Se  Se186  1  0.91711560  0.75480180  0.94568949  1
  Se  Se187  1  0.24798034  0.24033169  0.31136564  1
  Se  Se188  1  0.24928742  0.25265317  0.79217032  1
  Se  Se189  1  0.23614769  0.57406163  0.30912179  1
  Se  Se190  1  0.27040979  0.60308485  0.80414916  1
  Se  Se191  1  0.23941197  0.91313184  0.31550255  1
  Se  Se192  1  0.24566290  0.91448853  0.81001747  1
  Se  Se193  1  0.59037513  0.25713318  0.30535059  1
  Se  Se194  1  0.57905891  0.25027488  0.80329882  1
  Se  Se195  1  0.58639707  0.59085240  0.30315458  1
  Se  Se196  1  0.57390837  0.57259177  0.81253748  1
  Se  Se197  1  0.58416391  0.92386725  0.30117113  1
  Se  Se198  1  0.57603368  0.90348198  0.80347600  1
  Se  Se199  1  0.92231337  0.24525797  0.29956112  1
  Se  Se200  1  0.90958285  0.25044378  0.81239346  1
  Se  Se201  1  0.90924926  0.57044154  0.31021429  1
  Se  Se202  1  0.91318650  0.58682385  0.80422257  1
  Se  Se203  1  0.90657664  0.90371605  0.31088391  1
  Se  Se204  1  0.92358434  0.92625960  0.80555642  1
  Se  Se205  1  0.09526261  0.08829094  0.31438346  1
  Se  Se206  1  0.08170939  0.08784744  0.79333945  1
  Se  Se207  1  0.08123448  0.40419515  0.30036201  1
  Se  Se208  1  0.09204868  0.43342505  0.80536720  1
  Se  Se209  1  0.08002435  0.74890377  0.31170608  1
  Se  Se210  1  0.08135754  0.75141505  0.80620867  1
  Se  Se211  1  0.42322139  0.09763540  0.31352360  1
  Se  Se212  1  0.41976226  0.08892695  0.80652936  1
  Se  Se213  1  0.42493993  0.43026366  0.31041886  1
  Se  Se214  1  0.40808238  0.41106218  0.80506345  1
  Se  Se215  1  0.42684207  0.76278604  0.30868091  1
  Se  Se216  1  0.41598582  0.74688286  0.79597174  1
  Se  Se217  1  0.75183553  0.08165664  0.30035996  1
  Se  Se218  1  0.75764208  0.08791386  0.81579649  1
  Se  Se219  1  0.75065735  0.41412913  0.29747324  1
  Se  Se220  1  0.74583757  0.41554823  0.80586685  1
  Se  Se221  1  0.74310940  0.74667680  0.30106486  1
  Se  Se222  1  0.75770504  0.76021677  0.80930618  1
  Se  Se223  1  0.24168490  0.08798998  0.19883707  1
  Se  Se224  1  0.23842065  0.08744984  0.67664125  1
  Se  Se225  1  0.25241006  0.42469002  0.19097354  1
  Se  Se226  1  0.24300783  0.41983155  0.70036912  1
  Se  Se227  1  0.24012727  0.75213043  0.19538019  1
  Se  Se228  1  0.24767801  0.75057730  0.70021743  1
  Se  Se229  1  0.58324828  0.08208093  0.19987197  1
  Se  Se230  1  0.57496873  0.08632978  0.68909535  1
  Se  Se231  1  0.58655817  0.41633383  0.19714960  1
  Se  Se232  1  0.58184118  0.41131884  0.69813143  1
  Se  Se233  1  0.58477975  0.74849193  0.19323181  1
  Se  Se234  1  0.57912542  0.75438392  0.69205601  1
  Se  Se235  1  0.91387709  0.08335491  0.18674201  1
  Se  Se236  1  0.89763842  0.10628146  0.69810503  1
  Se  Se237  1  0.92078229  0.41319027  0.19143547  1
  Se  Se238  1  0.90975712  0.42670094  0.68889253  1
  Se  Se239  1  0.90474055  0.75718812  0.18868068  1
  Se  Se240  1  0.92005854  0.74968359  0.70242028  1
  Se  Se241  1  0.09525130  0.24007659  0.19884316  1
  Se  Se242  1  0.08345295  0.25451016  0.68298670  1
  Se  Se243  1  0.09153528  0.57260355  0.19232196  1
  Se  Se244  1  0.07033589  0.59713689  0.70502146  1
  Se  Se245  1  0.08113669  0.90992646  0.19461987  1
  Se  Se246  1  0.08511763  0.92081002  0.69310210  1
  Se  Se247  1  0.42534145  0.24434992  0.18900355  1
  Se  Se248  1  0.40866149  0.24880598  0.69089454  1
  Se  Se249  1  0.42039754  0.58165149  0.18934172  1
  Se  Se250  1  0.41639899  0.58105586  0.69876453  1
  Se  Se251  1  0.41617280  0.90969024  0.18663371  1
  Se  Se252  1  0.42545109  0.90862233  0.69430289  1
  Se  Se253  1  0.75211250  0.25036319  0.19329706  1
  Se  Se254  1  0.74113072  0.24955020  0.70688336  1
  Se  Se255  1  0.74986206  0.58570926  0.19510910  1
  Se  Se256  1  0.75351824  0.57819481  0.68920136  1
  Se  Se257  1  0.74219587  0.92173207  0.19208333  1
  Se  Se258  1  0.75778406  0.91496337  0.69036966  1
