# generated using pymatgen
data_In86Cu29Se144
_symmetry_space_group_name_H-M   'P 1'
_cell_length_a   17.57927774
_cell_length_b   17.57906973
_cell_length_c   23.43888668
_cell_angle_alpha   89.99630140
_cell_angle_beta   89.97894398
_cell_angle_gamma   90.00991161
_symmetry_Int_Tables_number   1
_chemical_formula_structural   In86Cu29Se144
_chemical_formula_sum   'In86 Cu29 Se144'
_cell_volume   7243.25640613
_cell_formula_units_Z   1
loop_
 _symmetry_equiv_pos_site_id
 _symmetry_equiv_pos_as_xyz
  1  'x, y, z'
loop_
 _atom_site_type_symbol
 _atom_site_label
 _atom_site_symmetry_multiplicity
 _atom_site_fract_x
 _atom_site_fract_y
 _atom_site_fract_z
 _atom_site_occupancy
  In  In0  1  -0.01426289  0.16295449  0.12499434  1
  In  In1  1  -0.00152327  0.16880413  0.62374373  1
  In  In2  1  0.01413520  0.49953850  0.12468517  1
  In  In3  1  -0.01016632  0.48963934  0.61777687  1
  In  In4  1  0.01027237  0.82810224  0.13300008  1
  In  In5  1  0.00812894  0.83346048  0.62698681  1
  In  In6  1  0.34602062  0.16711788  0.12287669  1
  In  In7  1  0.33467989  0.18069201  0.62775457  1
  In  In8  1  0.32430623  0.50648682  0.12886358  1
  In  In9  1  0.33358252  0.50026492  0.62349150  1
  In  In10  1  0.33568568  0.83838498  0.11573340  1
  In  In11  1  0.32543149  0.82227516  0.62090962  1
  In  In12  1  0.66890413  0.17174254  0.10981904  1
  In  In13  1  0.68011818  0.15969913  0.63163740  1
  In  In14  1  0.66223743  0.49511008  0.12166994  1
  In  In15  1  0.66404287  0.49795742  0.62931059  1
  In  In16  1  0.66377452  0.83572075  0.11818306  1
  In  In17  1  0.65556380  0.84611179  0.63563806  1
  In  In18  1  0.15841546  0.01306015  0.38497919  1
  In  In19  1  0.14815335  -0.00290228  0.87317779  1
  In  In20  1  0.17507849  0.32616569  0.38260702  1
  In  In21  1  0.17659514  0.34286273  0.86496295  1
  In  In22  1  0.15882678  0.67557005  0.38329859  1
  In  In23  1  0.17549674  0.65774158  0.87972472  1
  In  In24  1  0.49266017  -0.00561996  0.37887284  1
  In  In25  1  0.51116899  -0.01025514  0.87913521  1
  In  In26  1  0.49849942  0.34684145  0.37508023  1
  In  In27  1  0.50032548  0.33200820  0.87098831  1
  In  In28  1  0.49649328  0.66403177  0.38104811  1
  In  In29  1  0.51028427  0.68001043  0.86667238  1
  In  In30  1  0.84203959  -0.00085275  0.37715308  1
  In  In31  1  0.84337815  0.00264487  0.86472014  1
  In  In32  1  0.83565337  0.33171593  0.38596117  1
  In  In33  1  0.81785625  0.31532520  0.86426466  1
  In  In34  1  0.83185022  0.65485608  0.37910547  1
  In  In35  1  0.81516748  0.67285402  0.86789157  1
  In  In36  1  -0.00026716  0.16633803  0.37867309  1
  In  In37  1  -0.01167263  0.15833966  0.86842800  1
  In  In38  1  -0.00695465  0.50923400  0.38368553  1
  In  In39  1  0.01715931  0.50065368  0.87434447  1
  In  In40  1  0.01051229  0.84114213  0.37229844  1
  In  In41  1  -0.00710317  0.84480918  0.87432911  1
  In  In42  1  0.32178780  0.16446982  0.37549844  1
  In  In43  1  0.33544958  0.18386441  0.87091429  1
  In  In44  1  0.34250790  0.48702470  0.38220917  1
  In  In45  1  0.32730327  0.49627481  0.86761223  1
  In  In46  1  0.33542793  0.82718164  0.38382478  1
  In  In47  1  0.34300921  0.82347043  0.87894670  1
  In  In48  1  0.67185902  0.16845580  0.38360691  1
  In  In49  1  0.67197493  0.16813957  0.87690476  1
  In  In50  1  0.66453648  0.50143426  0.38715200  1
  In  In51  1  0.66282277  0.49852182  0.86687155  1
  In  In52  1  0.66118780  0.82880518  0.38160793  1
  In  In53  1  0.65408820  0.82271685  0.85942771  1
  In  In54  1  0.16769226  -0.01307750  0.12471195  1
  In  In55  1  0.15591375  -0.00769059  0.62029242  1
  In  In56  1  0.16635839  0.35042614  0.12378107  1
  In  In57  1  0.16557156  0.33353546  0.62333743  1
  In  In58  1  0.16589763  0.66191797  0.12160393  1
  In  In59  1  0.17410082  0.67391444  0.61998068  1
  In  In60  1  0.49809927  0.00235394  0.11414529  1
  In  In61  1  0.52373548  -0.00487264  0.62300131  1
  In  In62  1  0.50380637  0.32326263  0.12567555  1
  In  In63  1  0.48868746  0.34282173  0.63373966  1
  In  In64  1  0.49159330  0.66907476  0.12294656  1
  In  In65  1  0.49783053  0.66378915  0.62532874  1
  In  In66  1  0.83471953  0.01277819  0.12724341  1
  In  In67  1  0.81543657  0.01405246  0.63372079  1
  In  In68  1  0.83815575  0.32531913  0.11772849  1
  In  In69  1  0.83529217  0.33279444  0.62701328  1
  In  In70  1  0.83515140  0.67785801  0.12808896  1
  In  In71  1  0.83194566  0.65260683  0.62669198  1
  In  In72  1  0.83490066  0.49521580  -0.00934870  1
  In  In73  1  -0.00081251  0.66493501  0.75055269  1
  In  In74  1  0.66946234  0.33232892  0.24304832  1
  In  In75  1  0.49821623  0.50146286  -0.00733357  1
  In  In76  1  0.33233334  0.66542972  0.25375840  1
  In  In77  1  0.33401320  0.00261060  0.75006459  1
  In  In78  1  0.50070086  0.16628728  0.50767534  1
  In  In79  1  0.33088175  -0.00071277  0.24607968  1
  In  In80  1  0.66850566  0.00039800  0.25561197  1
  In  In81  1  0.83024324  0.83613885  0.50449710  1
  In  In82  1  0.82899587  0.83588830  -0.00436649  1
  In  In83  1  0.66745007  0.66625812  0.25376484  1
  In  In84  1  0.00489956  0.33283306  0.25531543  1
  In  In85  1  0.16842824  0.16608455  -0.00565382  1
  Cu  Cu86  1  0.83646700  0.17054217  0.74894090  1
  Cu  Cu87  1  0.00184761  0.33283315  0.50154499  1
  Cu  Cu88  1  0.49699238  0.50213633  0.74930841  1
  Cu  Cu89  1  0.50341451  0.17096846  0.24441728  1
  Cu  Cu90  1  0.84560890  0.83692431  0.25140608  1
  Cu  Cu91  1  0.66313000  0.66258490  0.50463746  1
  Cu  Cu92  1  0.00255492  0.66796739  0.00190275  1
  Cu  Cu93  1  0.83240563  0.49560274  0.74670078  1
  Cu  Cu94  1  0.33134509  0.66988240  -0.00074729  1
  Cu  Cu95  1  0.50850805  0.16805447  0.74932837  1
  Cu  Cu96  1  0.16659351  0.50483445  0.25121661  1
  Cu  Cu97  1  0.16741345  0.49838360  0.74320755  1
  Cu  Cu98  1  0.16726638  0.83578449  0.25424702  1
  Cu  Cu99  1  0.15971086  0.17017809  0.74937118  1
  Cu  Cu100  1  0.33321116  0.34039777  -0.00683541  1
  Cu  Cu101  1  0.66862555  0.33528861  0.50714361  1
  Cu  Cu102  1  -0.00295826  -0.00361996  -0.00387871  1
  Cu  Cu103  1  0.00217143  0.66822778  0.50465304  1
  Cu  Cu104  1  0.00162561  0.32947642  -0.00247459  1
  Cu  Cu105  1  -0.00121720  0.00422903  0.50163715  1
  Cu  Cu106  1  0.66635789  0.00011385  -0.00562054  1
  Cu  Cu107  1  0.33425171  -0.00048130  -0.00390377  1
  Cu  Cu108  1  0.83863549  0.49803742  0.25571910  1
  Cu  Cu109  1  0.33080440  0.33462380  0.50456596  1
  Cu  Cu110  1  0.33196090  -0.00498376  0.50315481  1
  Cu  Cu111  1  0.49404699  0.83023637  0.74786607  1
  Cu  Cu112  1  0.33346681  0.66110461  0.50185405  1
  Cu  Cu113  1  0.16822430  0.83157676  0.74722816  1
  Cu  Cu114  1  0.16295566  0.16960372  0.25633672  1
  Se  Se115  1  0.07915273  0.07708313  0.05673832  1
  Se  Se116  1  0.08439342  0.08717114  0.55422280  1
  Se  Se117  1  0.08236914  0.41750378  0.04793309  1
  Se  Se118  1  0.08584486  0.41787777  0.55249703  1
  Se  Se119  1  0.08442294  0.75136256  0.05626612  1
  Se  Se120  1  0.08539586  0.75484843  0.55340603  1
  Se  Se121  1  0.41593037  0.08710185  0.04682546  1
  Se  Se122  1  0.41039435  0.07328264  0.56715728  1
  Se  Se123  1  0.41063753  0.41644742  0.05974241  1
  Se  Se124  1  0.41859189  0.41711297  0.55399738  1
  Se  Se125  1  0.41834695  0.75158156  0.05023394  1
  Se  Se126  1  0.41659758  0.74679434  0.55415710  1
  Se  Se127  1  0.75200108  0.07822090  0.05043576  1
  Se  Se128  1  0.74591793  0.08247369  0.55225758  1
  Se  Se129  1  0.74370924  0.40717562  0.05436630  1
  Se  Se130  1  0.75211086  0.41967864  0.55982567  1
  Se  Se131  1  0.74185983  0.73845995  0.05332269  1
  Se  Se132  1  0.74287143  0.74415092  0.56407950  1
  Se  Se133  1  0.25467631  0.25840417  0.05684611  1
  Se  Se134  1  0.24819508  0.24733675  0.55373349  1
  Se  Se135  1  0.25094192  0.58240885  0.05216193  1
  Se  Se136  1  0.24730828  0.57989163  0.55401863  1
  Se  Se137  1  0.24846384  0.91781575  0.04847212  1
  Se  Se138  1  0.24608481  0.91244020  0.55532572  1
  Se  Se139  1  0.57742248  0.25124612  0.04948453  1
  Se  Se140  1  0.58706952  0.25698591  0.56875626  1
  Se  Se141  1  0.58790918  0.59085043  0.05629587  1
  Se  Se142  1  0.58051974  0.57766572  0.55774968  1
  Se  Se143  1  0.58362018  0.91731557  0.04933500  1
  Se  Se144  1  0.58615722  0.90691696  0.54995579  1
  Se  Se145  1  0.91846694  0.24434551  0.04749824  1
  Se  Se146  1  0.91508797  0.25122841  0.55436340  1
  Se  Se147  1  0.91890500  0.58652200  0.05916027  1
  Se  Se148  1  0.91473989  0.58328558  0.55146208  1
  Se  Se149  1  0.92047400  0.91740050  0.06147005  1
  Se  Se150  1  0.91951613  0.92572080  0.56437155  1
  Se  Se151  1  0.08343101  0.24797235  0.44695456  1
  Se  Se152  1  0.08141250  0.25419911  0.93227771  1
  Se  Se153  1  0.08477933  0.58361366  0.45095320  1
  Se  Se154  1  0.08612604  0.58277096  0.95013319  1
  Se  Se155  1  0.08273737  0.91836506  0.44976505  1
  Se  Se156  1  0.08209722  0.91055675  0.94863446  1
  Se  Se157  1  0.41211766  0.25277922  0.44287946  1
  Se  Se158  1  0.41788375  0.25463609  0.94541968  1
  Se  Se159  1  0.41843877  0.57816609  0.44914868  1
  Se  Se160  1  0.40981486  0.59319727  0.93416631  1
  Se  Se161  1  0.41740605  0.91311415  0.45102597  1
  Se  Se162  1  0.41899285  0.91438569  0.94541578  1
  Se  Se163  1  0.75020228  0.25036979  0.45349266  1
  Se  Se164  1  0.75711403  0.24539552  0.94789982  1
  Se  Se165  1  0.75183538  0.58148100  0.45351751  1
  Se  Se166  1  0.73841701  0.58908822  0.94170446  1
  Se  Se167  1  0.74125435  0.92598882  0.44282926  1
  Se  Se168  1  0.74373504  0.92133380  0.93096205  1
  Se  Se169  1  0.25258201  0.08477373  0.45222947  1
  Se  Se170  1  0.25669778  0.07658672  0.93179362  1
  Se  Se171  1  0.24776768  0.41818285  0.45053584  1
  Se  Se172  1  0.24629408  0.42191248  0.94350115  1
  Se  Se173  1  0.24958291  0.74932779  0.45175670  1
  Se  Se174  1  0.24694315  0.75329467  0.94619960  1
  Se  Se175  1  0.58598176  0.07518764  0.44475086  1
  Se  Se176  1  0.58238811  0.08617436  0.94392126  1
  Se  Se177  1  0.58231147  0.41297168  0.45137337  1
  Se  Se178  1  0.59346308  0.40872142  0.94234834  1
  Se  Se179  1  0.58119395  0.74548145  0.44926261  1
  Se  Se180  1  0.58453439  0.75634442  0.94195624  1
  Se  Se181  1  0.91453141  0.08604898  0.44833949  1
  Se  Se182  1  0.91390290  0.08010218  0.94458037  1
  Se  Se183  1  0.91667924  0.41872681  0.45066579  1
  Se  Se184  1  0.92462486  0.40642669  0.93178855  1
  Se  Se185  1  0.92128759  0.74807789  0.44164847  1
  Se  Se186  1  0.91956230  0.73886629  0.93872302  1
  Se  Se187  1  0.25080376  0.25218243  0.30376196  1
  Se  Se188  1  0.25051055  0.25161070  0.79667952  1
  Se  Se189  1  0.24474411  0.57951396  0.31732319  1
  Se  Se190  1  0.24624571  0.58324861  0.79993197  1
  Se  Se191  1  0.24661534  0.91547290  0.31534043  1
  Se  Se192  1  0.24578436  0.91155913  0.81115902  1
  Se  Se193  1  0.58157847  0.24474305  0.31047343  1
  Se  Se194  1  0.58912546  0.25086234  0.80584816  1
  Se  Se195  1  0.57774307  0.57376137  0.31056629  1
  Se  Se196  1  0.58320119  0.58571340  0.80054510  1
  Se  Se197  1  0.57442168  0.90739471  0.30754221  1
  Se  Se198  1  0.57788619  0.91916394  0.79621212  1
  Se  Se199  1  0.90683763  0.24680526  0.30832053  1
  Se  Se200  1  0.92254809  0.25456876  0.79993438  1
  Se  Se201  1  0.91913208  0.58606902  0.30544360  1
  Se  Se202  1  0.90851327  0.57438866  0.81241411  1
  Se  Se203  1  0.92375462  0.92255658  0.30542806  1
  Se  Se204  1  0.92008889  0.91468395  0.79679459  1
  Se  Se205  1  0.08115860  0.08465113  0.30699225  1
  Se  Se206  1  0.07889004  0.08202282  0.80000884  1
  Se  Se207  1  0.08979122  0.42530956  0.31566773  1
  Se  Se208  1  0.08344097  0.41740768  0.79782521  1
  Se  Se209  1  0.08423441  0.74845957  0.30438947  1
  Se  Se210  1  0.08934752  0.75313961  0.81233926  1
  Se  Se211  1  0.42424711  0.09095586  0.30620517  1
  Se  Se212  1  0.42553819  0.08942726  0.81096607  1
  Se  Se213  1  0.41119522  0.41243240  0.30291384  1
  Se  Se214  1  0.41662780  0.41548385  0.80350708  1
  Se  Se215  1  0.42532666  0.75840895  0.30771179  1
  Se  Se216  1  0.41055988  0.74603592  0.79959726  1
  Se  Se217  1  0.75853003  0.09371838  0.30952112  1
  Se  Se218  1  0.75255092  0.08751861  0.80395626  1
  Se  Se219  1  0.75347487  0.42074068  0.31231382  1
  Se  Se220  1  0.74714153  0.41440733  0.80109629  1
  Se  Se221  1  0.76136242  0.75962575  0.31114713  1
  Se  Se222  1  0.75655035  0.76164488  0.79431069  1
  Se  Se223  1  0.24064281  0.09380134  0.18852996  1
  Se  Se224  1  0.24152368  0.08894576  0.68917766  1
  Se  Se225  1  0.24894739  0.41932903  0.19955913  1
  Se  Se226  1  0.25264778  0.41363413  0.69232129  1
  Se  Se227  1  0.24793533  0.75983246  0.19119694  1
  Se  Se228  1  0.25135902  0.74553742  0.69858517  1
  Se  Se229  1  0.58248400  0.08764180  0.18725570  1
  Se  Se230  1  0.58899172  0.08090956  0.69832219  1
  Se  Se231  1  0.57203538  0.42584497  0.19449876  1
  Se  Se232  1  0.58246135  0.41566533  0.70022078  1
  Se  Se233  1  0.57932268  0.75561792  0.19173503  1
  Se  Se234  1  0.57985765  0.74699253  0.69589129  1
  Se  Se235  1  0.92221882  0.07826836  0.19992022  1
  Se  Se236  1  0.91719266  0.08544463  0.69439196  1
  Se  Se237  1  0.91270328  0.41961967  0.19001403  1
  Se  Se238  1  0.92044666  0.41444133  0.69734807  1
  Se  Se239  1  0.92237714  0.74647569  0.19952850  1
  Se  Se240  1  0.91065376  0.75269385  0.68964930  1
  Se  Se241  1  0.08962970  0.24623721  0.18683069  1
  Se  Se242  1  0.07988074  0.25381325  0.69317713  1
  Se  Se243  1  0.08430702  0.58681694  0.19681290  1
  Se  Se244  1  0.08480989  0.57885976  0.68455839  1
  Se  Se245  1  0.08460521  0.92056551  0.20098442  1
  Se  Se246  1  0.08353547  0.91730069  0.69964670  1
  Se  Se247  1  0.41375137  0.25306502  0.19722076  1
  Se  Se248  1  0.41712961  0.24973859  0.70295088  1
  Se  Se249  1  0.42601538  0.57577412  0.19599581  1
  Se  Se250  1  0.41246907  0.58366997  0.69519002  1
  Se  Se251  1  0.42603685  0.91204891  0.18983487  1
  Se  Se252  1  0.41883609  0.91378288  0.68591455  1
  Se  Se253  1  0.75928373  0.23723620  0.18938249  1
  Se  Se254  1  0.75028052  0.25455184  0.69839547  1
  Se  Se255  1  0.75728826  0.57324240  0.19136889  1
  Se  Se256  1  0.74690082  0.58191027  0.69985159  1
  Se  Se257  1  0.75676498  0.90784085  0.19131886  1
  Se  Se258  1  0.75481130  0.91223680  0.69907391  1
