# generated using pymatgen
data_In86Cu29Se144
_symmetry_space_group_name_H-M   'P 1'
_cell_length_a   17.59070383
_cell_length_b   17.59203052
_cell_length_c   23.44694775
_cell_angle_alpha   89.99954208
_cell_angle_beta   90.00349989
_cell_angle_gamma   89.98335754
_symmetry_Int_Tables_number   1
_chemical_formula_structural   In86Cu29Se144
_chemical_formula_sum   'In86 Cu29 Se144'
_cell_volume   7255.80300097
_cell_formula_units_Z   1
loop_
 _symmetry_equiv_pos_site_id
 _symmetry_equiv_pos_as_xyz
  1  'x, y, z'
loop_
 _atom_site_type_symbol
 _atom_site_label
 _atom_site_symmetry_multiplicity
 _atom_site_fract_x
 _atom_site_fract_y
 _atom_site_fract_z
 _atom_site_occupancy
  In  In0  1  0.00683471  0.17097508  0.13950823  1
  In  In1  1  0.01329427  0.17261113  0.62284528  1
  In  In2  1  -0.00017690  0.50377614  0.12879927  1
  In  In3  1  -0.00599744  0.49881788  0.61848487  1
  In  In4  1  -0.00659810  0.81475351  0.14198646  1
  In  In5  1  0.00216366  0.82437990  0.62043655  1
  In  In6  1  0.32142047  0.17261909  0.14121113  1
  In  In7  1  0.33903856  0.16350098  0.62568258  1
  In  In8  1  0.32001355  0.51276030  0.13383452  1
  In  In9  1  0.33376967  0.49848409  0.62550571  1
  In  In10  1  0.33300496  0.83409585  0.13325842  1
  In  In11  1  0.31939732  0.83563837  0.63097161  1
  In  In12  1  0.65927951  0.16008889  0.12431636  1
  In  In13  1  0.65443020  0.17517031  0.63069421  1
  In  In14  1  0.68147653  0.49784089  0.12184714  1
  In  In15  1  0.66512756  0.50156590  0.62223750  1
  In  In16  1  0.66830019  0.83572026  0.13756941  1
  In  In17  1  0.67698956  0.83320271  0.64025056  1
  In  In18  1  0.16131444  -0.01124881  0.36666148  1
  In  In19  1  0.17478961  -0.00783794  0.87321292  1
  In  In20  1  0.17703229  0.34090812  0.37044191  1
  In  In21  1  0.17378256  0.35173116  0.85992147  1
  In  In22  1  0.16713244  0.66230851  0.37893942  1
  In  In23  1  0.16165032  0.65405723  0.86357508  1
  In  In24  1  0.50729180  0.00526617  0.37701281  1
  In  In25  1  0.49843705  -0.00117027  0.87115050  1
  In  In26  1  0.49043279  0.34176464  0.38694341  1
  In  In27  1  0.49589340  0.33062107  0.86295382  1
  In  In28  1  0.49247507  0.65779590  0.37221148  1
  In  In29  1  0.49880918  0.66930563  0.86442190  1
  In  In30  1  0.83570946  -0.00136392  0.36198680  1
  In  In31  1  0.82770537  -0.00050025  0.87471826  1
  In  In32  1  0.84983534  0.33294729  0.37318158  1
  In  In33  1  0.84910185  0.34993911  0.86327373  1
  In  In34  1  0.82637794  0.65988259  0.36787270  1
  In  In35  1  0.82310570  0.66478633  0.87538201  1
  In  In36  1  0.01982719  0.17252480  0.35451486  1
  In  In37  1  -0.01124675  0.17544071  0.87597218  1
  In  In38  1  0.00110215  0.50090486  0.37726715  1
  In  In39  1  0.01507525  0.49597900  0.88402246  1
  In  In40  1  0.00747928  0.83968033  0.36445779  1
  In  In41  1  0.00018001  0.82193433  0.87898057  1
  In  In42  1  0.33812348  0.17682354  0.37118041  1
  In  In43  1  0.33434507  0.16870709  0.86655828  1
  In  In44  1  0.33293116  0.49842984  0.37959953  1
  In  In45  1  0.31966736  0.49741218  0.85991056  1
  In  In46  1  0.32435470  0.81593357  0.37342578  1
  In  In47  1  0.32441775  0.83417110  0.85990392  1
  In  In48  1  0.66215089  0.15784100  0.37870700  1
  In  In49  1  0.66145416  0.16260760  0.86916985  1
  In  In50  1  0.66092129  0.50404731  0.38174945  1
  In  In51  1  0.67616609  0.51131286  0.86570466  1
  In  In52  1  0.67752590  0.83315089  0.36374895  1
  In  In53  1  0.66983624  0.83112093  0.86281860  1
  In  In54  1  0.16592012  0.00192843  0.14141145  1
  In  In55  1  0.17591281  0.00120992  0.62300209  1
  In  In56  1  0.15438608  0.34968089  0.14000122  1
  In  In57  1  0.15723039  0.35223587  0.63938313  1
  In  In58  1  0.16693378  0.66005121  0.12863580  1
  In  In59  1  0.17487935  0.66725910  0.62150275  1
  In  In60  1  0.50042774  0.00063671  0.13471863  1
  In  In61  1  0.49573274  0.00600163  0.62360970  1
  In  In62  1  0.49369274  0.32230202  0.12422842  1
  In  In63  1  0.49871630  0.33527801  0.62362871  1
  In  In64  1  0.49561657  0.67151220  0.13628194  1
  In  In65  1  0.51101791  0.66245528  0.62657512  1
  In  In66  1  0.83001128  -0.00122703  0.13515436  1
  In  In67  1  0.82434437  -0.01084634  0.62686042  1
  In  In68  1  0.84233634  0.35081065  0.12005069  1
  In  In69  1  0.82025978  0.34086427  0.63063941  1
  In  In70  1  0.83827507  0.65374552  0.14006883  1
  In  In71  1  0.83905421  0.65940326  0.62545119  1
  In  In72  1  -0.00053317  0.66844592  0.74682326  1
  In  In73  1  0.83578333  0.16808686  0.49160195  1
  In  In74  1  0.49995651  0.82823036  0.49988450  1
  In  In75  1  -0.00168888  0.00496988  0.75232820  1
  In  In76  1  0.16493697  0.17385833  0.00767411  1
  In  In77  1  0.49925021  0.50080241  -0.00463720  1
  In  In78  1  0.83723655  0.82873431  0.49177525  1
  In  In79  1  0.83104903  0.17154277  0.00640791  1
  In  In80  1  0.49860064  0.16614700  -0.00683431  1
  In  In81  1  0.16516864  0.82411431  0.01181552  1
  In  In82  1  0.50059891  0.83188521  0.00664737  1
  In  In83  1  0.66590515  0.33234033  0.24259649  1
  In  In84  1  0.83081117  0.82482723  -0.00178832  1
  In  In85  1  0.17590953  0.17122966  0.49244100  1
  Cu  Cu86  1  0.67575072  0.33640714  -0.01057648  1
  Cu  Cu87  1  0.50265172  0.16029708  0.74647140  1
  Cu  Cu88  1  0.33099651  0.33522122  0.50318773  1
  Cu  Cu89  1  0.50028309  0.83446007  0.25727294  1
  Cu  Cu90  1  0.33945084  0.00350684  0.00213510  1
  Cu  Cu91  1  0.66758950  0.66324491  0.49834718  1
  Cu  Cu92  1  0.66469950  0.33817596  0.50697612  1
  Cu  Cu93  1  0.66887633  0.66401944  0.00010986  1
  Cu  Cu94  1  0.32347045  0.34720951  -0.00156276  1
  Cu  Cu95  1  0.49651207  0.83693818  0.74368380  1
  Cu  Cu96  1  0.17159609  0.82225013  0.25232136  1
  Cu  Cu97  1  0.00700357  0.66150486  0.49942934  1
  Cu  Cu98  1  -0.00136888  0.34130692  0.50072124  1
  Cu  Cu99  1  0.83747441  0.49619985  0.24993884  1
  Cu  Cu100  1  0.16869023  0.17315125  0.74772118  1
  Cu  Cu101  1  0.32250588  0.65900286  -0.00260300  1
  Cu  Cu102  1  0.49746277  0.49699342  0.25770843  1
  Cu  Cu103  1  0.49800633  0.16954910  0.25316429  1
  Cu  Cu104  1  0.83046005  0.16860824  0.75032401  1
  Cu  Cu105  1  0.50090306  0.49958096  0.74398947  1
  Cu  Cu106  1  0.16676490  0.50446326  0.25615269  1
  Cu  Cu107  1  0.33296260  0.65946325  0.49966114  1
  Cu  Cu108  1  0.00341514  -0.00258603  0.48637969  1
  Cu  Cu109  1  0.83123424  0.50194110  0.74573119  1
  Cu  Cu110  1  0.83393575  0.16924283  0.25217439  1
  Cu  Cu111  1  0.33258309  -0.00477173  0.50341097  1
  Cu  Cu112  1  0.00840373  0.34429428  -0.00114275  1
  Cu  Cu113  1  -0.00351676  -0.00832640  0.00808284  1
  Cu  Cu114  1  0.66195507  0.00377852  0.50252700  1
  Se  Se115  1  0.07752580  0.07466385  0.06343417  1
  Se  Se116  1  0.08017093  0.07762041  0.54986161  1
  Se  Se117  1  0.08722534  0.42298668  0.05888369  1
  Se  Se118  1  0.08670305  0.41723288  0.55496223  1
  Se  Se119  1  0.06604189  0.73627370  0.06211654  1
  Se  Se120  1  0.08687879  0.74774604  0.55248117  1
  Se  Se121  1  0.41202101  0.08669575  0.06371655  1
  Se  Se122  1  0.41537196  0.08324630  0.55059794  1
  Se  Se123  1  0.40999558  0.41706499  0.06090055  1
  Se  Se124  1  0.41768239  0.41846415  0.55402836  1
  Se  Se125  1  0.40337600  0.73806349  0.05774253  1
  Se  Se126  1  0.40928495  0.74338578  0.56169165  1
  Se  Se127  1  0.74290363  0.07258545  0.05634095  1
  Se  Se128  1  0.74800690  0.08341023  0.55854486  1
  Se  Se129  1  0.75437704  0.41811095  0.04652653  1
  Se  Se130  1  0.75344048  0.42150109  0.55303539  1
  Se  Se131  1  0.74252425  0.74249253  0.06530266  1
  Se  Se132  1  0.74477640  0.74786510  0.55744633  1
  Se  Se133  1  0.25459791  0.26535510  0.06466070  1
  Se  Se134  1  0.24891956  0.25801954  0.56472566  1
  Se  Se135  1  0.24232533  0.57828278  0.05349382  1
  Se  Se136  1  0.24905745  0.57684093  0.55336559  1
  Se  Se137  1  0.25556264  0.92601939  0.06101839  1
  Se  Se138  1  0.24641342  0.91232335  0.55196029  1
  Se  Se139  1  0.59411968  0.25974815  0.05095675  1
  Se  Se140  1  0.58096135  0.24973611  0.55333031  1
  Se  Se141  1  0.58364342  0.58988371  0.06135068  1
  Se  Se142  1  0.58192734  0.58202941  0.55042199  1
  Se  Se143  1  0.58982983  0.92394278  0.06210151  1
  Se  Se144  1  0.59364891  0.91343292  0.56177599  1
  Se  Se145  1  0.93461758  0.25619112  0.05869046  1
  Se  Se146  1  0.92026781  0.25574995  0.55835750  1
  Se  Se147  1  0.90272121  0.57347866  0.06327141  1
  Se  Se148  1  0.91442636  0.58478942  0.54942231  1
  Se  Se149  1  0.91792190  0.91147967  0.06591590  1
  Se  Se150  1  0.92309350  0.92548656  0.55306728  1
  Se  Se151  1  0.07505269  0.25759457  0.43985406  1
  Se  Se152  1  0.08310687  0.25954536  0.93840988  1
  Se  Se153  1  0.08907788  0.57499375  0.44826266  1
  Se  Se154  1  0.08894923  0.59231649  0.94555339  1
  Se  Se155  1  0.08784977  0.90790643  0.44284621  1
  Se  Se156  1  0.07978003  0.91982275  0.94578978  1
  Se  Se157  1  0.41228773  0.24808140  0.45088712  1
  Se  Se158  1  0.40409278  0.26350860  0.94207814  1
  Se  Se159  1  0.42076185  0.57893939  0.44855045  1
  Se  Se160  1  0.40869022  0.58919245  0.93538557  1
  Se  Se161  1  0.41054974  0.91659095  0.43903429  1
  Se  Se162  1  0.40863849  0.91616808  0.94165956  1
  Se  Se163  1  0.74117265  0.26291129  0.43843996  1
  Se  Se164  1  0.75396636  0.25363538  0.93170776  1
  Se  Se165  1  0.75441380  0.58272985  0.44570476  1
  Se  Se166  1  0.74964048  0.57873392  0.94767735  1
  Se  Se167  1  0.74450485  0.92772550  0.44079521  1
  Se  Se168  1  0.73892774  0.91727567  0.94284457  1
  Se  Se169  1  0.25669745  0.07131442  0.43588630  1
  Se  Se170  1  0.25564786  0.08315964  0.94459064  1
  Se  Se171  1  0.24746960  0.41687242  0.44879898  1
  Se  Se172  1  0.24455503  0.42645821  0.93998270  1
  Se  Se173  1  0.24789138  0.74580560  0.45116548  1
  Se  Se174  1  0.25171949  0.74926234  0.93855082  1
  Se  Se175  1  0.57766278  0.08837765  0.45329624  1
  Se  Se176  1  0.59199120  0.07058550  0.94438942  1
  Se  Se177  1  0.58149830  0.42009040  0.45088956  1
  Se  Se178  1  0.58715221  0.41111676  0.93322831  1
  Se  Se179  1  0.59369222  0.74637768  0.43619869  1
  Se  Se180  1  0.58783469  0.74406997  0.94112658  1
  Se  Se181  1  0.92783528  0.08333447  0.42966994  1
  Se  Se182  1  0.92246827  0.07493612  0.94704203  1
  Se  Se183  1  0.91280759  0.42100215  0.44737224  1
  Se  Se184  1  0.91689804  0.41953946  0.94631886  1
  Se  Se185  1  0.92819140  0.73938021  0.43502210  1
  Se  Se186  1  0.92489100  0.73080031  0.94658754  1
  Se  Se187  1  0.23140441  0.23259762  0.30836897  1
  Se  Se188  1  0.25393287  0.25515704  0.80064247  1
  Se  Se189  1  0.25431597  0.58396015  0.30940859  1
  Se  Se190  1  0.26116885  0.60088568  0.79437201  1
  Se  Se191  1  0.25436169  0.90803599  0.30409423  1
  Se  Se192  1  0.25435443  0.93068766  0.79574497  1
  Se  Se193  1  0.57932591  0.25182020  0.31193914  1
  Se  Se194  1  0.58354247  0.24700435  0.80005762  1
  Se  Se195  1  0.58504643  0.58097575  0.30579069  1
  Se  Se196  1  0.58255847  0.58379418  0.79969111  1
  Se  Se197  1  0.58448663  0.91943077  0.30711156  1
  Se  Se198  1  0.57941179  0.91598266  0.80248478  1
  Se  Se199  1  0.92200265  0.25451364  0.29746552  1
  Se  Se200  1  0.91918089  0.25166744  0.79809557  1
  Se  Se201  1  0.91870094  0.57984833  0.30476078  1
  Se  Se202  1  0.91295423  0.57788379  0.80899245  1
  Se  Se203  1  0.91406307  0.91063959  0.29831852  1
  Se  Se204  1  0.91339291  0.90795159  0.81203594  1
  Se  Se205  1  0.07633409  0.06400076  0.29650076  1
  Se  Se206  1  0.09102226  0.09535152  0.81350435  1
  Se  Se207  1  0.08314134  0.41799410  0.30681627  1
  Se  Se208  1  0.07053565  0.41881029  0.80083002  1
  Se  Se209  1  0.08581747  0.74130761  0.30540798  1
  Se  Se210  1  0.09191147  0.76397971  0.80303041  1
  Se  Se211  1  0.41999897  0.08454928  0.30905881  1
  Se  Se212  1  0.41670936  0.08148827  0.80276435  1
  Se  Se213  1  0.41380699  0.41272817  0.30871437  1
  Se  Se214  1  0.41551920  0.41856669  0.79861878  1
  Se  Se215  1  0.41616720  0.74543387  0.30397665  1
  Se  Se216  1  0.41539989  0.75261924  0.79816960  1
  Se  Se217  1  0.74725849  0.09000111  0.30433313  1
  Se  Se218  1  0.75128908  0.08226707  0.80409874  1
  Se  Se219  1  0.75258076  0.41679692  0.30919455  1
  Se  Se220  1  0.74786260  0.41618813  0.79926365  1
  Se  Se221  1  0.76531780  0.75671114  0.29729068  1
  Se  Se222  1  0.75177647  0.74345234  0.80096643  1
  Se  Se223  1  0.26918570  0.06409137  0.20194883  1
  Se  Se224  1  0.24820230  0.08705830  0.69394460  1
  Se  Se225  1  0.25297683  0.41972639  0.20409214  1
  Se  Se226  1  0.26224027  0.41303924  0.69926888  1
  Se  Se227  1  0.25392825  0.74165135  0.19533804  1
  Se  Se228  1  0.24712898  0.74449908  0.69853051  1
  Se  Se229  1  0.58356483  0.08727416  0.20070563  1
  Se  Se230  1  0.58672293  0.07500733  0.69484423  1
  Se  Se231  1  0.57242675  0.42539082  0.18624695  1
  Se  Se232  1  0.58572283  0.41610446  0.69184107  1
  Se  Se233  1  0.58278070  0.75046263  0.20200342  1
  Se  Se234  1  0.58371824  0.74983634  0.69807888  1
  Se  Se235  1  0.91669088  0.08474475  0.19821217  1
  Se  Se236  1  0.91072054  0.09236198  0.68571412  1
  Se  Se237  1  0.92296540  0.41265647  0.19903668  1
  Se  Se238  1  0.91554108  0.41923028  0.69218523  1
  Se  Se239  1  0.88875113  0.76039191  0.20742066  1
  Se  Se240  1  0.90539504  0.76343127  0.69253491  1
  Se  Se241  1  0.10886228  0.23518524  0.20000296  1
  Se  Se242  1  0.07892959  0.25372350  0.69940824  1
  Se  Se243  1  0.08173213  0.58475035  0.20021631  1
  Se  Se244  1  0.08646961  0.57748255  0.68782839  1
  Se  Se245  1  0.08605240  0.90268006  0.19726457  1
  Se  Se246  1  0.08362802  0.91606377  0.68852692  1
  Se  Se247  1  0.41502370  0.25541370  0.20185030  1
  Se  Se248  1  0.42144512  0.24669742  0.69374749  1
  Se  Se249  1  0.41645898  0.58144359  0.20051069  1
  Se  Se250  1  0.41937679  0.58500989  0.69163767  1
  Se  Se251  1  0.41777966  0.91559814  0.20006210  1
  Se  Se252  1  0.41374421  0.91946907  0.68955967  1
  Se  Se253  1  0.76103326  0.24537208  0.18229722  1
  Se  Se254  1  0.74506597  0.25085703  0.69761464  1
  Se  Se255  1  0.74260240  0.57547547  0.20294914  1
  Se  Se256  1  0.74824346  0.58560574  0.69251975  1
  Se  Se257  1  0.73554105  0.93287101  0.20193590  1
  Se  Se258  1  0.75319286  0.92171432  0.70643933  1
