# generated using pymatgen
data_In86Cu29Se144
_symmetry_space_group_name_H-M   'P 1'
_cell_length_a   17.58783431
_cell_length_b   17.58629057
_cell_length_c   23.45270815
_cell_angle_alpha   89.99073062
_cell_angle_beta   89.99447659
_cell_angle_gamma   90.03767600
_symmetry_Int_Tables_number   1
_chemical_formula_structural   In86Cu29Se144
_chemical_formula_sum   'In86 Cu29 Se144'
_cell_volume   7254.03268107
_cell_formula_units_Z   1
loop_
 _symmetry_equiv_pos_site_id
 _symmetry_equiv_pos_as_xyz
  1  'x, y, z'
loop_
 _atom_site_type_symbol
 _atom_site_label
 _atom_site_symmetry_multiplicity
 _atom_site_fract_x
 _atom_site_fract_y
 _atom_site_fract_z
 _atom_site_occupancy
  In  In0  1  -0.02000439  0.17865820  0.14162798  1
  In  In1  1  0.01700271  0.16817033  0.61877834  1
  In  In2  1  -0.00081190  0.49957431  0.13208626  1
  In  In3  1  -0.00717338  0.50649538  0.62165948  1
  In  In4  1  -0.01717987  0.84551751  0.13998985  1
  In  In5  1  -0.00863473  0.82143882  0.62270236  1
  In  In6  1  0.32865099  0.17233152  0.13612474  1
  In  In7  1  0.32650476  0.15524657  0.61580103  1
  In  In8  1  0.33198280  0.50190560  0.12817260  1
  In  In9  1  0.32976083  0.51234379  0.62581486  1
  In  In10  1  0.34475437  0.82574977  0.13219775  1
  In  In11  1  0.33293768  0.82853918  0.62966383  1
  In  In12  1  0.67143463  0.15335069  0.12112212  1
  In  In13  1  0.65845095  0.17227060  0.62944366  1
  In  In14  1  0.67099339  0.51662092  0.12238015  1
  In  In15  1  0.67386736  0.49254274  0.63298803  1
  In  In16  1  0.65001084  0.82631250  0.11253755  1
  In  In17  1  0.67021982  0.83126036  0.63681679  1
  In  In18  1  0.17705838  0.01280060  0.37024945  1
  In  In19  1  0.17331526  -0.01335730  0.86891941  1
  In  In20  1  0.16542065  0.33427646  0.38090459  1
  In  In21  1  0.16024660  0.35017706  0.86761401  1
  In  In22  1  0.15806886  0.65385794  0.37091142  1
  In  In23  1  0.16526832  0.66388934  0.86488587  1
  In  In24  1  0.49717076  0.01426646  0.37987986  1
  In  In25  1  0.49389635  -0.01246969  0.87042778  1
  In  In26  1  0.48214237  0.33623342  0.37547267  1
  In  In27  1  0.51158543  0.33266954  0.87661978  1
  In  In28  1  0.50315465  0.67195571  0.36796699  1
  In  In29  1  0.50026354  0.66501749  0.87835818  1
  In  In30  1  0.84117228  -0.00551053  0.36398107  1
  In  In31  1  0.82525708  0.00781167  0.88146293  1
  In  In32  1  0.86219821  0.33668981  0.37067398  1
  In  In33  1  0.83521160  0.33301990  0.87088149  1
  In  In34  1  0.82922005  0.66183905  0.36969725  1
  In  In35  1  0.83995260  0.67569104  0.87607595  1
  In  In36  1  0.01514800  0.18720280  0.35953121  1
  In  In37  1  -0.01171006  0.17148333  0.87597309  1
  In  In38  1  0.00714807  0.50326630  0.38065374  1
  In  In39  1  0.00319887  0.49961598  0.86455296  1
  In  In40  1  -0.01049058  0.82850236  0.35897932  1
  In  In41  1  0.00095073  0.82282076  0.87933580  1
  In  In42  1  0.32637289  0.16595884  0.38101861  1
  In  In43  1  0.34786923  0.16204064  0.87151027  1
  In  In44  1  0.32048681  0.48903591  0.36986411  1
  In  In45  1  0.33510288  0.53146067  0.87409474  1
  In  In46  1  0.33850030  0.83908365  0.36716599  1
  In  In47  1  0.33691987  0.83405547  0.87154499  1
  In  In48  1  0.66528717  0.15979075  0.37888992  1
  In  In49  1  0.67836203  0.17878919  0.86684876  1
  In  In50  1  0.66744221  0.51387178  0.37568651  1
  In  In51  1  0.65686389  0.49121748  0.87187050  1
  In  In52  1  0.68105631  0.82446489  0.36809161  1
  In  In53  1  0.66629616  0.83197969  0.87622712  1
  In  In54  1  0.16447889  0.00007967  0.13596501  1
  In  In55  1  0.17119536  0.01035106  0.61859742  1
  In  In56  1  0.16013374  0.33803625  0.13304318  1
  In  In57  1  0.16027611  0.33153193  0.62313020  1
  In  In58  1  0.16853344  0.66629713  0.13275822  1
  In  In59  1  0.16481107  0.65875356  0.62605557  1
  In  In60  1  0.50403945  -0.01085900  0.12412371  1
  In  In61  1  0.49094768  0.00816673  0.63185348  1
  In  In62  1  0.48484494  0.33236841  0.12533608  1
  In  In63  1  0.51266023  0.33016744  0.62723308  1
  In  In64  1  0.49525977  0.67069146  0.12059041  1
  In  In65  1  0.49895770  0.66899051  0.63565412  1
  In  In66  1  0.83565994  0.00525701  0.11706071  1
  In  In67  1  0.83263171  -0.01354626  0.62582843  1
  In  In68  1  0.84932989  0.32660769  0.12423259  1
  In  In69  1  0.82328511  0.34444633  0.62960227  1
  In  In70  1  0.81689864  0.68339518  0.14210901  1
  In  In71  1  0.85281088  0.64503991  0.64259643  1
  In  In72  1  0.83602036  0.16940704  0.49366479  1
  In  In73  1  0.50035597  0.83620288  0.49425753  1
  In  In74  1  0.66701818  0.33699375  0.24171353  1
  In  In75  1  0.15944374  0.16467961  -0.00128896  1
  In  In76  1  0.00350868  -0.00043076  0.74515002  1
  In  In77  1  0.66439262  -0.00394233  0.25137070  1
  In  In78  1  0.83457230  0.50373963  -0.00257882  1
  In  In79  1  0.33496245  0.33365520  0.74526609  1
  In  In80  1  0.49603425  0.49772223  0.50279139  1
  In  In81  1  0.83234956  0.82765676  0.49246993  1
  In  In82  1  0.16742809  0.50162085  0.00601213  1
  In  In83  1  0.50658954  0.16205637  0.00034526  1
  In  In84  1  0.16881814  0.82927784  -0.00039450  1
  In  In85  1  0.16571192  0.83347140  0.49927884  1
  Cu  Cu86  1  0.32833411  0.32683411  0.50048953  1
  Cu  Cu87  1  0.66937116  0.33521569  0.50428461  1
  Cu  Cu88  1  0.49921400  0.50141218  0.75245102  1
  Cu  Cu89  1  0.49934497  0.83172428  0.24466626  1
  Cu  Cu90  1  0.67799227  0.66148351  0.50602373  1
  Cu  Cu91  1  -0.00702832  0.00118469  0.00791678  1
  Cu  Cu92  1  0.82934214  0.83514955  0.75532620  1
  Cu  Cu93  1  0.00157113  0.33977847  0.50059792  1
  Cu  Cu94  1  0.83443436  0.17040639  0.74831930  1
  Cu  Cu95  1  0.50532194  0.15615987  0.75124149  1
  Cu  Cu96  1  0.82949669  0.50164181  0.75399266  1
  Cu  Cu97  1  0.16756427  0.16611316  0.25591195  1
  Cu  Cu98  1  -0.00181659  0.66766328  0.00538524  1
  Cu  Cu99  1  0.17129076  0.16638606  0.74408733  1
  Cu  Cu100  1  0.67444902  0.33210531  -0.00494223  1
  Cu  Cu101  1  0.17137993  0.82770309  0.74685206  1
  Cu  Cu102  1  0.33650238  -0.00498409  -0.00017999  1
  Cu  Cu103  1  0.66073078  0.00312970  0.50338897  1
  Cu  Cu104  1  0.83835197  0.49712929  0.25209273  1
  Cu  Cu105  1  0.17080762  0.49495080  0.25476046  1
  Cu  Cu106  1  0.66192627  0.67163906  0.00040250  1
  Cu  Cu107  1  0.49108617  0.17154672  0.25622208  1
  Cu  Cu108  1  0.67148367  -0.00295131  -0.00510747  1
  Cu  Cu109  1  0.32859820  0.66251579  0.49712565  1
  Cu  Cu110  1  0.00740443  0.00145516  0.48881267  1
  Cu  Cu111  1  0.16914777  0.83329773  0.25311634  1
  Cu  Cu112  1  0.33061985  0.34259624  0.00476370  1
  Cu  Cu113  1  0.50342627  0.82806016  0.75547170  1
  Cu  Cu114  1  0.49657482  0.51213544  0.24912747  1
  Se  Se115  1  0.07609447  0.07961206  0.06531122  1
  Se  Se116  1  0.08735435  0.08309826  0.54529030  1
  Se  Se117  1  0.07202577  0.40851460  0.05715552  1
  Se  Se118  1  0.08222637  0.42113600  0.55705708  1
  Se  Se119  1  0.07782227  0.74944268  0.06489240  1
  Se  Se120  1  0.07415462  0.74039214  0.55269017  1
  Se  Se121  1  0.40788631  0.08202062  0.06153268  1
  Se  Se122  1  0.42534632  0.08539016  0.55327124  1
  Se  Se123  1  0.41640177  0.42372667  0.05580834  1
  Se  Se124  1  0.40744057  0.40601555  0.56390443  1
  Se  Se125  1  0.42026582  0.76176915  0.05274771  1
  Se  Se126  1  0.41371777  0.74018468  0.55498486  1
  Se  Se127  1  0.75217283  0.08476846  0.04554196  1
  Se  Se128  1  0.75036875  0.07901779  0.55922283  1
  Se  Se129  1  0.74850846  0.41101794  0.06148323  1
  Se  Se130  1  0.75004354  0.42331404  0.55303703  1
  Se  Se131  1  0.75133339  0.74740286  0.05492351  1
  Se  Se132  1  0.75228191  0.74640004  0.56524089  1
  Se  Se133  1  0.25123931  0.25690678  0.05919724  1
  Se  Se134  1  0.24328694  0.24728488  0.55557908  1
  Se  Se135  1  0.25857572  0.59786959  0.05646880  1
  Se  Se136  1  0.24585687  0.58189905  0.55126603  1
  Se  Se137  1  0.25256041  0.92239779  0.06202839  1
  Se  Se138  1  0.26157482  0.92015118  0.55630180  1
  Se  Se139  1  0.59221970  0.25802642  0.06099177  1
  Se  Se140  1  0.58486835  0.24927872  0.55173201  1
  Se  Se141  1  0.58125971  0.58549719  0.05304186  1
  Se  Se142  1  0.58672021  0.58835587  0.56231226  1
  Se  Se143  1  0.57865744  0.92037352  0.04461797  1
  Se  Se144  1  0.58922495  0.91607010  0.56240250  1
  Se  Se145  1  0.92130592  0.24249505  0.05319420  1
  Se  Se146  1  0.91954893  0.25743049  0.56037519  1
  Se  Se147  1  0.91545950  0.59040173  0.06544509  1
  Se  Se148  1  0.90552630  0.58517228  0.55251903  1
  Se  Se149  1  0.91356885  0.90847967  0.05429224  1
  Se  Se150  1  0.92706614  0.92322810  0.55002161  1
  Se  Se151  1  0.07812052  0.24990056  0.44718275  1
  Se  Se152  1  0.07947361  0.26129914  0.93892285  1
  Se  Se153  1  0.09550972  0.57721276  0.45075283  1
  Se  Se154  1  0.07587262  0.58983189  0.94294172  1
  Se  Se155  1  0.07835923  0.91423794  0.42952450  1
  Se  Se156  1  0.07640401  0.92757250  0.94446510  1
  Se  Se157  1  0.41628489  0.24861350  0.44803870  1
  Se  Se158  1  0.41049379  0.25736579  0.94658799  1
  Se  Se159  1  0.41364745  0.58704520  0.43682122  1
  Se  Se160  1  0.42993635  0.57284239  0.94873301  1
  Se  Se161  1  0.40502546  0.92873435  0.44471716  1
  Se  Se162  1  0.41678900  0.91174975  0.94609475  1
  Se  Se163  1  0.74776630  0.26394612  0.43564942  1
  Se  Se164  1  0.75781578  0.24941548  0.94399238  1
  Se  Se165  1  0.75658718  0.58142892  0.44755272  1
  Se  Se166  1  0.73996244  0.58971594  0.93857444  1
  Se  Se167  1  0.74140421  0.92824933  0.43952999  1
  Se  Se168  1  0.75534337  0.90995445  0.94577397  1
  Se  Se169  1  0.24241959  0.08624673  0.45063993  1
  Se  Se170  1  0.25743441  0.07575223  0.94013651  1
  Se  Se171  1  0.24974371  0.41740304  0.45016761  1
  Se  Se172  1  0.25638881  0.41727021  0.93846156  1
  Se  Se173  1  0.25703092  0.74794512  0.43618811  1
  Se  Se174  1  0.25427497  0.73920909  0.93817761  1
  Se  Se175  1  0.58051914  0.09003699  0.45233840  1
  Se  Se176  1  0.59132151  0.07918655  0.93293537  1
  Se  Se177  1  0.58767016  0.41188803  0.43991630  1
  Se  Se178  1  0.58396921  0.41507565  0.95074071  1
  Se  Se179  1  0.59849554  0.74121481  0.44392028  1
  Se  Se180  1  0.57977175  0.75430783  0.94579110  1
  Se  Se181  1  0.92470127  0.08157980  0.43159612  1
  Se  Se182  1  0.91792036  0.08420454  0.94723013  1
  Se  Se183  1  0.91687456  0.42240155  0.44911231  1
  Se  Se184  1  0.92620837  0.41498814  0.94023440  1
  Se  Se185  1  0.92695468  0.73991524  0.43832768  1
  Se  Se186  1  0.91567383  0.75259227  0.95290187  1
  Se  Se187  1  0.24835948  0.25159823  0.31068841  1
  Se  Se188  1  0.24669282  0.24326060  0.81101317  1
  Se  Se189  1  0.25377786  0.58576224  0.30237005  1
  Se  Se190  1  0.23202333  0.56327199  0.80225256  1
  Se  Se191  1  0.25194138  0.92143558  0.30239711  1
  Se  Se192  1  0.25564589  0.91321512  0.79741662  1
  Se  Se193  1  0.57985954  0.25007831  0.31030456  1
  Se  Se194  1  0.58100000  0.24931874  0.80176716  1
  Se  Se195  1  0.58702974  0.58774929  0.30157788  1
  Se  Se196  1  0.58295455  0.58418908  0.80610432  1
  Se  Se197  1  0.57309519  0.90798488  0.31473845  1
  Se  Se198  1  0.58747263  0.91580750  0.80404191  1
  Se  Se199  1  0.90788350  0.24171953  0.29659242  1
  Se  Se200  1  0.91969316  0.25279057  0.79978263  1
  Se  Se201  1  0.92078044  0.57851005  0.30793589  1
  Se  Se202  1  0.91334434  0.58664879  0.80604710  1
  Se  Se203  1  0.89334260  0.89728215  0.29331225  1
  Se  Se204  1  0.91637343  0.91570822  0.81187503  1
  Se  Se205  1  0.07978923  0.07833922  0.30215801  1
  Se  Se206  1  0.09127632  0.08881323  0.80966402  1
  Se  Se207  1  0.08420432  0.41594948  0.30968623  1
  Se  Se208  1  0.07481502  0.41240059  0.79381222  1
  Se  Se209  1  0.08610129  0.74613159  0.30236691  1
  Se  Se210  1  0.08234453  0.75445162  0.80295586  1
  Se  Se211  1  0.41096276  0.08523010  0.30849895  1
  Se  Se212  1  0.41603735  0.07486713  0.80008911  1
  Se  Se213  1  0.41751235  0.42264978  0.30100713  1
  Se  Se214  1  0.41922974  0.41987091  0.81285963  1
  Se  Se215  1  0.41614235  0.74975089  0.30068646  1
  Se  Se216  1  0.41668831  0.74486889  0.80616374  1
  Se  Se217  1  0.75514203  0.09328605  0.30459714  1
  Se  Se218  1  0.75509088  0.08457546  0.80241880  1
  Se  Se219  1  0.75340573  0.41876655  0.31122671  1
  Se  Se220  1  0.74753680  0.41407276  0.80529337  1
  Se  Se221  1  0.75886323  0.74921945  0.29664741  1
  Se  Se222  1  0.74888991  0.74794578  0.80693733  1
  Se  Se223  1  0.25083379  0.08342225  0.20140944  1
  Se  Se224  1  0.25329034  0.07933176  0.69514574  1
  Se  Se225  1  0.25259458  0.41506872  0.19659933  1
  Se  Se226  1  0.24220571  0.42405638  0.69105653  1
  Se  Se227  1  0.25237907  0.75130536  0.19849079  1
  Se  Se228  1  0.25168386  0.74086250  0.69399846  1
  Se  Se229  1  0.57151489  0.09274046  0.19436642  1
  Se  Se230  1  0.59074620  0.07584762  0.69691431  1
  Se  Se231  1  0.57343707  0.42947891  0.18695873  1
  Se  Se232  1  0.58183330  0.41613536  0.69993975  1
  Se  Se233  1  0.58286726  0.74854702  0.19211651  1
  Se  Se234  1  0.58778694  0.74519852  0.70238008  1
  Se  Se235  1  0.92124396  0.06511207  0.19460318  1
  Se  Se236  1  0.91273425  0.09133303  0.68463248  1
  Se  Se237  1  0.91837899  0.41185332  0.19868641  1
  Se  Se238  1  0.91245910  0.42267847  0.69488272  1
  Se  Se239  1  0.94063235  0.72337787  0.19162224  1
  Se  Se240  1  0.91575963  0.75434407  0.70223988  1
  Se  Se241  1  0.08451371  0.24866402  0.20053682  1
  Se  Se242  1  0.08306349  0.24858858  0.69679115  1
  Se  Se243  1  0.08883034  0.57706966  0.19807045  1
  Se  Se244  1  0.06270975  0.59930335  0.69108400  1
  Se  Se245  1  0.08210374  0.91602390  0.20264414  1
  Se  Se246  1  0.09193648  0.90739127  0.68363755  1
  Se  Se247  1  0.41143286  0.25769187  0.20268511  1
  Se  Se248  1  0.42388138  0.23747455  0.69018457  1
  Se  Se249  1  0.41258892  0.59141084  0.19340470  1
  Se  Se250  1  0.41398381  0.58300592  0.69956511  1
  Se  Se251  1  0.41724373  0.92289237  0.19817937  1
  Se  Se252  1  0.42229372  0.90734650  0.69510623  1
  Se  Se253  1  0.75497118  0.23948448  0.18934213  1
  Se  Se254  1  0.74752758  0.25177959  0.69515375  1
  Se  Se255  1  0.74897051  0.57910534  0.20298977  1
  Se  Se256  1  0.74334803  0.58530071  0.70226920  1
  Se  Se257  1  0.74100148  0.91481051  0.17886623  1
  Se  Se258  1  0.75005822  0.92170503  0.70244841  1
