# generated using pymatgen
data_In86Cu29Se144
_symmetry_space_group_name_H-M   'P 1'
_cell_length_a   17.61582643
_cell_length_b   17.61598971
_cell_length_c   23.47389834
_cell_angle_alpha   89.96338138
_cell_angle_beta   89.97869031
_cell_angle_gamma   89.99085957
_symmetry_Int_Tables_number   1
_chemical_formula_structural   In86Cu29Se144
_chemical_formula_sum   'In86 Cu29 Se144'
_cell_volume   7284.42314624
_cell_formula_units_Z   1
loop_
 _symmetry_equiv_pos_site_id
 _symmetry_equiv_pos_as_xyz
  1  'x, y, z'
loop_
 _atom_site_type_symbol
 _atom_site_label
 _atom_site_symmetry_multiplicity
 _atom_site_fract_x
 _atom_site_fract_y
 _atom_site_fract_z
 _atom_site_occupancy
  In  In0  1  -0.00717172  0.15101642  0.10580463  1
  In  In1  1  0.01441947  0.16748828  0.63131896  1
  In  In2  1  -0.00650333  0.50830866  0.12246997  1
  In  In3  1  0.00056993  0.50080875  0.62761745  1
  In  In4  1  -0.00260127  0.87940135  0.12159835  1
  In  In5  1  -0.01791009  0.82412164  0.62334303  1
  In  In6  1  0.33376904  0.16356519  0.13030012  1
  In  In7  1  0.34723101  0.16645719  0.62409077  1
  In  In8  1  0.35753359  0.48180473  0.15100465  1
  In  In9  1  0.33370102  0.49633933  0.61580573  1
  In  In10  1  0.33869642  0.82562623  0.13401967  1
  In  In11  1  0.33278435  0.82587780  0.62055836  1
  In  In12  1  0.66825401  0.16244463  0.12707822  1
  In  In13  1  0.66301625  0.17372262  0.62421400  1
  In  In14  1  0.65836248  0.48027661  0.13409904  1
  In  In15  1  0.67469189  0.49732214  0.61135567  1
  In  In16  1  0.67680107  0.85351691  0.10893704  1
  In  In17  1  0.66644392  0.83456647  0.61435109  1
  In  In18  1  0.19647397  0.03306745  0.33419597  1
  In  In19  1  0.17697445  0.00049354  0.88543626  1
  In  In20  1  0.19060973  0.34066677  0.36449609  1
  In  In21  1  0.17124258  0.33152542  0.87372140  1
  In  In22  1  0.16739376  0.65664731  0.38432427  1
  In  In23  1  0.16340852  0.66350484  0.86298324  1
  In  In24  1  0.49561297  0.00635262  0.36344402  1
  In  In25  1  0.50435974  -0.00704805  0.89853953  1
  In  In26  1  0.49639033  0.33907150  0.37698470  1
  In  In27  1  0.49231874  0.32820036  0.87118631  1
  In  In28  1  0.49418416  0.67366578  0.38122613  1
  In  In29  1  0.49524825  0.67443517  0.87222889  1
  In  In30  1  0.82654396  -0.00053249  0.36439926  1
  In  In31  1  0.84453667  -0.00968499  0.90009105  1
  In  In32  1  0.82261322  0.34153371  0.37449905  1
  In  In33  1  0.84237341  0.32483243  0.88515934  1
  In  In34  1  0.83574826  0.67021723  0.38213209  1
  In  In35  1  0.83400330  0.65972206  0.87928017  1
  In  In36  1  0.01454748  0.16097011  0.36573174  1
  In  In37  1  -0.00499457  0.17205991  0.88794993  1
  In  In38  1  -0.00930813  0.50295044  0.38875234  1
  In  In39  1  0.00015993  0.49734378  0.86961110  1
  In  In40  1  -0.00709829  0.84182521  0.37531012  1
  In  In41  1  -0.00070699  0.82417591  0.87308483  1
  In  In42  1  0.36006702  0.21609141  0.32138228  1
  In  In43  1  0.33426215  0.16865619  0.88415246  1
  In  In44  1  0.33182587  0.50192205  0.38537230  1
  In  In45  1  0.33241849  0.49573886  0.86335755  1
  In  In46  1  0.34539267  0.85492545  0.35515051  1
  In  In47  1  0.33452661  0.83034334  0.87590564  1
  In  In48  1  0.64330258  0.15469816  0.34564283  1
  In  In49  1  0.67731405  0.14622778  0.90304924  1
  In  In50  1  0.67082041  0.49466974  0.37870662  1
  In  In51  1  0.66772493  0.50708537  0.87559206  1
  In  In52  1  0.66289485  0.84246997  0.37710086  1
  In  In53  1  0.66807359  0.83356041  0.88721574  1
  In  In54  1  0.15956937  0.01353892  0.15635689  1
  In  In55  1  0.17186901  0.00019313  0.62353987  1
  In  In56  1  0.17748751  0.32601585  0.13262256  1
  In  In57  1  0.16228791  0.33755422  0.62916371  1
  In  In58  1  0.17907371  0.67478664  0.12486393  1
  In  In59  1  0.17825979  0.65496079  0.62991999  1
  In  In60  1  0.50913424  0.00520568  0.12764013  1
  In  In61  1  0.50419217  0.00119636  0.61148289  1
  In  In62  1  0.53207532  0.29753828  0.18088850  1
  In  In63  1  0.49080200  0.32455281  0.61686661  1
  In  In64  1  0.48716199  0.67199981  0.12955191  1
  In  In65  1  0.49865997  0.65947278  0.61403982  1
  In  In66  1  0.82172984  0.00504373  0.11737719  1
  In  In67  1  0.83837657  -0.01024145  0.62133936  1
  In  In68  1  0.82901008  0.32183007  0.11295315  1
  In  In69  1  0.83352031  0.34135255  0.62776883  1
  In  In70  1  0.82812240  0.67299837  0.11477935  1
  In  In71  1  0.84097818  0.67339385  0.62499737  1
  In  In72  1  0.66048157  0.66666639  0.25853009  1
  In  In73  1  -0.00266019  0.67420189  0.24855604  1
  In  In74  1  0.00103921  0.00258696  0.76335063  1
  In  In75  1  0.16271924  0.83514243  0.49091289  1
  In  In76  1  0.17291713  0.16909758  0.48431899  1
  In  In77  1  0.65993622  0.33126671  0.75256271  1
  In  In78  1  0.33583821  0.00064554  0.75855992  1
  In  In79  1  0.00027247  0.32993267  0.24844391  1
  In  In80  1  0.66811833  0.00007612  0.76332816  1
  In  In81  1  0.16861378  0.83828844  0.00709968  1
  In  In82  1  0.82686162  0.17132846  0.49592670  1
  In  In83  1  0.66206415  0.67001103  0.75093656  1
  In  In84  1  0.49865339  0.49596613  0.00793043  1
  In  In85  1  0.17104422  0.49978280  0.00055489  1
  Cu  Cu86  1  0.33608334  0.32433062  0.49088048  1
  Cu  Cu87  1  0.33647424  0.67114193  0.50008271  1
  Cu  Cu88  1  0.84312290  0.16671692  0.75958217  1
  Cu  Cu89  1  0.82715740  0.49841700  0.24994690  1
  Cu  Cu90  1  0.83638427  0.50137140  0.75113579  1
  Cu  Cu91  1  0.17184085  0.50181562  0.74431967  1
  Cu  Cu92  1  0.33171394  0.66227513  0.00453018  1
  Cu  Cu93  1  0.49177029  0.49499951  0.73795972  1
  Cu  Cu94  1  0.51528128  0.83672343  0.24701262  1
  Cu  Cu95  1  0.15421132  0.83007238  0.74428522  1
  Cu  Cu96  1  0.34014363  0.32351300  0.00684862  1
  Cu  Cu97  1  0.67054209  0.66279336  0.49739947  1
  Cu  Cu98  1  -0.00394670  0.67361749  0.00106653  1
  Cu  Cu99  1  0.33223444  0.00238524  0.01156842  1
  Cu  Cu100  1  0.83370379  0.83927778  0.24137194  1
  Cu  Cu101  1  0.17295497  0.17694711  0.75529490  1
  Cu  Cu102  1  0.34307167  0.00190178  0.48888348  1
  Cu  Cu103  1  0.00017704  -0.00096531  0.49636410  1
  Cu  Cu104  1  0.65716741  0.32281482  0.49460296  1
  Cu  Cu105  1  -0.00002391  0.66481580  0.50538802  1
  Cu  Cu106  1  -0.00127801  0.33524924  0.50231622  1
  Cu  Cu107  1  0.16684510  0.50572981  0.25840613  1
  Cu  Cu108  1  0.66218814  0.66729934  -0.00137586  1
  Cu  Cu109  1  0.49150007  0.83237978  0.75068352  1
  Cu  Cu110  1  0.83895798  0.16747493  0.23878893  1
  Cu  Cu111  1  0.50302957  0.16593717  0.75255695  1
  Cu  Cu112  1  0.66598890  0.00193078  0.48741973  1
  Cu  Cu113  1  0.00803992  0.33744079  -0.00490468  1
  Cu  Cu114  1  0.66117739  0.33384185  0.01254598  1
  Se  Se115  1  0.09718993  0.06359922  0.06469535  1
  Se  Se116  1  0.08165495  0.07961695  0.55337108  1
  Se  Se117  1  0.08162047  0.41141801  0.06307920  1
  Se  Se118  1  0.08191099  0.41570263  0.55752325  1
  Se  Se119  1  0.07463121  0.74811347  0.06490871  1
  Se  Se120  1  0.08474944  0.74656295  0.56150203  1
  Se  Se121  1  0.41874835  0.08600815  0.06013128  1
  Se  Se122  1  0.41779245  0.08660846  0.54868673  1
  Se  Se123  1  0.41728564  0.40268810  0.06775547  1
  Se  Se124  1  0.41575682  0.41051029  0.54736712  1
  Se  Se125  1  0.41262992  0.75061626  0.05376048  1
  Se  Se126  1  0.42144090  0.75557855  0.55106724  1
  Se  Se127  1  0.75046091  0.09812968  0.04966236  1
  Se  Se128  1  0.74151777  0.07441677  0.55761133  1
  Se  Se129  1  0.74764432  0.42227052  0.05746839  1
  Se  Se130  1  0.74794639  0.39868233  0.54914894  1
  Se  Se131  1  0.74849845  0.75546926  0.04507596  1
  Se  Se132  1  0.75160431  0.74592487  0.55398070  1
  Se  Se133  1  0.25112516  0.24593432  0.05872694  1
  Se  Se134  1  0.25512657  0.25140281  0.55754756  1
  Se  Se135  1  0.26404680  0.57588300  0.06651638  1
  Se  Se136  1  0.25081912  0.58530068  0.54984050  1
  Se  Se137  1  0.25366293  0.92257943  0.07210425  1
  Se  Se138  1  0.25956578  0.92771727  0.55098671  1
  Se  Se139  1  0.57820268  0.26470622  0.07767162  1
  Se  Se140  1  0.57741836  0.24002475  0.55108992  1
  Se  Se141  1  0.58822099  0.59008081  0.06514625  1
  Se  Se142  1  0.58569093  0.57841153  0.54827633  1
  Se  Se143  1  0.56776330  0.91268472  0.05227879  1
  Se  Se144  1  0.58596588  0.91767662  0.54528679  1
  Se  Se145  1  0.92175798  0.25239654  0.04542712  1
  Se  Se146  1  0.92469970  0.24929556  0.56096951  1
  Se  Se147  1  0.91379594  0.58583248  0.05116621  1
  Se  Se148  1  0.91517532  0.58132614  0.55816254  1
  Se  Se149  1  0.89870209  0.91454677  0.04818945  1
  Se  Se150  1  0.91945399  0.91458478  0.54889630  1
  Se  Se151  1  0.07615474  0.26350105  0.43569330  1
  Se  Se152  1  0.09349271  0.25194972  0.94665191  1
  Se  Se153  1  0.08219524  0.57949935  0.45349255  1
  Se  Se154  1  0.08019477  0.59285345  0.94365254  1
  Se  Se155  1  0.08552855  0.93422782  0.43233213  1
  Se  Se156  1  0.07562314  0.91958197  0.94172884  1
  Se  Se157  1  0.40542912  0.24013075  0.42782238  1
  Se  Se158  1  0.42508016  0.24861563  0.94918456  1
  Se  Se159  1  0.42045274  0.58357973  0.45037669  1
  Se  Se160  1  0.40935414  0.58279545  0.94062453  1
  Se  Se161  1  0.42373504  0.91668087  0.43656312  1
  Se  Se162  1  0.40201782  0.91295641  0.95115775  1
  Se  Se163  1  0.73119534  0.24276398  0.42950419  1
  Se  Se164  1  0.74636608  0.25785893  0.95325907  1
  Se  Se165  1  0.75509706  0.57953281  0.44507036  1
  Se  Se166  1  0.74696447  0.58151970  0.94869371  1
  Se  Se167  1  0.75745363  0.91907068  0.44207939  1
  Se  Se168  1  0.71512036  0.95096475  0.94218068  1
  Se  Se169  1  0.26109430  0.07812672  0.42938291  1
  Se  Se170  1  0.25330893  0.08536472  0.95353933  1
  Se  Se171  1  0.24516895  0.41304874  0.45039829  1
  Se  Se172  1  0.26716255  0.40990552  0.94564126  1
  Se  Se173  1  0.26369579  0.75293473  0.43615866  1
  Se  Se174  1  0.24782063  0.73832130  0.94309985  1
  Se  Se175  1  0.58402428  0.08570410  0.43317017  1
  Se  Se176  1  0.55694665  0.10509270  0.95573674  1
  Se  Se177  1  0.58087539  0.41748550  0.44688517  1
  Se  Se178  1  0.58839581  0.40907567  0.94098701  1
  Se  Se179  1  0.59023732  0.74979131  0.44424442  1
  Se  Se180  1  0.57607949  0.74745394  0.94545051  1
  Se  Se181  1  0.92154206  0.08341139  0.43784630  1
  Se  Se182  1  0.92715599  0.08152576  0.95691054  1
  Se  Se183  1  0.90809119  0.41038164  0.44887313  1
  Se  Se184  1  0.92218270  0.42144977  0.94476908  1
  Se  Se185  1  0.92412603  0.75069673  0.44723439  1
  Se  Se186  1  0.91292297  0.75164231  0.94426988  1
  Se  Se187  1  0.21020076  0.21540246  0.31155340  1
  Se  Se188  1  0.26278616  0.25165061  0.80882734  1
  Se  Se189  1  0.25168097  0.58451263  0.31222876  1
  Se  Se190  1  0.25451066  0.58581878  0.79837329  1
  Se  Se191  1  0.22948970  0.89848510  0.29805375  1
  Se  Se192  1  0.23525577  0.90677749  0.80635438  1
  Se  Se193  1  0.58401982  0.27338349  0.29874887  1
  Se  Se194  1  0.58957427  0.23285786  0.81699857  1
  Se  Se195  1  0.57234537  0.57446607  0.31498337  1
  Se  Se196  1  0.56863838  0.57172290  0.80392088  1
  Se  Se197  1  0.59220607  0.92362598  0.30202540  1
  Se  Se198  1  0.56858997  0.90888807  0.81398378  1
  Se  Se199  1  0.90742625  0.24359632  0.31027086  1
  Se  Se200  1  0.92474289  0.25210972  0.81049115  1
  Se  Se201  1  0.91002696  0.57724402  0.30721459  1
  Se  Se202  1  0.91654523  0.58558295  0.80575403  1
  Se  Se203  1  0.91639662  0.91810512  0.29935350  1
  Se  Se204  1  0.90256538  0.91290566  0.81223241  1
  Se  Se205  1  0.06331035  0.06495998  0.29321709  1
  Se  Se206  1  0.09741341  0.09312089  0.81534851  1
  Se  Se207  1  0.07995841  0.42619031  0.31376655  1
  Se  Se208  1  0.09459114  0.42120727  0.80661763  1
  Se  Se209  1  0.08658450  0.74966130  0.31648122  1
  Se  Se210  1  0.07536295  0.74616065  0.79880656  1
  Se  Se211  1  0.39836383  0.07384188  0.29505332  1
  Se  Se212  1  0.43120897  0.08311651  0.81626700  1
  Se  Se213  1  0.39021475  0.40259960  0.31557011  1
  Se  Se214  1  0.41817571  0.41131917  0.79840656  1
  Se  Se215  1  0.43019690  0.75630267  0.30222005  1
  Se  Se216  1  0.40765968  0.74786447  0.80134387  1
  Se  Se217  1  0.75232475  0.08479465  0.29310670  1
  Se  Se218  1  0.76361037  0.08817804  0.81886391  1
  Se  Se219  1  0.74228886  0.41561735  0.29985871  1
  Se  Se220  1  0.75578098  0.41925470  0.81040331  1
  Se  Se221  1  0.76136865  0.75886770  0.30709359  1
  Se  Se222  1  0.75039556  0.75665465  0.81211526  1
  Se  Se223  1  0.28075479  0.06431375  0.20501133  1
  Se  Se224  1  0.24679254  0.09110918  0.69481858  1
  Se  Se225  1  0.24289815  0.41741045  0.20348215  1
  Se  Se226  1  0.25481768  0.41750421  0.69082561  1
  Se  Se227  1  0.26416820  0.73277252  0.20070502  1
  Se  Se228  1  0.24767422  0.75611969  0.69305847  1
  Se  Se229  1  0.58037256  0.09340239  0.19968654  1
  Se  Se230  1  0.58001532  0.08284284  0.69294296  1
  Se  Se231  1  0.54134843  0.44464203  0.19366421  1
  Se  Se232  1  0.58144262  0.41992338  0.68341105  1
  Se  Se233  1  0.59131157  0.75610047  0.18536838  1
  Se  Se234  1  0.57432480  0.75883798  0.68803972  1
  Se  Se235  1  0.91561117  0.08093273  0.18474697  1
  Se  Se236  1  0.91210221  0.08672736  0.69240460  1
  Se  Se237  1  0.90902301  0.42073190  0.18927899  1
  Se  Se238  1  0.91790765  0.41598950  0.69752103  1
  Se  Se239  1  0.91459776  0.76150828  0.18140686  1
  Se  Se240  1  0.91055086  0.75259233  0.70093779  1
  Se  Se241  1  0.07761408  0.23788913  0.18460884  1
  Se  Se242  1  0.08453577  0.25395563  0.70196960  1
  Se  Se243  1  0.08899457  0.57814692  0.19237595  1
  Se  Se244  1  0.08281340  0.58506918  0.69613611  1
  Se  Se245  1  0.10624632  0.88400357  0.19263585  1
  Se  Se246  1  0.08064381  0.91872508  0.68818572  1
  Se  Se247  1  0.39283047  0.25646527  0.20923396  1
  Se  Se248  1  0.42231491  0.24779562  0.69727453  1
  Se  Se249  1  0.41418455  0.59480121  0.20448746  1
  Se  Se250  1  0.41491267  0.58344462  0.68508524  1
  Se  Se251  1  0.42710957  0.91431682  0.19354866  1
  Se  Se252  1  0.42109201  0.91830469  0.68856369  1
  Se  Se253  1  0.75346261  0.25462027  0.19222561  1
  Se  Se254  1  0.75896368  0.23973763  0.69680283  1
  Se  Se255  1  0.75144882  0.58359700  0.19033347  1
  Se  Se256  1  0.74949758  0.57522497  0.69212593  1
  Se  Se257  1  0.74566646  0.92116517  0.19190294  1
  Se  Se258  1  0.74817820  0.91361556  0.69205385  1
