# generated using pymatgen
data_In86Cu29Se144
_symmetry_space_group_name_H-M   'P 1'
_cell_length_a   17.62091304
_cell_length_b   17.61866172
_cell_length_c   23.46144318
_cell_angle_alpha   90.02952847
_cell_angle_beta   90.00992227
_cell_angle_gamma   89.97388878
_symmetry_Int_Tables_number   1
_chemical_formula_structural   In86Cu29Se144
_chemical_formula_sum   'In86 Cu29 Se144'
_cell_volume   7283.76523227
_cell_formula_units_Z   1
loop_
 _symmetry_equiv_pos_site_id
 _symmetry_equiv_pos_as_xyz
  1  'x, y, z'
loop_
 _atom_site_type_symbol
 _atom_site_label
 _atom_site_symmetry_multiplicity
 _atom_site_fract_x
 _atom_site_fract_y
 _atom_site_fract_z
 _atom_site_occupancy
  In  In0  1  -0.01658620  0.16455550  0.11944621  1
  In  In1  1  0.00703421  0.17190979  0.62558831  1
  In  In2  1  -0.00641459  0.49542960  0.10120288  1
  In  In3  1  -0.00233451  0.50322342  0.62846910  1
  In  In4  1  -0.01076327  0.83177699  0.11932393  1
  In  In5  1  -0.00173113  0.81927466  0.62824644  1
  In  In6  1  0.33881900  0.14530312  0.12452059  1
  In  In7  1  0.32436068  0.17357650  0.63331414  1
  In  In8  1  0.34416174  0.50642098  0.11727032  1
  In  In9  1  0.32139163  0.49927789  0.62826582  1
  In  In10  1  0.32781837  0.82951966  0.13397126  1
  In  In11  1  0.33862800  0.83979851  0.62375505  1
  In  In12  1  0.66206716  0.15132372  0.09863506  1
  In  In13  1  0.67589054  0.16826799  0.63210693  1
  In  In14  1  0.66054846  0.50690352  0.11397997  1
  In  In15  1  0.68104613  0.49058804  0.64048575  1
  In  In16  1  0.63396035  0.79875092  0.07571500  1
  In  In17  1  0.65767727  0.83387764  0.62745314  1
  In  In18  1  0.17886507  -0.01060384  0.38975718  1
  In  In19  1  0.18264906  -0.00331720  0.86981011  1
  In  In20  1  0.15775262  0.33756748  0.38873568  1
  In  In21  1  0.17524336  0.34120969  0.86570709  1
  In  In22  1  0.17693705  0.65993638  0.38106721  1
  In  In23  1  0.14827317  0.66033738  0.87404442  1
  In  In24  1  0.48724187  -0.00645740  0.36771446  1
  In  In25  1  0.50015198  0.01000788  0.89326649  1
  In  In26  1  0.50697006  0.33221521  0.37584005  1
  In  In27  1  0.49903790  0.33265883  0.87122529  1
  In  In28  1  0.50843450  0.68062637  0.36533061  1
  In  In29  1  0.52716482  0.65329835  0.90402271  1
  In  In30  1  0.84078337  0.00398352  0.37409105  1
  In  In31  1  0.82455736  0.01493863  0.88343969  1
  In  In32  1  0.84239038  0.32830567  0.38367943  1
  In  In33  1  0.83709809  0.34526773  0.87168110  1
  In  In34  1  0.82198976  0.66329602  0.37096285  1
  In  In35  1  0.82879924  0.66465273  0.88696208  1
  In  In36  1  0.00126125  0.15888191  0.39336292  1
  In  In37  1  -0.01307791  0.18022518  0.86663463  1
  In  In38  1  0.00055029  0.49885197  0.38261358  1
  In  In39  1  0.00098904  0.50137826  0.87968239  1
  In  In40  1  0.00751359  0.84403450  0.38061100  1
  In  In41  1  -0.01023856  0.81675823  0.87155685  1
  In  In42  1  0.33919825  0.15384893  0.37431182  1
  In  In43  1  0.33644549  0.16532095  0.87225847  1
  In  In44  1  0.32026345  0.50293536  0.37684593  1
  In  In45  1  0.34257570  0.49501445  0.87998868  1
  In  In46  1  0.33854184  0.83069099  0.37412580  1
  In  In47  1  0.34779704  0.84471720  0.88132525  1
  In  In48  1  0.67803379  0.17355523  0.37647007  1
  In  In49  1  0.66279564  0.17398888  0.87631670  1
  In  In50  1  0.66517749  0.51423030  0.37315281  1
  In  In51  1  0.67000553  0.50666320  0.87907848  1
  In  In52  1  0.66788369  0.81499045  0.37172319  1
  In  In53  1  0.67985677  0.82883718  0.89607844  1
  In  In54  1  0.16805869  0.00398023  0.13205855  1
  In  In55  1  0.17251282  0.01143009  0.61842721  1
  In  In56  1  0.15662527  0.33430848  0.12240001  1
  In  In57  1  0.16047786  0.33441249  0.63022013  1
  In  In58  1  0.17456070  0.67002691  0.12649521  1
  In  In59  1  0.16153649  0.65555641  0.61738725  1
  In  In60  1  0.47110632  -0.03898597  0.07726492  1
  In  In61  1  0.49985136  -0.01989939  0.62522302  1
  In  In62  1  0.50883276  0.33307930  0.10998360  1
  In  In63  1  0.50336462  0.33156302  0.64068754  1
  In  In64  1  0.48959018  0.66570048  0.12412012  1
  In  In65  1  0.50460251  0.67926343  0.62713847  1
  In  In66  1  0.78660770  -0.03017597  0.07648691  1
  In  In67  1  0.82925941  0.00451298  0.62329730  1
  In  In68  1  0.82902519  0.32133106  0.10891739  1
  In  In69  1  0.83293174  0.33878772  0.63519774  1
  In  In70  1  0.80694309  0.64092583  0.09292091  1
  In  In71  1  0.84468348  0.65829893  0.63739428  1
  In  In72  1  -0.00512631  0.33265048  0.24188931  1
  In  In73  1  0.49854717  0.50521944  0.50190248  1
  In  In74  1  0.67231343  0.33963223  0.24286513  1
  In  In75  1  0.00449777  0.00219647  0.25454937  1
  In  In76  1  0.65939697  0.00014799  0.76485994  1
  In  In77  1  0.00109102  0.66447403  0.24361496  1
  In  In78  1  0.66290369  -0.00706027  0.22971757  1
  In  In79  1  0.83425399  0.83041099  0.49871920  1
  In  In80  1  0.33443859  0.33593718  0.25373068  1
  In  In81  1  0.34099415  0.67136651  0.75560429  1
  In  In82  1  0.50152371  0.16464179  0.49699985  1
  In  In83  1  0.15852831  0.82559777  0.00436079  1
  In  In84  1  0.00012334  -0.00121945  0.74377636  1
  In  In85  1  0.17022564  0.17189300  -0.00812493  1
  Cu  Cu86  1  0.82671103  0.50158769  0.23967290  1
  Cu  Cu87  1  0.49526844  0.15788394  0.75777621  1
  Cu  Cu88  1  -0.00385994  0.33890495  0.51093161  1
  Cu  Cu89  1  0.33446697  0.32865360  -0.00499785  1
  Cu  Cu90  1  0.16695744  0.50373197  0.24976485  1
  Cu  Cu91  1  0.16890016  0.16569583  0.74769217  1
  Cu  Cu92  1  0.32518621  0.33307514  0.50838658  1
  Cu  Cu93  1  0.50548640  0.82581528  0.75719018  1
  Cu  Cu94  1  0.67703702  0.33618706  0.50897956  1
  Cu  Cu95  1  0.17350762  0.16321571  0.25403854  1
  Cu  Cu96  1  0.17203009  0.82768584  0.75469201  1
  Cu  Cu97  1  0.82497947  0.83244391  0.75923045  1
  Cu  Cu98  1  0.49736937  0.16709633  0.24346970  1
  Cu  Cu99  1  0.66705635  0.33432530  -0.01200118  1
  Cu  Cu100  1  0.83654820  0.16280226  0.24740850  1
  Cu  Cu101  1  0.32138208  0.66605860  0.00004837  1
  Cu  Cu102  1  0.00759947  0.00213861  -0.01067871  1
  Cu  Cu103  1  0.50025172  0.50375908  0.76079902  1
  Cu  Cu104  1  0.83002950  0.82291054  0.24256308  1
  Cu  Cu105  1  0.66440377  -0.00218418  0.50318016  1
  Cu  Cu106  1  0.33374051  0.67460118  0.50115825  1
  Cu  Cu107  1  0.00273392  0.66337373  0.50376432  1
  Cu  Cu108  1  0.17144534  0.83434603  0.25901854  1
  Cu  Cu109  1  0.33729682  -0.00145211  0.50016905  1
  Cu  Cu110  1  0.83547344  0.50937219  0.75852075  1
  Cu  Cu111  1  0.49832750  0.51368353  0.24807151  1
  Cu  Cu112  1  0.67307446  0.66026943  0.50017027  1
  Cu  Cu113  1  0.16096669  0.50235140  0.74829211  1
  Cu  Cu114  1  0.50441688  0.83527926  0.23400233  1
  Se  Se115  1  0.08265448  0.07891818  0.05644762  1
  Se  Se116  1  0.07253595  0.07769387  0.55675149  1
  Se  Se117  1  0.08480132  0.40808910  0.04657144  1
  Se  Se118  1  0.08386649  0.42179078  0.56031667  1
  Se  Se119  1  0.06824709  0.73092536  0.05833903  1
  Se  Se120  1  0.08403472  0.75063392  0.55387607  1
  Se  Se121  1  0.42737258  0.09530580  0.04728305  1
  Se  Se122  1  0.41546112  0.07924598  0.56277618  1
  Se  Se123  1  0.41608450  0.41439616  0.04944759  1
  Se  Se124  1  0.41514321  0.40888455  0.56309274  1
  Se  Se125  1  0.39990297  0.74853320  0.05804068  1
  Se  Se126  1  0.41948946  0.75226852  0.55599508  1
  Se  Se127  1  0.79638912  0.11739109  0.06510856  1
  Se  Se128  1  0.74263341  0.08376641  0.55575257  1
  Se  Se129  1  0.74092687  0.41229750  0.05272146  1
  Se  Se130  1  0.75602775  0.42317016  0.56031968  1
  Se  Se131  1  0.77622585  0.77292289  0.05299399  1
  Se  Se132  1  0.74829217  0.74309129  0.56323895  1
  Se  Se133  1  0.25958014  0.25216914  0.06303611  1
  Se  Se134  1  0.24360941  0.24906688  0.56039831  1
  Se  Se135  1  0.24444575  0.58055450  0.05598484  1
  Se  Se136  1  0.25662329  0.58300024  0.55146023  1
  Se  Se137  1  0.24717519  0.92043856  0.06030040  1
  Se  Se138  1  0.25244414  0.91801325  0.55514435  1
  Se  Se139  1  0.58403299  0.24809163  0.04009546  1
  Se  Se140  1  0.58539184  0.25737766  0.55987767  1
  Se  Se141  1  0.56395995  0.57975860  0.05254400  1
  Se  Se142  1  0.59299863  0.58463631  0.56466658  1
  Se  Se143  1  0.61899259  0.94720764  0.07385408  1
  Se  Se144  1  0.58273700  0.90941289  0.55023558  1
  Se  Se145  1  0.94530104  0.27291118  0.05257508  1
  Se  Se146  1  0.91457113  0.25547294  0.56466261  1
  Se  Se147  1  0.90090659  0.56283920  0.03196356  1
  Se  Se148  1  0.91516969  0.58588081  0.55711280  1
  Se  Se149  1  0.92794076  0.92642180  0.05032532  1
  Se  Se150  1  0.92068408  0.91798916  0.56190935  1
  Se  Se151  1  0.07802816  0.25365611  0.45569348  1
  Se  Se152  1  0.08100946  0.25972935  0.93337195  1
  Se  Se153  1  0.08614440  0.58251027  0.44667874  1
  Se  Se154  1  0.08915665  0.57652024  0.95025977  1
  Se  Se155  1  0.06822871  0.93639000  0.44993942  1
  Se  Se156  1  0.08341845  0.91720464  0.93242664  1
  Se  Se157  1  0.40744954  0.26158775  0.44250754  1
  Se  Se158  1  0.41813163  0.24730776  0.94133054  1
  Se  Se159  1  0.41348490  0.59428085  0.43792597  1
  Se  Se160  1  0.41149713  0.58568046  0.95079514  1
  Se  Se161  1  0.41991277  0.91526607  0.44531443  1
  Se  Se162  1  0.42239079  0.91715506  0.96046453  1
  Se  Se163  1  0.75298110  0.25064501  0.45076938  1
  Se  Se164  1  0.75616751  0.25471959  0.93834733  1
  Se  Se165  1  0.75560618  0.57808834  0.44665841  1
  Se  Se166  1  0.72508645  0.60368074  0.95242113  1
  Se  Se167  1  0.74138224  0.91895317  0.43725909  1
  Se  Se168  1  0.75229553  0.93110333  0.95574150  1
  Se  Se169  1  0.25631984  0.08813029  0.45006572  1
  Se  Se170  1  0.26241245  0.07141412  0.94662132  1
  Se  Se171  1  0.25001004  0.41906401  0.45023319  1
  Se  Se172  1  0.25205390  0.41416526  0.94404505  1
  Se  Se173  1  0.25055972  0.75527404  0.44501824  1
  Se  Se174  1  0.25065453  0.74785582  0.93525145  1
  Se  Se175  1  0.59013000  0.07448710  0.43448001  1
  Se  Se176  1  0.60843124  0.07525629  0.94755522  1
  Se  Se177  1  0.59564491  0.41145132  0.44491169  1
  Se  Se178  1  0.57968678  0.41771041  0.93973578  1
  Se  Se179  1  0.58759724  0.74298908  0.44719940  1
  Se  Se180  1  0.57406666  0.77108584  0.96222902  1
  Se  Se181  1  0.89686034  0.09083012  0.44992042  1
  Se  Se182  1  0.92546880  0.09079644  0.94131023  1
  Se  Se183  1  0.91622993  0.41876178  0.45030901  1
  Se  Se184  1  0.89761673  0.43901230  0.94630180  1
  Se  Se185  1  0.92456537  0.73891169  0.43693673  1
  Se  Se186  1  0.90977428  0.75843050  0.95049172  1
  Se  Se187  1  0.24246379  0.24983965  0.31567426  1
  Se  Se188  1  0.25352566  0.24642473  0.80322978  1
  Se  Se189  1  0.25077354  0.58597005  0.30176934  1
  Se  Se190  1  0.24645140  0.57903751  0.80928199  1
  Se  Se191  1  0.25342527  0.92015563  0.30957075  1
  Se  Se192  1  0.26072729  0.90783037  0.80365055  1
  Se  Se193  1  0.58027192  0.24272665  0.30302389  1
  Se  Se194  1  0.58049993  0.24672223  0.80241663  1
  Se  Se195  1  0.58861607  0.59092806  0.29928249  1
  Se  Se196  1  0.58060704  0.59054324  0.81211932  1
  Se  Se197  1  0.58149817  0.90770005  0.30374636  1
  Se  Se198  1  0.57805375  0.90506382  0.82410573  1
  Se  Se199  1  0.91697780  0.23873922  0.30907513  1
  Se  Se200  1  0.91555950  0.26593099  0.79770153  1
  Se  Se201  1  0.91213980  0.57165858  0.30429732  1
  Se  Se202  1  0.91644786  0.59084592  0.81492269  1
  Se  Se203  1  0.90777979  0.90222667  0.30506448  1
  Se  Se204  1  0.90676934  0.92018422  0.81251848  1
  Se  Se205  1  0.09251043  0.08921385  0.31758196  1
  Se  Se206  1  0.08983314  0.08549999  0.80948098  1
  Se  Se207  1  0.08700490  0.42009727  0.30620947  1
  Se  Se208  1  0.08003949  0.42121125  0.80520825  1
  Se  Se209  1  0.08533998  0.75218817  0.31161348  1
  Se  Se210  1  0.08037902  0.74778806  0.80062337  1
  Se  Se211  1  0.41695299  0.08322363  0.29726682  1
  Se  Se212  1  0.41919886  0.07013698  0.81153373  1
  Se  Se213  1  0.42807469  0.42921736  0.31211677  1
  Se  Se214  1  0.41282559  0.41580615  0.80296125  1
  Se  Se215  1  0.42260662  0.75948591  0.29751583  1
  Se  Se216  1  0.43332980  0.74512454  0.82347569  1
  Se  Se217  1  0.74999102  0.08292516  0.30276594  1
  Se  Se218  1  0.75804207  0.09760173  0.80392003  1
  Se  Se219  1  0.76004041  0.42201867  0.30993512  1
  Se  Se220  1  0.74641728  0.42575814  0.80556264  1
  Se  Se221  1  0.74653574  0.74124708  0.29608242  1
  Se  Se222  1  0.74597911  0.75133636  0.81636588  1
  Se  Se223  1  0.25503017  0.07877354  0.20179310  1
  Se  Se224  1  0.25133243  0.07721003  0.69833859  1
  Se  Se225  1  0.24553932  0.42074909  0.18990258  1
  Se  Se226  1  0.24710763  0.41642606  0.69935869  1
  Se  Se227  1  0.24715592  0.74668016  0.20351693  1
  Se  Se228  1  0.24812826  0.74888844  0.68907414  1
  Se  Se229  1  0.57799866  0.09412954  0.18065896  1
  Se  Se230  1  0.57419410  0.08172842  0.69139291  1
  Se  Se231  1  0.57142001  0.42448915  0.19045461  1
  Se  Se232  1  0.58277473  0.42086623  0.70470908  1
  Se  Se233  1  0.58664508  0.75609459  0.17642614  1
  Se  Se234  1  0.59011111  0.74741356  0.70192201  1
  Se  Se235  1  0.91043726  0.07632860  0.18999332  1
  Se  Se236  1  0.90667668  0.09248452  0.69303601  1
  Se  Se237  1  0.90692790  0.42234071  0.18118806  1
  Se  Se238  1  0.91609328  0.42645936  0.70105744  1
  Se  Se239  1  0.90490678  0.74047768  0.18164326  1
  Se  Se240  1  0.91329222  0.75508865  0.70456530  1
  Se  Se241  1  0.08948424  0.23418285  0.19235721  1
  Se  Se242  1  0.08130249  0.25064715  0.70123088  1
  Se  Se243  1  0.08253942  0.56800924  0.18301055  1
  Se  Se244  1  0.08173069  0.58997785  0.69588754  1
  Se  Se245  1  0.08754049  0.90316125  0.19364919  1
  Se  Se246  1  0.09424419  0.90707080  0.69003299  1
  Se  Se247  1  0.42153703  0.25348733  0.18630685  1
  Se  Se248  1  0.41676492  0.24438755  0.70138127  1
  Se  Se249  1  0.40634860  0.58773996  0.19734829  1
  Se  Se250  1  0.42506647  0.57771339  0.69088019  1
  Se  Se251  1  0.42580527  0.92253319  0.18003536  1
  Se  Se252  1  0.42212275  0.90712513  0.70173067  1
  Se  Se253  1  0.75466754  0.24113071  0.18800133  1
  Se  Se254  1  0.73471564  0.26586926  0.69812441  1
  Se  Se255  1  0.74631005  0.58412712  0.18469253  1
  Se  Se256  1  0.74849755  0.59077453  0.70465793  1
  Se  Se257  1  0.76455671  0.91106609  0.18084278  1
  Se  Se258  1  0.75097661  0.91504677  0.69676517  1
