# generated using pymatgen
data_In86Cu29Se144
_symmetry_space_group_name_H-M   'P 1'
_cell_length_a   17.59671781
_cell_length_b   17.59188564
_cell_length_c   23.46328003
_cell_angle_alpha   89.98976288
_cell_angle_beta   90.01548164
_cell_angle_gamma   89.99691368
_symmetry_Int_Tables_number   1
_chemical_formula_structural   In86Cu29Se144
_chemical_formula_sum   'In86 Cu29 Se144'
_cell_volume   7263.27960819
_cell_formula_units_Z   1
loop_
 _symmetry_equiv_pos_site_id
 _symmetry_equiv_pos_as_xyz
  1  'x, y, z'
loop_
 _atom_site_type_symbol
 _atom_site_label
 _atom_site_symmetry_multiplicity
 _atom_site_fract_x
 _atom_site_fract_y
 _atom_site_fract_z
 _atom_site_occupancy
  In  In0  1  -0.00526048  0.15654599  0.12878255  1
  In  In1  1  -0.01368998  0.16585813  0.62338898  1
  In  In2  1  0.01383690  0.51686943  0.11755235  1
  In  In3  1  -0.01442433  0.51829598  0.62665094  1
  In  In4  1  -0.00889645  0.84015386  0.13238903  1
  In  In5  1  0.01268730  0.82123123  0.62966978  1
  In  In6  1  0.34072110  0.14731194  0.12161747  1
  In  In7  1  0.34326094  0.15781690  0.63945900  1
  In  In8  1  0.33771004  0.53599767  0.11187754  1
  In  In9  1  0.32729615  0.50551536  0.64250960  1
  In  In10  1  0.34855868  0.82889110  0.12621008  1
  In  In11  1  0.33391199  0.83317260  0.62763876  1
  In  In12  1  0.66459838  0.17460423  0.12287445  1
  In  In13  1  0.66311471  0.15579895  0.62624405  1
  In  In14  1  0.67056935  0.49563322  0.12710394  1
  In  In15  1  0.68042944  0.50740869  0.62449234  1
  In  In16  1  0.64651344  0.80704792  0.08955592  1
  In  In17  1  0.66078022  0.83758633  0.62837257  1
  In  In18  1  0.15912076  -0.01492299  0.36921739  1
  In  In19  1  0.17135528  0.00185978  0.86879206  1
  In  In20  1  0.16760767  0.34627127  0.37496994  1
  In  In21  1  0.17854032  0.33678915  0.87336951  1
  In  In22  1  0.17887870  0.67933868  0.36684550  1
  In  In23  1  0.15929147  0.65950061  0.87074225  1
  In  In24  1  0.48691197  -0.00916221  0.36838932  1
  In  In25  1  0.49431834  -0.00973139  0.88781555  1
  In  In26  1  0.50726880  0.32156433  0.36964592  1
  In  In27  1  0.48623490  0.33321291  0.87474264  1
  In  In28  1  0.51350296  0.68231161  0.35858082  1
  In  In29  1  0.50915068  0.68092374  0.87345922  1
  In  In30  1  0.84403867  -0.00574778  0.37686536  1
  In  In31  1  0.81203439  -0.02411829  0.85996290  1
  In  In32  1  0.82300227  0.34339858  0.37948257  1
  In  In33  1  0.83907463  0.34185787  0.87581697  1
  In  In34  1  0.82902901  0.65621593  0.37124234  1
  In  In35  1  0.82824956  0.67516142  0.87960612  1
  In  In36  1  -0.00284721  0.14843916  0.37749758  1
  In  In37  1  0.01016594  0.16068013  0.87239519  1
  In  In38  1  -0.01306263  0.49958182  0.37416262  1
  In  In39  1  -0.02040347  0.51657501  0.88513639  1
  In  In40  1  0.00346103  0.83803092  0.37051583  1
  In  In41  1  -0.00444704  0.82369229  0.86602987  1
  In  In42  1  0.35087690  0.15822366  0.37566524  1
  In  In43  1  0.34018603  0.16539099  0.87972552  1
  In  In44  1  0.32256281  0.50996847  0.37610535  1
  In  In45  1  0.33055510  0.49690201  0.87230557  1
  In  In46  1  0.33328109  0.82844922  0.37610312  1
  In  In47  1  0.34126603  0.83728285  0.87506237  1
  In  In48  1  0.66450287  0.17567355  0.37062760  1
  In  In49  1  0.66344578  0.13508823  0.88506940  1
  In  In50  1  0.68349723  0.51733001  0.35947104  1
  In  In51  1  0.66664677  0.52819790  0.88190001  1
  In  In52  1  0.66364739  0.81135509  0.37812967  1
  In  In53  1  0.66614848  0.83471003  0.88678787  1
  In  In54  1  0.17064607  -0.00710884  0.13078852  1
  In  In55  1  0.17922884  -0.01059995  0.63273114  1
  In  In56  1  0.16015266  0.34357702  0.12607225  1
  In  In57  1  0.17060757  0.34203543  0.62770592  1
  In  In58  1  0.17652628  0.66816100  0.12459403  1
  In  In59  1  0.15944474  0.67747207  0.62984547  1
  In  In60  1  0.48518485  -0.02665847  0.09169816  1
  In  In61  1  0.50722359  -0.01041864  0.63321988  1
  In  In62  1  0.51430894  0.33618614  0.12407764  1
  In  In63  1  0.49682947  0.32342160  0.63301005  1
  In  In64  1  0.49376296  0.68548098  0.12957575  1
  In  In65  1  0.49040846  0.67500480  0.63253669  1
  In  In66  1  0.83603090  -0.00241386  0.12542668  1
  In  In67  1  0.82337548  0.00229350  0.62941588  1
  In  In68  1  0.81809220  0.33279210  0.12679358  1
  In  In69  1  0.83706031  0.33875208  0.61798356  1
  In  In70  1  0.83260079  0.67201441  0.12452412  1
  In  In71  1  0.83884656  0.66459946  0.62579545  1
  In  In72  1  0.00588745  0.33099302  0.74991633  1
  In  In73  1  0.66039886  -0.00963476  0.23992764  1
  In  In74  1  0.83470436  0.82872688  0.50089163  1
  In  In75  1  -0.00570193  0.32921903  0.24995545  1
  In  In76  1  0.17408177  0.82925256  -0.00088845  1
  In  In77  1  0.50558460  0.15924393  0.50615023  1
  In  In78  1  0.33379326  0.33573355  0.25536701  1
  In  In79  1  0.66143909  0.33188999  0.75089191  1
  In  In80  1  0.16415750  0.16233442  0.49758981  1
  In  In81  1  0.50568635  0.50244797  0.49853784  1
  In  In82  1  0.17293031  0.16975025  -0.00771895  1
  In  In83  1  0.50154896  0.50242043  -0.00095409  1
  In  In84  1  0.83714543  0.16713880  -0.00018959  1
  In  In85  1  0.15377352  0.50962515  0.50786955  1
  Cu  Cu86  1  0.83017111  0.15887282  0.74905574  1
  Cu  Cu87  1  0.50020313  0.83925726  0.75611206  1
  Cu  Cu88  1  0.17140140  0.15728151  0.75364380  1
  Cu  Cu89  1  0.00311914  -0.00015004  -0.00267193  1
  Cu  Cu90  1  0.82928410  0.51265622  0.75561696  1
  Cu  Cu91  1  0.67037984  0.33402949  -0.00188141  1
  Cu  Cu92  1  0.50217745  0.50232463  0.24289079  1
  Cu  Cu93  1  0.32909523  -0.01451106  0.50008860  1
  Cu  Cu94  1  0.32621831  0.33875553  0.00120437  1
  Cu  Cu95  1  0.66524440  0.00006390  0.50350862  1
  Cu  Cu96  1  0.50128230  0.16121222  0.24545967  1
  Cu  Cu97  1  0.83323216  0.15909516  0.24752997  1
  Cu  Cu98  1  0.50068953  0.50714542  0.75759058  1
  Cu  Cu99  1  -0.01157820  0.32965833  0.49872426  1
  Cu  Cu100  1  0.33531485  0.67619896  0.50163733  1
  Cu  Cu101  1  0.83679320  0.50251450  0.24566135  1
  Cu  Cu102  1  0.49724779  0.16210143  0.75961769  1
  Cu  Cu103  1  0.17186472  0.15655405  0.25266025  1
  Cu  Cu104  1  0.33482847  0.33397377  0.51205763  1
  Cu  Cu105  1  0.17277112  0.51035914  0.24234217  1
  Cu  Cu106  1  0.17012461  0.83829747  0.24769255  1
  Cu  Cu107  1  0.67534437  0.33811223  0.49422724  1
  Cu  Cu108  1  0.82918105  0.83319476  0.74900142  1
  Cu  Cu109  1  0.83305981  0.82808381  0.24986113  1
  Cu  Cu110  1  0.16476721  0.49670016  0.75240042  1
  Cu  Cu111  1  0.17122189  0.83120975  0.75236865  1
  Cu  Cu112  1  0.00023933  0.34656872  0.00301114  1
  Cu  Cu113  1  -0.00229681  -0.00468631  0.49926679  1
  Cu  Cu114  1  -0.00730846  0.67411239  -0.00158781  1
  Se  Se115  1  0.08308789  0.08025470  0.05630686  1
  Se  Se116  1  0.07893602  0.07439555  0.56169578  1
  Se  Se117  1  0.09108707  0.42523492  0.05117784  1
  Se  Se118  1  0.06671387  0.40725492  0.56274173  1
  Se  Se119  1  0.07509156  0.75145423  0.06086838  1
  Se  Se120  1  0.07391178  0.73611444  0.55259456  1
  Se  Se121  1  0.43161571  0.09666727  0.04478730  1
  Se  Se122  1  0.40759634  0.07087751  0.55944992  1
  Se  Se123  1  0.40957487  0.41497977  0.06365718  1
  Se  Se124  1  0.41403651  0.41790325  0.56749447  1
  Se  Se125  1  0.40789599  0.74079886  0.05022421  1
  Se  Se126  1  0.41958285  0.75566067  0.55619907  1
  Se  Se127  1  0.74526474  0.08076740  0.05818199  1
  Se  Se128  1  0.74835529  0.08457816  0.55382419  1
  Se  Se129  1  0.75108667  0.41748875  0.05198942  1
  Se  Se130  1  0.75217923  0.42145357  0.55240165  1
  Se  Se131  1  0.77682086  0.76811954  0.05110364  1
  Se  Se132  1  0.74102042  0.74575630  0.56064950  1
  Se  Se133  1  0.25374179  0.25531321  0.06483775  1
  Se  Se134  1  0.25608485  0.24597725  0.56448078  1
  Se  Se135  1  0.23647988  0.58625066  0.04426584  1
  Se  Se136  1  0.25975641  0.58878158  0.56168093  1
  Se  Se137  1  0.25910382  0.92314466  0.05800248  1
  Se  Se138  1  0.24437045  0.90789951  0.55520375  1
  Se  Se139  1  0.58443365  0.25343581  0.04949828  1
  Se  Se140  1  0.59434510  0.26212423  0.55794717  1
  Se  Se141  1  0.58300434  0.58714869  0.06615654  1
  Se  Se142  1  0.58555104  0.59186740  0.56414576  1
  Se  Se143  1  0.60098862  0.92549566  0.03533353  1
  Se  Se144  1  0.58041929  0.91749121  0.55430491  1
  Se  Se145  1  0.92619414  0.25962635  0.06227200  1
  Se  Se146  1  0.90751514  0.24394991  0.55107574  1
  Se  Se147  1  0.91548521  0.58623451  0.05439581  1
  Se  Se148  1  0.91103034  0.58591483  0.54918349  1
  Se  Se149  1  0.92199337  0.92155282  0.05496688  1
  Se  Se150  1  0.91979899  0.91907815  0.56432600  1
  Se  Se151  1  0.07528567  0.25945796  0.43842389  1
  Se  Se152  1  0.07423738  0.26388859  0.94109016  1
  Se  Se153  1  0.08262426  0.58863063  0.43089749  1
  Se  Se154  1  0.07731679  0.58925485  0.94777985  1
  Se  Se155  1  0.08282585  0.91384016  0.44714615  1
  Se  Se156  1  0.08210581  0.91873322  0.93764318  1
  Se  Se157  1  0.41439593  0.25783658  0.44887207  1
  Se  Se158  1  0.41140098  0.25648460  0.95032513  1
  Se  Se159  1  0.41074423  0.59051879  0.44266606  1
  Se  Se160  1  0.41549978  0.58835512  0.93574908  1
  Se  Se161  1  0.41860437  0.91152712  0.44568332  1
  Se  Se162  1  0.42517736  0.89414615  0.95549361  1
  Se  Se163  1  0.75086929  0.24463704  0.44364229  1
  Se  Se164  1  0.74388786  0.25178502  0.93443638  1
  Se  Se165  1  0.74533316  0.58245625  0.44427577  1
  Se  Se166  1  0.76223039  0.58270475  0.95197236  1
  Se  Se167  1  0.74126635  0.91900876  0.43936106  1
  Se  Se168  1  0.75069347  0.92554419  0.95039332  1
  Se  Se169  1  0.25806426  0.07432285  0.43894142  1
  Se  Se170  1  0.26078140  0.06786726  0.94605887  1
  Se  Se171  1  0.25517284  0.41462525  0.45229976  1
  Se  Se172  1  0.24643519  0.42213968  0.94712816  1
  Se  Se173  1  0.24579615  0.75319919  0.44860833  1
  Se  Se174  1  0.25522642  0.73866559  0.93598700  1
  Se  Se175  1  0.58625108  0.07453882  0.43592637  1
  Se  Se176  1  0.55648402  0.09676649  0.95313681  1
  Se  Se177  1  0.58989341  0.41101116  0.43489691  1
  Se  Se178  1  0.59010520  0.41247206  0.93523997  1
  Se  Se179  1  0.57580401  0.74081334  0.44742430  1
  Se  Se180  1  0.59499830  0.73716359  0.95195386  1
  Se  Se181  1  0.91194204  0.08145748  0.45194104  1
  Se  Se182  1  0.92087242  0.07730863  0.93654886  1
  Se  Se183  1  0.91141530  0.42027197  0.44755602  1
  Se  Se184  1  0.90826491  0.42129319  0.95190380  1
  Se  Se185  1  0.92094870  0.74469984  0.43588542  1
  Se  Se186  1  0.91472390  0.76162647  0.94571125  1
  Se  Se187  1  0.24372781  0.24071067  0.31530010  1
  Se  Se188  1  0.25009038  0.24177657  0.81003222  1
  Se  Se189  1  0.25679843  0.58934113  0.29832078  1
  Se  Se190  1  0.24853289  0.58051787  0.80351810  1
  Se  Se191  1  0.25603876  0.91681171  0.30416934  1
  Se  Se192  1  0.25434771  0.91484201  0.80528499  1
  Se  Se193  1  0.58509137  0.24762412  0.29426958  1
  Se  Se194  1  0.58232076  0.24099719  0.81713935  1
  Se  Se195  1  0.58719692  0.58642502  0.29436434  1
  Se  Se196  1  0.58769214  0.59307227  0.80303833  1
  Se  Se197  1  0.57987214  0.90394840  0.30932427  1
  Se  Se198  1  0.58172907  0.91674589  0.81586300  1
  Se  Se199  1  0.90843029  0.23978481  0.31277065  1
  Se  Se200  1  0.90862117  0.24096675  0.80789526  1
  Se  Se201  1  0.91986406  0.58426379  0.29960318  1
  Se  Se202  1  0.91402446  0.59555121  0.80650365  1
  Se  Se203  1  0.91501730  0.91531071  0.30114200  1
  Se  Se204  1  0.91886294  0.91585257  0.79939120  1
  Se  Se205  1  0.08212529  0.07922005  0.30450047  1
  Se  Se206  1  0.08041827  0.07611673  0.80007526  1
  Se  Se207  1  0.09076183  0.42793018  0.30088765  1
  Se  Se208  1  0.07969417  0.42532932  0.81584830  1
  Se  Se209  1  0.08638333  0.75531572  0.30133153  1
  Se  Se210  1  0.08391948  0.74551508  0.79951318  1
  Se  Se211  1  0.41564749  0.07988671  0.29707305  1
  Se  Se212  1  0.41816809  0.07626468  0.81350024  1
  Se  Se213  1  0.42660052  0.42894762  0.31269062  1
  Se  Se214  1  0.41583976  0.41748897  0.80176766  1
  Se  Se215  1  0.39974583  0.73672504  0.30458368  1
  Se  Se216  1  0.41659236  0.75085402  0.80381651  1
  Se  Se217  1  0.75021419  0.07904623  0.30842358  1
  Se  Se218  1  0.74162203  0.08024763  0.80082662  1
  Se  Se219  1  0.75444100  0.41487325  0.29786266  1
  Se  Se220  1  0.74918081  0.42582368  0.81039310  1
  Se  Se221  1  0.75003592  0.74518242  0.30365756  1
  Se  Se222  1  0.74734892  0.75839237  0.81023267  1
  Se  Se223  1  0.25547617  0.07908766  0.19594905  1
  Se  Se224  1  0.25674823  0.07458077  0.70274961  1
  Se  Se225  1  0.25530098  0.42555258  0.18782757  1
  Se  Se226  1  0.25031383  0.40885078  0.70491709  1
  Se  Se227  1  0.25232468  0.75715835  0.19204504  1
  Se  Se228  1  0.25284031  0.74797522  0.69723671  1
  Se  Se229  1  0.57441052  0.08269389  0.18078445  1
  Se  Se230  1  0.57916961  0.08604177  0.69922867  1
  Se  Se231  1  0.58793860  0.41452710  0.19872479  1
  Se  Se232  1  0.57597546  0.42843825  0.69119314  1
  Se  Se233  1  0.59219139  0.76466198  0.18559252  1
  Se  Se234  1  0.57924515  0.75567897  0.69833838  1
  Se  Se235  1  0.91869617  0.07499155  0.19950992  1
  Se  Se236  1  0.91639073  0.08002394  0.69585475  1
  Se  Se237  1  0.91663653  0.42139167  0.18425895  1
  Se  Se238  1  0.90655595  0.42331215  0.69869606  1
  Se  Se239  1  0.91953740  0.74528730  0.19871278  1
  Se  Se240  1  0.91421750  0.75239862  0.69518695  1
  Se  Se241  1  0.09313939  0.23893225  0.19346932  1
  Se  Se242  1  0.09426086  0.23693610  0.68989330  1
  Se  Se243  1  0.08548485  0.59398547  0.19486256  1
  Se  Se244  1  0.08639169  0.57699213  0.69291140  1
  Se  Se245  1  0.08056959  0.92092391  0.19865563  1
  Se  Se246  1  0.08599701  0.91315568  0.69736970  1
  Se  Se247  1  0.41882559  0.24828179  0.18934092  1
  Se  Se248  1  0.41672508  0.24992187  0.70688265  1
  Se  Se249  1  0.41790595  0.58877391  0.19464767  1
  Se  Se250  1  0.41476201  0.58937042  0.70429858  1
  Se  Se251  1  0.42952919  0.92392988  0.18504709  1
  Se  Se252  1  0.41431509  0.91694600  0.69904921  1
  Se  Se253  1  0.74912751  0.24473200  0.19843881  1
  Se  Se254  1  0.75734070  0.24757855  0.68977143  1
  Se  Se255  1  0.75189225  0.58420545  0.19245188  1
  Se  Se256  1  0.74855587  0.59254131  0.69832600  1
  Se  Se257  1  0.75346540  0.90164779  0.18529981  1
  Se  Se258  1  0.74360152  0.91860592  0.69828115  1
