# generated using pymatgen
data_In86Cu29Se144
_symmetry_space_group_name_H-M   'P 1'
_cell_length_a   17.58667518
_cell_length_b   17.58358033
_cell_length_c   23.43929514
_cell_angle_alpha   89.96983211
_cell_angle_beta   89.96826862
_cell_angle_gamma   89.99546831
_symmetry_Int_Tables_number   1
_chemical_formula_structural   In86Cu29Se144
_chemical_formula_sum   'In86 Cu29 Se144'
_cell_volume   7248.28850795
_cell_formula_units_Z   1
loop_
 _symmetry_equiv_pos_site_id
 _symmetry_equiv_pos_as_xyz
  1  'x, y, z'
loop_
 _atom_site_type_symbol
 _atom_site_label
 _atom_site_symmetry_multiplicity
 _atom_site_fract_x
 _atom_site_fract_y
 _atom_site_fract_z
 _atom_site_occupancy
  In  In0  1  -0.01360591  0.14775142  0.10765959  1
  In  In1  1  -0.00408339  0.16272529  0.63094666  1
  In  In2  1  0.00845594  0.51273918  0.12320671  1
  In  In3  1  -0.00534693  0.50165192  0.63550386  1
  In  In4  1  0.01268874  0.82622375  0.12571742  1
  In  In5  1  -0.00368052  0.83926360  0.62606228  1
  In  In6  1  0.31754672  0.15729603  0.11204489  1
  In  In7  1  0.32682654  0.16234426  0.63109366  1
  In  In8  1  0.34600011  0.50349695  0.12559905  1
  In  In9  1  0.35073025  0.50711640  0.62365084  1
  In  In10  1  0.33069177  0.83493158  0.12143441  1
  In  In11  1  0.32267976  0.83825380  0.63225433  1
  In  In12  1  0.67645492  0.17158578  0.10971564  1
  In  In13  1  0.66555916  0.15158437  0.63175458  1
  In  In14  1  0.65045169  0.49870411  0.12274052  1
  In  In15  1  0.66174294  0.51265730  0.62940379  1
  In  In16  1  0.66482687  0.85436139  0.11284283  1
  In  In17  1  0.67522585  0.82950220  0.63139304  1
  In  In18  1  0.15176032  -0.01584648  0.35984415  1
  In  In19  1  0.16149519  -0.00882809  0.87952883  1
  In  In20  1  0.16864630  0.33821243  0.37199323  1
  In  In21  1  0.15496671  0.32751898  0.87385864  1
  In  In22  1  0.17836043  0.68277823  0.37233783  1
  In  In23  1  0.16970957  0.67399410  0.87272042  1
  In  In24  1  0.50050934  0.01211642  0.36640272  1
  In  In25  1  0.50054206  -0.00108727  0.87532578  1
  In  In26  1  0.51345044  0.32680292  0.37417101  1
  In  In27  1  0.51241151  0.33286607  0.89047169  1
  In  In28  1  0.48487402  0.66810821  0.37531412  1
  In  In29  1  0.49904486  0.66815117  0.87516544  1
  In  In30  1  0.85749906  -0.01771598  0.39730298  1
  In  In31  1  0.84390522  0.00640705  0.87107664  1
  In  In32  1  0.81953744  0.33801508  0.37518931  1
  In  In33  1  0.82993303  0.31186375  0.87984637  1
  In  In34  1  0.84630086  0.66792139  0.37534701  1
  In  In35  1  0.83830079  0.67632972  0.86308623  1
  In  In36  1  0.00538000  0.14729360  0.37890066  1
  In  In37  1  -0.00331900  0.15630904  0.88013284  1
  In  In38  1  -0.01506677  0.50862417  0.37502013  1
  In  In39  1  0.00891392  0.50434538  0.86340821  1
  In  In40  1  0.00601285  0.83603022  0.37772100  1
  In  In41  1  0.00965727  0.84124766  0.87401914  1
  In  In42  1  0.34459888  0.16009831  0.36999566  1
  In  In43  1  0.34503831  0.15333563  0.88270412  1
  In  In44  1  0.32962972  0.51220243  0.37967624  1
  In  In45  1  0.34494535  0.51561131  0.86765578  1
  In  In46  1  0.32800968  0.82780344  0.36958456  1
  In  In47  1  0.33001064  0.83326284  0.87543659  1
  In  In48  1  0.67104968  0.17533275  0.37114405  1
  In  In49  1  0.68446177  0.14501329  0.90026125  1
  In  In50  1  0.67140461  0.48499409  0.37354904  1
  In  In51  1  0.64879641  0.50341121  0.87376330  1
  In  In52  1  0.67339674  0.84885303  0.37623089  1
  In  In53  1  0.65986542  0.82261340  0.86778701  1
  In  In54  1  0.16456618  -0.00235255  0.12219304  1
  In  In55  1  0.16787192  -0.00691123  0.62864337  1
  In  In56  1  0.17394757  0.33004384  0.12230375  1
  In  In57  1  0.16579768  0.31639179  0.62978042  1
  In  In58  1  0.15749949  0.68655240  0.12663682  1
  In  In59  1  0.15304570  0.68158598  0.63470928  1
  In  In60  1  0.49263118  -0.01141802  0.10751234  1
  In  In61  1  0.49985206  -0.00270737  0.64001611  1
  In  In62  1  0.51141174  0.33692752  0.11217691  1
  In  In63  1  0.49377912  0.35106315  0.62768171  1
  In  In64  1  0.48858733  0.66172696  0.11805284  1
  In  In65  1  0.50375972  0.65456461  0.63775839  1
  In  In66  1  0.83263331  0.01077400  0.12307532  1
  In  In67  1  0.83552134  -0.00243215  0.62768851  1
  In  In68  1  0.83228612  0.31811716  0.12780804  1
  In  In69  1  0.84682144  0.33457767  0.62724150  1
  In  In70  1  0.84476003  0.67883883  0.12343603  1
  In  In71  1  0.82978284  0.67782963  0.63145274  1
  In  In72  1  0.17291999  0.49923409  -0.00585852  1
  In  In73  1  -0.00063751  0.33037785  0.25089338  1
  In  In74  1  0.66861680  0.32898919  0.75873590  1
  In  In75  1  0.50472069  0.16770259  0.49840936  1
  In  In76  1  0.16915881  0.50261937  0.49995376  1
  In  In77  1  0.66331061  0.66734910  0.24296267  1
  In  In78  1  0.33587179  0.33255900  0.24751624  1
  In  In79  1  0.82895331  0.49629708  -0.00193303  1
  In  In80  1  0.83852750  0.84016483  -0.00583526  1
  In  In81  1  0.66920265  0.01315771  0.24361717  1
  In  In82  1  0.17129171  0.15803207  0.50645227  1
  In  In83  1  0.83031431  0.50216896  0.50412677  1
  In  In84  1  0.50070566  0.83051206  0.50203193  1
  In  In85  1  0.33264865  0.33152746  0.75441363  1
  Cu  Cu86  1  0.00501497  0.67798387  0.50085875  1
  Cu  Cu87  1  0.33404892  -0.00183433  0.50043339  1
  Cu  Cu88  1  0.16908059  0.49957795  0.75042983  1
  Cu  Cu89  1  0.67877352  -0.00088954  0.50634037  1
  Cu  Cu90  1  0.49539774  0.16635616  0.23952036  1
  Cu  Cu91  1  0.66188133  0.33212413  0.49921217  1
  Cu  Cu92  1  0.83205765  0.16191633  0.25045031  1
  Cu  Cu93  1  0.33284038  0.67009060  0.50164929  1
  Cu  Cu94  1  0.50289832  0.16273945  0.75960024  1
  Cu  Cu95  1  0.65935253  0.66503363  0.50713433  1
  Cu  Cu96  1  0.32733860  -0.00683469  -0.00373675  1
  Cu  Cu97  1  0.49414780  0.83432970  0.24061389  1
  Cu  Cu98  1  0.16441839  0.15752414  0.24106221  1
  Cu  Cu99  1  0.16677398  0.51831247  0.25013608  1
  Cu  Cu100  1  0.83349336  0.83926629  0.75011008  1
  Cu  Cu101  1  0.66239920  0.66790577  -0.00489582  1
  Cu  Cu102  1  0.49231163  0.83046587  0.75398359  1
  Cu  Cu103  1  0.33422420  0.33713127  0.00090682  1
  Cu  Cu104  1  -0.00406718  0.32765320  -0.00390867  1
  Cu  Cu105  1  0.33347287  0.66974590  -0.00295820  1
  Cu  Cu106  1  0.83319241  0.49865847  0.75088988  1
  Cu  Cu107  1  0.83109356  0.50000495  0.25038328  1
  Cu  Cu108  1  0.16071920  0.15443655  0.75292725  1
  Cu  Cu109  1  0.00432550  0.32524759  0.50679022  1
  Cu  Cu110  1  0.84465431  0.83498604  0.25298040  1
  Cu  Cu111  1  0.17092164  0.83598677  0.24776178  1
  Cu  Cu112  1  0.49977982  0.49981912  0.24581390  1
  Cu  Cu113  1  0.83652019  0.16048194  0.75652613  1
  Cu  Cu114  1  0.16568998  0.83350655  0.75299236  1
  Se  Se115  1  0.10201983  0.09776099  0.05450364  1
  Se  Se116  1  0.07396103  0.07203784  0.55929612  1
  Se  Se117  1  0.07563725  0.41021275  0.05545300  1
  Se  Se118  1  0.07964612  0.41221286  0.56337085  1
  Se  Se119  1  0.08422643  0.75241364  0.04633385  1
  Se  Se120  1  0.08574740  0.75958405  0.55616981  1
  Se  Se121  1  0.40945033  0.08149068  0.04666338  1
  Se  Se122  1  0.41518517  0.07681915  0.56028878  1
  Se  Se123  1  0.41730314  0.42111883  0.05252694  1
  Se  Se124  1  0.41368123  0.41643663  0.55164516  1
  Se  Se125  1  0.41635547  0.75417505  0.05127224  1
  Se  Se126  1  0.41300580  0.74578533  0.56615108  1
  Se  Se127  1  0.73730966  0.06314947  0.05106985  1
  Se  Se128  1  0.75460314  0.08803735  0.55889092  1
  Se  Se129  1  0.74481524  0.41002509  0.06341071  1
  Se  Se130  1  0.74086888  0.41001216  0.56395186  1
  Se  Se131  1  0.74430236  0.74610189  0.05556425  1
  Se  Se132  1  0.74663718  0.74736205  0.55551942  1
  Se  Se133  1  0.24467508  0.25299754  0.04564672  1
  Se  Se134  1  0.26446929  0.25729009  0.55641039  1
  Se  Se135  1  0.25427470  0.58880447  0.06043099  1
  Se  Se136  1  0.24994850  0.59428352  0.56425275  1
  Se  Se137  1  0.24392406  0.91193135  0.05195317  1
  Se  Se138  1  0.25117717  0.91737676  0.55501308  1
  Se  Se139  1  0.57658095  0.23992532  0.04706781  1
  Se  Se140  1  0.58769875  0.25564613  0.56687183  1
  Se  Se141  1  0.58085305  0.58594641  0.05153557  1
  Se  Se142  1  0.57523192  0.58112962  0.55569385  1
  Se  Se143  1  0.58477075  0.92052162  0.03760676  1
  Se  Se144  1  0.58646847  0.92495648  0.56174631  1
  Se  Se145  1  0.90948231  0.24840766  0.04996476  1
  Se  Se146  1  0.91747538  0.24525987  0.55754808  1
  Se  Se147  1  0.92323480  0.59167655  0.05131100  1
  Se  Se148  1  0.92549306  0.59240898  0.55868259  1
  Se  Se149  1  0.92415741  0.92104892  0.06262708  1
  Se  Se150  1  0.90499869  0.90865424  0.55629707  1
  Se  Se151  1  0.08431621  0.25425145  0.44154772  1
  Se  Se152  1  0.08256784  0.24458732  0.94646758  1
  Se  Se153  1  0.07780290  0.59187701  0.43921942  1
  Se  Se154  1  0.07751593  0.58823885  0.94130543  1
  Se  Se155  1  0.08635659  0.92315975  0.44467484  1
  Se  Se156  1  0.07876320  0.91566729  0.95266318  1
  Se  Se157  1  0.41059412  0.25611008  0.44075374  1
  Se  Se158  1  0.41475586  0.25153695  0.94737621  1
  Se  Se159  1  0.41683515  0.58505370  0.45132032  1
  Se  Se160  1  0.41861371  0.58372841  0.94810571  1
  Se  Se161  1  0.41867616  0.92483765  0.43800004  1
  Se  Se162  1  0.41548371  0.91416476  0.94341961  1
  Se  Se163  1  0.74809750  0.25140829  0.44745695  1
  Se  Se164  1  0.73644851  0.26209266  0.95428974  1
  Se  Se165  1  0.74127080  0.59087494  0.44009558  1
  Se  Se166  1  0.74903404  0.59417443  0.93627481  1
  Se  Se167  1  0.75498888  0.90762155  0.45559376  1
  Se  Se168  1  0.74528001  0.91796500  0.93103746  1
  Se  Se169  1  0.25637657  0.07571260  0.43654377  1
  Se  Se170  1  0.24629673  0.08064245  0.94452074  1
  Se  Se171  1  0.25915701  0.40698131  0.44400249  1
  Se  Se172  1  0.26051544  0.41115915  0.93097298  1
  Se  Se173  1  0.25290052  0.75759285  0.44972762  1
  Se  Se174  1  0.24679363  0.75172240  0.94710557  1
  Se  Se175  1  0.59754046  0.07368157  0.44170618  1
  Se  Se176  1  0.56185612  0.09516746  0.94652955  1
  Se  Se177  1  0.58202695  0.41752783  0.44600190  1
  Se  Se178  1  0.58635644  0.42705208  0.95430740  1
  Se  Se179  1  0.59134525  0.74475812  0.43659375  1
  Se  Se180  1  0.57898743  0.75369377  0.94537642  1
  Se  Se181  1  0.90620931  0.10050706  0.45017589  1
  Se  Se182  1  0.90292751  0.09013790  0.95023307  1
  Se  Se183  1  0.92342467  0.40713589  0.44605483  1
  Se  Se184  1  0.92470640  0.41404394  0.93499052  1
  Se  Se185  1  0.91687582  0.75417386  0.44598703  1
  Se  Se186  1  0.92461613  0.74304388  0.93934551  1
  Se  Se187  1  0.24051714  0.23919659  0.30433208  1
  Se  Se188  1  0.24483552  0.23564941  0.81083204  1
  Se  Se189  1  0.25571546  0.59134674  0.30563008  1
  Se  Se190  1  0.24795154  0.58515943  0.80403370  1
  Se  Se191  1  0.25764516  0.91951420  0.30001551  1
  Se  Se192  1  0.24795238  0.91773194  0.80637290  1
  Se  Se193  1  0.58005665  0.24220357  0.29862190  1
  Se  Se194  1  0.58435875  0.23804262  0.82013987  1
  Se  Se195  1  0.57957498  0.57845320  0.30962786  1
  Se  Se196  1  0.58468093  0.59313630  0.80315223  1
  Se  Se197  1  0.57823491  0.91204504  0.30070999  1
  Se  Se198  1  0.57897506  0.91418307  0.80397635  1
  Se  Se199  1  0.90958524  0.24411880  0.31322267  1
  Se  Se200  1  0.91960639  0.24523208  0.80816151  1
  Se  Se201  1  0.91508748  0.58685708  0.29807565  1
  Se  Se202  1  0.91910264  0.58516191  0.79936918  1
  Se  Se203  1  0.92045252  0.92040576  0.30917532  1
  Se  Se204  1  0.92064190  0.91705934  0.80435763  1
  Se  Se205  1  0.07710725  0.08108373  0.29649759  1
  Se  Se206  1  0.07805248  0.07467895  0.80928259  1
  Se  Se207  1  0.08765718  0.43238042  0.30747179  1
  Se  Se208  1  0.08595534  0.41119479  0.79890260  1
  Se  Se209  1  0.08630320  0.75465719  0.30493482  1
  Se  Se210  1  0.08031763  0.74909520  0.80384636  1
  Se  Se211  1  0.41484924  0.08103976  0.29290770  1
  Se  Se212  1  0.41290245  0.07701478  0.80297100  1
  Se  Se213  1  0.42148389  0.42228234  0.31161557  1
  Se  Se214  1  0.42957673  0.41401189  0.81198364  1
  Se  Se215  1  0.41791073  0.75210926  0.30032503  1
  Se  Se216  1  0.40985679  0.74653974  0.80667396  1
  Se  Se217  1  0.76185667  0.07861461  0.31637967  1
  Se  Se218  1  0.74559019  0.08559359  0.80990526  1
  Se  Se219  1  0.74658517  0.41170394  0.29585156  1
  Se  Se220  1  0.75852102  0.42258288  0.81707695  1
  Se  Se221  1  0.75366956  0.75618242  0.30704010  1
  Se  Se222  1  0.74752248  0.75003743  0.79573860  1
  Se  Se223  1  0.25374273  0.07779422  0.19198978  1
  Se  Se224  1  0.24932334  0.07767358  0.69846668  1
  Se  Se225  1  0.24165138  0.42903245  0.19288590  1
  Se  Se226  1  0.24641478  0.41975051  0.68805404  1
  Se  Se227  1  0.25409687  0.75086130  0.19526627  1
  Se  Se228  1  0.25080664  0.74741988  0.70185320  1
  Se  Se229  1  0.57469356  0.08679481  0.17815697  1
  Se  Se230  1  0.58645416  0.07853387  0.70645320  1
  Se  Se231  1  0.57918308  0.41187134  0.19510476  1
  Se  Se232  1  0.58081636  0.42389700  0.70068232  1
  Se  Se233  1  0.58082478  0.76152123  0.18108714  1
  Se  Se234  1  0.57893917  0.75526771  0.69537169  1
  Se  Se235  1  0.91809450  0.08522252  0.19460944  1
  Se  Se236  1  0.91733887  0.07792158  0.70029170  1
  Se  Se237  1  0.91396386  0.42353116  0.18745146  1
  Se  Se238  1  0.91889687  0.41165433  0.70340730  1
  Se  Se239  1  0.92421720  0.75049437  0.19810854  1
  Se  Se240  1  0.91895372  0.75337737  0.69839502  1
  Se  Se241  1  0.08442067  0.24389157  0.18583328  1
  Se  Se242  1  0.08141714  0.24346217  0.70055015  1
  Se  Se243  1  0.08081554  0.59551964  0.19564279  1
  Se  Se244  1  0.08220138  0.58358011  0.69931218  1
  Se  Se245  1  0.08426453  0.91713962  0.19546348  1
  Se  Se246  1  0.08194734  0.91606653  0.69811650  1
  Se  Se247  1  0.41541626  0.24642735  0.17923955  1
  Se  Se248  1  0.42860861  0.24233962  0.69389880  1
  Se  Se249  1  0.41670435  0.58867942  0.19924041  1
  Se  Se250  1  0.41442036  0.57877202  0.70509146  1
  Se  Se251  1  0.41566569  0.92175286  0.18812570  1
  Se  Se252  1  0.40920006  0.91655696  0.70151882  1
  Se  Se253  1  0.74557634  0.23954649  0.19557958  1
  Se  Se254  1  0.75890273  0.24353399  0.69428832  1
  Se  Se255  1  0.75688353  0.57862755  0.18397146  1
  Se  Se256  1  0.75336465  0.58353850  0.69628174  1
  Se  Se257  1  0.75838125  0.90917198  0.19292313  1
  Se  Se258  1  0.74660921  0.92228697  0.69889928  1
