# generated using pymatgen
data_In86Cu29Se144
_symmetry_space_group_name_H-M   'P 1'
_cell_length_a   17.59446699
_cell_length_b   17.59559182
_cell_length_c   23.45050799
_cell_angle_alpha   90.01549769
_cell_angle_beta   90.00576891
_cell_angle_gamma   90.00727911
_symmetry_Int_Tables_number   1
_chemical_formula_structural   In86Cu29Se144
_chemical_formula_sum   'In86 Cu29 Se144'
_cell_volume   7259.92654787
_cell_formula_units_Z   1
loop_
 _symmetry_equiv_pos_site_id
 _symmetry_equiv_pos_as_xyz
  1  'x, y, z'
loop_
 _atom_site_type_symbol
 _atom_site_label
 _atom_site_symmetry_multiplicity
 _atom_site_fract_x
 _atom_site_fract_y
 _atom_site_fract_z
 _atom_site_occupancy
  In  In0  1  -0.00524199  0.16531233  0.14113583  1
  In  In1  1  -0.00896837  0.16614568  0.63992919  1
  In  In2  1  -0.00398955  0.50814525  0.12981667  1
  In  In3  1  -0.00948456  0.50361787  0.62168426  1
  In  In4  1  -0.00296689  0.83785434  0.12662329  1
  In  In5  1  0.00005124  0.83408506  0.61768101  1
  In  In6  1  0.33749472  0.16250234  0.12123431  1
  In  In7  1  0.33922975  0.15834862  0.62917371  1
  In  In8  1  0.32967419  0.50161487  0.13149480  1
  In  In9  1  0.32150250  0.49377938  0.62393265  1
  In  In10  1  0.30970551  0.85580934  0.15047028  1
  In  In11  1  0.33039778  0.84978060  0.62169427  1
  In  In12  1  0.66712250  0.18380446  0.12385850  1
  In  In13  1  0.66619699  0.17355140  0.63202498  1
  In  In14  1  0.67214510  0.49335443  0.12952679  1
  In  In15  1  0.66845687  0.49078745  0.62386259  1
  In  In16  1  0.66423181  0.82102580  0.12668368  1
  In  In17  1  0.68915767  0.83606363  0.62481910  1
  In  In18  1  0.15392048  -0.01840676  0.35724863  1
  In  In19  1  0.15927727  -0.00668173  0.87191289  1
  In  In20  1  0.16561776  0.33183854  0.36717844  1
  In  In21  1  0.15998945  0.32359666  0.87207038  1
  In  In22  1  0.17110771  0.68215385  0.36070012  1
  In  In23  1  0.17406202  0.67957489  0.88356811  1
  In  In24  1  0.49853002  0.01360554  0.37666452  1
  In  In25  1  0.50389927  0.01198507  0.87299742  1
  In  In26  1  0.49719221  0.32450012  0.37065085  1
  In  In27  1  0.48845675  0.31255318  0.87261781  1
  In  In28  1  0.50404949  0.66422920  0.36512097  1
  In  In29  1  0.49706106  0.66454662  0.87920030  1
  In  In30  1  0.83103997  -0.01389178  0.37791311  1
  In  In31  1  0.83111135  -0.00917144  0.86328603  1
  In  In32  1  0.84267584  0.34164303  0.36805984  1
  In  In33  1  0.83629280  0.33620491  0.86862231  1
  In  In34  1  0.83293065  0.66536291  0.37310429  1
  In  In35  1  0.83480809  0.66735059  0.88501539  1
  In  In36  1  -0.00485443  0.16850393  0.36165265  1
  In  In37  1  -0.01091110  0.16058983  0.85885634  1
  In  In38  1  -0.01309664  0.49466584  0.36789664  1
  In  In39  1  -0.00302432  0.48682500  0.87759427  1
  In  In40  1  0.00060922  0.83198560  0.36820221  1
  In  In41  1  -0.00892017  0.84408887  0.88717770  1
  In  In42  1  0.33867211  0.16859920  0.36893437  1
  In  In43  1  0.34044619  0.17137424  0.87593836  1
  In  In44  1  0.33633085  0.49760051  0.36611618  1
  In  In45  1  0.34377174  0.49029412  0.87980192  1
  In  In46  1  0.32142513  0.82802134  0.36093290  1
  In  In47  1  0.31975656  0.83753395  0.88221938  1
  In  In48  1  0.65296629  0.16499775  0.37884478  1
  In  In49  1  0.66505659  0.15561607  0.86456356  1
  In  In50  1  0.68415038  0.50948564  0.37011620  1
  In  In51  1  0.68076354  0.50217212  0.87650923  1
  In  In52  1  0.68182203  0.82747872  0.38032149  1
  In  In53  1  0.67446809  0.84974906  0.86936701  1
  In  In54  1  0.16923785  -0.00980680  0.13186253  1
  In  In55  1  0.16588659  -0.00459136  0.62721312  1
  In  In56  1  0.16465276  0.33200593  0.13061944  1
  In  In57  1  0.16845335  0.32934801  0.63213568  1
  In  In58  1  0.14492282  0.69495393  0.15060886  1
  In  In59  1  0.15378401  0.67196222  0.61695095  1
  In  In60  1  0.48555498  0.00443378  0.11448438  1
  In  In61  1  0.49093827  0.01093502  0.62929711  1
  In  In62  1  0.49968249  0.32969420  0.12379643  1
  In  In63  1  0.51215169  0.31830103  0.62997699  1
  In  In64  1  0.49942262  0.66837904  0.13764551  1
  In  In65  1  0.50348268  0.66259461  0.62223228  1
  In  In66  1  0.84964910  0.00171797  0.12791938  1
  In  In67  1  0.84528608  -0.01475449  0.64320177  1
  In  In68  1  0.82026965  0.33674345  0.13279902  1
  In  In69  1  0.82626732  0.33674360  0.63224771  1
  In  In70  1  0.83338957  0.66740992  0.12519908  1
  In  In71  1  0.83422209  0.67168671  0.60760393  1
  In  In72  1  0.16218017  0.50362668  0.48686959  1
  In  In73  1  0.50382831  0.49754843  0.00652941  1
  In  In74  1  0.50218543  0.83056513  0.00104634  1
  In  In75  1  0.83166569  0.16407058  -0.00263500  1
  In  In76  1  0.16564550  0.50416215  0.00158701  1
  In  In77  1  0.66575652  0.00264607  0.25503854  1
  In  In78  1  0.00088580  0.66684316  0.74174129  1
  In  In79  1  0.16550881  0.15814894  0.49903650  1
  In  In80  1  0.16836781  0.16279757  0.00173618  1
  In  In81  1  0.50180133  0.83669654  0.49299378  1
  In  In82  1  0.33433940  0.66477400  0.75709989  1
  In  In83  1  0.82951075  0.16439050  0.50671996  1
  In  In84  1  0.50799731  0.49698290  0.50048960  1
  In  In85  1  0.66631336  0.66983707  0.75148217  1
  Cu  Cu86  1  0.34402459  0.32441897  0.49747817  1
  Cu  Cu87  1  0.50167922  0.84615387  0.74985837  1
  Cu  Cu88  1  -0.00298588  0.67629355  0.49157031  1
  Cu  Cu89  1  0.00470165  -0.00524074  0.00200075  1
  Cu  Cu90  1  0.83392209  0.49770969  0.74808467  1
  Cu  Cu91  1  0.49888598  0.48520226  0.74978283  1
  Cu  Cu92  1  0.33110525  0.67594278  0.48900777  1
  Cu  Cu93  1  0.32265832  0.00069118  0.49907052  1
  Cu  Cu94  1  0.67096365  0.33383830  0.50411280  1
  Cu  Cu95  1  0.16690858  0.83431168  0.74795181  1
  Cu  Cu96  1  -0.00025044  0.67016200  0.01106441  1
  Cu  Cu97  1  -0.00969145  0.33068662  -0.00204778  1
  Cu  Cu98  1  -0.00269831  0.33758803  0.49593191  1
  Cu  Cu99  1  0.66561915  0.00073286  0.50374096  1
  Cu  Cu100  1  0.67725481  0.66888319  0.00187454  1
  Cu  Cu101  1  0.17174560  0.48776933  0.75391694  1
  Cu  Cu102  1  0.50512096  0.48808054  0.24931070  1
  Cu  Cu103  1  0.50115069  0.83385880  0.24976113  1
  Cu  Cu104  1  -0.00320402  -0.00632040  0.49826565  1
  Cu  Cu105  1  0.83559097  0.83077461  0.25139892  1
  Cu  Cu106  1  0.66573268  0.33758243  0.00102523  1
  Cu  Cu107  1  0.16411456  0.49978612  0.25129781  1
  Cu  Cu108  1  0.49999772  0.16866788  0.24689065  1
  Cu  Cu109  1  0.83267516  0.50322843  0.24730982  1
  Cu  Cu110  1  0.17044738  0.17051414  0.24833197  1
  Cu  Cu111  1  0.17143772  0.16147461  0.75164568  1
  Cu  Cu112  1  0.67388044  0.00075810  -0.00831590  1
  Cu  Cu113  1  0.49727574  0.16771120  0.75063532  1
  Cu  Cu114  1  0.32617385  0.67365201  0.01430474  1
  Se  Se115  1  0.07325850  0.08153149  0.06407983  1
  Se  Se116  1  0.06828216  0.07919718  0.56120082  1
  Se  Se117  1  0.07355680  0.40957141  0.05706299  1
  Se  Se118  1  0.08373807  0.41214089  0.55608033  1
  Se  Se119  1  0.08569405  0.75397288  0.05996241  1
  Se  Se120  1  0.08326353  0.75608067  0.54507688  1
  Se  Se121  1  0.42100377  0.09572208  0.04448593  1
  Se  Se122  1  0.41019906  0.08038063  0.55123134  1
  Se  Se123  1  0.40382204  0.41254342  0.05746482  1
  Se  Se124  1  0.41491673  0.40904866  0.56042698  1
  Se  Se125  1  0.41440465  0.75134642  0.06860213  1
  Se  Se126  1  0.40962503  0.74559653  0.55750584  1
  Se  Se127  1  0.74481174  0.07674240  0.06248800  1
  Se  Se128  1  0.74711445  0.07253586  0.56857563  1
  Se  Se129  1  0.75110352  0.41679204  0.05456433  1
  Se  Se130  1  0.75661504  0.41666327  0.55421988  1
  Se  Se131  1  0.75515846  0.75621737  0.05484503  1
  Se  Se132  1  0.74156900  0.74985129  0.54676639  1
  Se  Se133  1  0.25267642  0.26075995  0.05708158  1
  Se  Se134  1  0.25463163  0.25291861  0.55646141  1
  Se  Se135  1  0.24148985  0.59399254  0.07005978  1
  Se  Se136  1  0.25503932  0.59162460  0.55151367  1
  Se  Se137  1  0.25877497  0.92211371  0.06077365  1
  Se  Se138  1  0.24000012  0.91577493  0.55013132  1
  Se  Se139  1  0.58157067  0.25235933  0.05012641  1
  Se  Se140  1  0.58819791  0.24576158  0.55273360  1
  Se  Se141  1  0.59082142  0.59481964  0.06098362  1
  Se  Se142  1  0.59878655  0.59210873  0.55516344  1
  Se  Se143  1  0.59485888  0.92424393  0.05821566  1
  Se  Se144  1  0.58318331  0.92007342  0.56381514  1
  Se  Se145  1  0.91794039  0.25046244  0.06315255  1
  Se  Se146  1  0.92526483  0.25625377  0.56076176  1
  Se  Se147  1  0.91492637  0.58158515  0.05551639  1
  Se  Se148  1  0.92298979  0.58602784  0.54641760  1
  Se  Se149  1  0.91450464  0.91601318  0.05262766  1
  Se  Se150  1  0.90977692  0.91928159  0.55589600  1
  Se  Se151  1  0.07621925  0.25284060  0.44034104  1
  Se  Se152  1  0.06781315  0.24491548  0.94142161  1
  Se  Se153  1  0.07547395  0.59609478  0.42901371  1
  Se  Se154  1  0.07268631  0.59380387  0.94084254  1
  Se  Se155  1  0.08059846  0.91725990  0.44053739  1
  Se  Se156  1  0.09134805  0.91270352  0.95072568  1
  Se  Se157  1  0.42337803  0.24029818  0.44417686  1
  Se  Se158  1  0.41680227  0.24583391  0.95308491  1
  Se  Se159  1  0.41307018  0.58689511  0.44060588  1
  Se  Se160  1  0.40445112  0.59392563  0.95215470  1
  Se  Se161  1  0.40469574  0.92209357  0.43707927  1
  Se  Se162  1  0.41668090  0.92232000  0.94100371  1
  Se  Se163  1  0.74874414  0.25454150  0.44001657  1
  Se  Se164  1  0.74259938  0.25553625  0.93840795  1
  Se  Se165  1  0.75863053  0.58101284  0.44608649  1
  Se  Se166  1  0.75572363  0.57878363  0.95163849  1
  Se  Se167  1  0.74927700  0.91608962  0.45339715  1
  Se  Se168  1  0.75979904  0.91658289  0.94435213  1
  Se  Se169  1  0.24769977  0.07470700  0.43080527  1
  Se  Se170  1  0.25308931  0.07567057  0.93799008  1
  Se  Se171  1  0.26073176  0.40609048  0.44104209  1
  Se  Se172  1  0.24978810  0.40818469  0.94234698  1
  Se  Se173  1  0.24505751  0.75708531  0.43994160  1
  Se  Se174  1  0.24727880  0.75799072  0.95870959  1
  Se  Se175  1  0.58034608  0.08292624  0.45321196  1
  Se  Se176  1  0.58912388  0.08693385  0.94482890  1
  Se  Se177  1  0.59276503  0.40872979  0.43724443  1
  Se  Se178  1  0.58543680  0.41357067  0.93654536  1
  Se  Se179  1  0.58896343  0.73728144  0.44175684  1
  Se  Se180  1  0.59728148  0.74438420  0.93796167  1
  Se  Se181  1  0.92201021  0.08187076  0.44095018  1
  Se  Se182  1  0.92500533  0.07491408  0.93993675  1
  Se  Se183  1  0.91232902  0.42069930  0.44641503  1
  Se  Se184  1  0.90756494  0.41648131  0.94751285  1
  Se  Se185  1  0.91238405  0.75795835  0.43883370  1
  Se  Se186  1  0.91747477  0.75025974  0.95241908  1
  Se  Se187  1  0.25464336  0.25272124  0.30229740  1
  Se  Se188  1  0.25042932  0.24675040  0.80664235  1
  Se  Se189  1  0.25004829  0.58204244  0.30326528  1
  Se  Se190  1  0.24210272  0.57350088  0.81644165  1
  Se  Se191  1  0.26150894  0.92719235  0.29404994  1
  Se  Se192  1  0.25063718  0.91416163  0.80370925  1
  Se  Se193  1  0.58592919  0.24719582  0.30171316  1
  Se  Se194  1  0.58399387  0.24943398  0.80294092  1
  Se  Se195  1  0.58570186  0.57523129  0.30235894  1
  Se  Se196  1  0.57303528  0.57410674  0.80793872  1
  Se  Se197  1  0.57881609  0.90910218  0.31662239  1
  Se  Se198  1  0.58555003  0.92645740  0.80401382  1
  Se  Se199  1  0.91522104  0.25510694  0.29807737  1
  Se  Se200  1  0.92972185  0.26826598  0.80113626  1
  Se  Se201  1  0.91608095  0.58763185  0.30024017  1
  Se  Se202  1  0.91287731  0.57964355  0.80814359  1
  Se  Se203  1  0.91472846  0.91954791  0.30256967  1
  Se  Se204  1  0.92611222  0.90950282  0.80381612  1
  Se  Se205  1  0.08468297  0.08654226  0.29910229  1
  Se  Se206  1  0.08401684  0.07785507  0.80077228  1
  Se  Se207  1  0.07984969  0.41609144  0.30386581  1
  Se  Se208  1  0.08077791  0.41304351  0.80574725  1
  Se  Se209  1  0.09014953  0.76642074  0.29413052  1
  Se  Se210  1  0.08898866  0.75124491  0.80765137  1
  Se  Se211  1  0.41868895  0.08234105  0.29960343  1
  Se  Se212  1  0.41335468  0.08398911  0.80352146  1
  Se  Se213  1  0.41692200  0.40910698  0.30194318  1
  Se  Se214  1  0.41402173  0.40824314  0.80576715  1
  Se  Se215  1  0.41820533  0.74792604  0.30140118  1
  Se  Se216  1  0.42558258  0.76203956  0.81096824  1
  Se  Se217  1  0.75496588  0.08927203  0.31664864  1
  Se  Se218  1  0.77476585  0.10108255  0.80509370  1
  Se  Se219  1  0.75079438  0.41632989  0.30013005  1
  Se  Se220  1  0.74719905  0.41817906  0.80134749  1
  Se  Se221  1  0.74886779  0.74830222  0.30231884  1
  Se  Se222  1  0.76240747  0.75444698  0.80855831  1
  Se  Se223  1  0.24907946  0.08848825  0.19076700  1
  Se  Se224  1  0.25009243  0.07834362  0.69392255  1
  Se  Se225  1  0.24728288  0.41629681  0.19812638  1
  Se  Se226  1  0.25679090  0.40931457  0.69924301  1
  Se  Se227  1  0.27277563  0.72929112  0.19691344  1
  Se  Se228  1  0.24589756  0.74913632  0.68928818  1
  Se  Se229  1  0.57905563  0.08577656  0.18673011  1
  Se  Se230  1  0.58148628  0.08554501  0.69651797  1
  Se  Se231  1  0.58656707  0.40759545  0.19284313  1
  Se  Se232  1  0.58829936  0.41199543  0.69498130  1
  Se  Se233  1  0.58857131  0.74821020  0.20381141  1
  Se  Se234  1  0.57475796  0.75929279  0.68985463  1
  Se  Se235  1  0.90912240  0.08347652  0.20586012  1
  Se  Se236  1  0.91473873  0.08158067  0.70734959  1
  Se  Se237  1  0.91467173  0.41789238  0.19391495  1
  Se  Se238  1  0.92118816  0.41867464  0.69433403  1
  Se  Se239  1  0.91673489  0.74900880  0.19443223  1
  Se  Se240  1  0.90549702  0.75388288  0.68685554  1
  Se  Se241  1  0.08131773  0.25472541  0.20098553  1
  Se  Se242  1  0.08707015  0.24671559  0.69923957  1
  Se  Se243  1  0.07725945  0.58438243  0.20297739  1
  Se  Se244  1  0.09799568  0.57018766  0.69034475  1
  Se  Se245  1  0.07565355  0.92003640  0.19756024  1
  Se  Se246  1  0.08002449  0.91067144  0.69217993  1
  Se  Se247  1  0.41469131  0.24906676  0.19233781  1
  Se  Se248  1  0.41378236  0.25085203  0.69556770  1
  Se  Se249  1  0.42095576  0.57498771  0.19952333  1
  Se  Se250  1  0.42172280  0.57265717  0.69201263  1
  Se  Se251  1  0.42687049  0.92327427  0.19571448  1
  Se  Se252  1  0.41134250  0.92070071  0.69620023  1
  Se  Se253  1  0.75230143  0.24211109  0.20022186  1
  Se  Se254  1  0.75699610  0.24590239  0.69931731  1
  Se  Se255  1  0.74789525  0.58633999  0.19442456  1
  Se  Se256  1  0.75791291  0.58308090  0.68823747  1
  Se  Se257  1  0.75267585  0.91206206  0.19191005  1
  Se  Se258  1  0.74000536  0.92042952  0.70412943  1
