# generated using pymatgen
data_In86Cu29Se144
_symmetry_space_group_name_H-M   'P 1'
_cell_length_a   17.56986582
_cell_length_b   17.56779737
_cell_length_c   23.42879292
_cell_angle_alpha   89.99986830
_cell_angle_beta   89.99085629
_cell_angle_gamma   90.01459614
_symmetry_Int_Tables_number   1
_chemical_formula_structural   In86Cu29Se144
_chemical_formula_sum   'In86 Cu29 Se144'
_cell_volume   7231.62092522
_cell_formula_units_Z   1
loop_
 _symmetry_equiv_pos_site_id
 _symmetry_equiv_pos_as_xyz
  1  'x, y, z'
loop_
 _atom_site_type_symbol
 _atom_site_label
 _atom_site_symmetry_multiplicity
 _atom_site_fract_x
 _atom_site_fract_y
 _atom_site_fract_z
 _atom_site_occupancy
  In  In0  1  0.00067172  0.16507733  0.12864042  1
  In  In1  1  0.01275765  0.16871734  0.62884151  1
  In  In2  1  0.00416599  0.49679008  0.13460925  1
  In  In3  1  0.00236001  0.50412969  0.62594816  1
  In  In4  1  0.00383695  0.83445364  0.12515995  1
  In  In5  1  -0.01525197  0.83969679  0.62153275  1
  In  In6  1  0.29910090  0.13214597  0.05989552  1
  In  In7  1  0.34189013  0.16495129  0.63805700  1
  In  In8  1  0.34334721  0.49224696  0.12372192  1
  In  In9  1  0.31652717  0.49348829  0.62131690  1
  In  In10  1  0.32157202  0.84731282  0.12813038  1
  In  In11  1  0.33988776  0.83402791  0.63246481  1
  In  In12  1  0.65925018  0.15636573  0.10970691  1
  In  In13  1  0.66389369  0.18252410  0.63399857  1
  In  In14  1  0.65888088  0.51078091  0.12758363  1
  In  In15  1  0.67703679  0.49760648  0.62806129  1
  In  In16  1  0.66728829  0.82130756  0.12105944  1
  In  In17  1  0.67316704  0.82275833  0.63206744  1
  In  In18  1  0.16560086  0.00615777  0.35677032  1
  In  In19  1  0.18044460  -0.00637046  0.88836593  1
  In  In20  1  0.17128907  0.34291502  0.37529752  1
  In  In21  1  0.15791664  0.32612888  0.87427159  1
  In  In22  1  0.15690757  0.65444667  0.36688461  1
  In  In23  1  0.16075548  0.68453686  0.87299217  1
  In  In24  1  0.49742081  0.01249215  0.37449400  1
  In  In25  1  0.48849090  0.04480097  0.89250466  1
  In  In26  1  0.48232728  0.31976255  0.38197843  1
  In  In27  1  0.50262740  0.32136952  0.86859609  1
  In  In28  1  0.50379859  0.66833626  0.36253237  1
  In  In29  1  0.49989399  0.65333573  0.87383825  1
  In  In30  1  0.83381098  -0.01186506  0.37408381  1
  In  In31  1  0.82463161  -0.00208423  0.89547618  1
  In  In32  1  0.84540328  0.33334788  0.37893051  1
  In  In33  1  0.82900460  0.33181853  0.86838702  1
  In  In34  1  0.83495951  0.66688557  0.37520507  1
  In  In35  1  0.83913898  0.67442064  0.86960474  1
  In  In36  1  0.00952174  0.17516809  0.35353368  1
  In  In37  1  -0.00324232  0.17184136  0.88359928  1
  In  In38  1  -0.00157593  0.49869900  0.37785774  1
  In  In39  1  -0.00434971  0.50096620  0.86823239  1
  In  In40  1  -0.00665006  0.82270094  0.36468453  1
  In  In41  1  0.00649782  0.83239650  0.88095781  1
  In  In42  1  0.33910144  0.17121116  0.37291263  1
  In  In43  1  0.33270802  0.16498711  0.87410526  1
  In  In44  1  0.32003233  0.49126543  0.37551322  1
  In  In45  1  0.35053820  0.49554774  0.88025187  1
  In  In46  1  0.33203692  0.83401678  0.36265115  1
  In  In47  1  0.31586221  0.84580485  0.88145180  1
  In  In48  1  0.65040144  0.15740017  0.37745186  1
  In  In49  1  0.65741553  0.18240888  0.89275811  1
  In  In50  1  0.66260457  0.51632281  0.37734064  1
  In  In51  1  0.65740866  0.48841432  0.86275513  1
  In  In52  1  0.68160778  0.83199684  0.37391130  1
  In  In53  1  0.67910103  0.84343997  0.87754559  1
  In  In54  1  0.17096181  -0.00104666  0.12276603  1
  In  In55  1  0.16910647  0.00864004  0.62767618  1
  In  In56  1  0.17166049  0.29565273  0.12650209  1
  In  In57  1  0.15736036  0.33803054  0.63696948  1
  In  In58  1  0.15788967  0.67430452  0.13221087  1
  In  In59  1  0.17403113  0.65029551  0.62479222  1
  In  In60  1  0.47357151  0.00918548  0.11472261  1
  In  In61  1  0.48485669  0.00583507  0.63644996  1
  In  In62  1  0.46773159  0.31484775  0.10078224  1
  In  In63  1  0.50217095  0.32459936  0.63356952  1
  In  In64  1  0.50326519  0.66068876  0.12711385  1
  In  In65  1  0.50537919  0.67785789  0.63370355  1
  In  In66  1  0.84000688  0.01047290  0.11153268  1
  In  In67  1  0.84170858  -0.00838864  0.62056019  1
  In  In68  1  0.84468903  0.33003497  0.12617196  1
  In  In69  1  0.82597302  0.34911602  0.62989931  1
  In  In70  1  0.83250469  0.67013664  0.13046493  1
  In  In71  1  0.83714413  0.66830268  0.62402571  1
  In  In72  1  0.83282275  0.16638502  0.50125910  1
  In  In73  1  0.50291482  0.83451515  0.50815212  1
  In  In74  1  0.33274904  0.66276534  0.75139237  1
  In  In75  1  0.50304581  0.49571152  0.50605696  1
  In  In76  1  0.66777140  0.34168767  0.24341803  1
  In  In77  1  0.50117512  0.83916607  -0.00062817  1
  In  In78  1  0.00686557  -0.00426901  0.75371372  1
  In  In79  1  0.83141753  0.50011507  -0.00007583  1
  In  In80  1  0.17141711  0.49606494  -0.00046114  1
  In  In81  1  0.15978421  0.82693869  0.49547725  1
  In  In82  1  0.17204066  0.17186162  0.49812424  1
  In  In83  1  0.66137253  0.00744107  0.76860965  1
  In  In84  1  0.66596713  -0.00716509  0.24879481  1
  In  In85  1  0.32707641  0.32973643  0.24769808  1
  Cu  Cu86  1  0.33177811  0.67194422  0.00042162  1
  Cu  Cu87  1  0.16423626  0.50099164  0.25270031  1
  Cu  Cu88  1  0.50424839  0.49386531  0.74927993  1
  Cu  Cu89  1  0.33541348  0.00012490  0.50371420  1
  Cu  Cu90  1  0.83955725  0.17204103  0.75532361  1
  Cu  Cu91  1  0.50091733  0.49987130  0.24460947  1
  Cu  Cu92  1  0.00397984  0.32520516  0.00468523  1
  Cu  Cu93  1  0.83810022  0.83044272  0.24825232  1
  Cu  Cu94  1  0.49899866  0.83186707  0.24019612  1
  Cu  Cu95  1  0.66672892  0.65923310  -0.00006823  1
  Cu  Cu96  1  0.66600345  0.34026259  -0.00793097  1
  Cu  Cu97  1  0.17113870  0.83652286  0.24599773  1
  Cu  Cu98  1  0.83377134  0.16313656  0.24360045  1
  Cu  Cu99  1  0.83372420  0.83267313  0.75291562  1
  Cu  Cu100  1  0.17146273  0.16504878  0.75433709  1
  Cu  Cu101  1  0.49978490  0.83673681  0.75732754  1
  Cu  Cu102  1  0.66395694  0.33305141  0.50678548  1
  Cu  Cu103  1  0.65908475  0.00147755  0.50077721  1
  Cu  Cu104  1  -0.00551136  -0.00329912  0.48969151  1
  Cu  Cu105  1  0.83521164  0.50653799  0.25337132  1
  Cu  Cu106  1  0.83837323  0.50885652  0.74615475  1
  Cu  Cu107  1  0.67769973  0.67249545  0.50097199  1
  Cu  Cu108  1  -0.00349069  0.66263385  0.49550915  1
  Cu  Cu109  1  0.00055829  0.67450477  0.00068881  1
  Cu  Cu110  1  0.49348649  0.16595731  0.24718224  1
  Cu  Cu111  1  0.00128237  0.34149039  0.50454979  1
  Cu  Cu112  1  0.16672876  0.49870587  0.75257067  1
  Cu  Cu113  1  0.33042476  0.65600573  0.49449947  1
  Cu  Cu114  1  0.00337644  -0.00089145  0.00348821  1
  Se  Se115  1  0.08264534  0.08487048  0.05747926  1
  Se  Se116  1  0.07494941  0.07409973  0.55163709  1
  Se  Se117  1  0.08361059  0.40771684  0.06374965  1
  Se  Se118  1  0.08826278  0.41837154  0.55908639  1
  Se  Se119  1  0.08805618  0.75265297  0.05419258  1
  Se  Se120  1  0.07493732  0.74010027  0.56094612  1
  Se  Se121  1  0.44328346  0.10736509  0.03629036  1
  Se  Se122  1  0.41333551  0.08364930  0.55950191  1
  Se  Se123  1  0.41948169  0.43009429  0.04315599  1
  Se  Se124  1  0.41157270  0.40640047  0.56183384  1
  Se  Se125  1  0.41236771  0.75048024  0.06243978  1
  Se  Se126  1  0.40548840  0.73659308  0.55787258  1
  Se  Se127  1  0.74864941  0.08178301  0.04425794  1
  Se  Se128  1  0.74136659  0.07945324  0.56403954  1
  Se  Se129  1  0.74249597  0.41171999  0.06263740  1
  Se  Se130  1  0.75081254  0.42021683  0.55047495  1
  Se  Se131  1  0.75222904  0.74016137  0.05270806  1
  Se  Se132  1  0.75647264  0.75823162  0.55533228  1
  Se  Se133  1  0.28266013  0.28143707  0.05736590  1
  Se  Se134  1  0.24970249  0.25102369  0.57107912  1
  Se  Se135  1  0.25299704  0.59087662  0.06268733  1
  Se  Se136  1  0.24458549  0.57516006  0.54587585  1
  Se  Se137  1  0.25344485  0.92102270  0.04912537  1
  Se  Se138  1  0.25338334  0.91582427  0.55827784  1
  Se  Se139  1  0.58660991  0.25686929  0.04963921  1
  Se  Se140  1  0.58129603  0.24821388  0.55664692  1
  Se  Se141  1  0.57831471  0.58048218  0.05094444  1
  Se  Se142  1  0.59031844  0.59724109  0.56031369  1
  Se  Se143  1  0.58529137  0.92562018  0.06603803  1
  Se  Se144  1  0.58830433  0.92551240  0.57078743  1
  Se  Se145  1  0.91543654  0.24369358  0.05508359  1
  Se  Se146  1  0.92326372  0.25481436  0.56308168  1
  Se  Se147  1  0.92668201  0.58565349  0.05946641  1
  Se  Se148  1  0.91638922  0.58185980  0.55530545  1
  Se  Se149  1  0.91926882  0.91204584  0.05352948  1
  Se  Se150  1  0.91146389  0.91386458  0.54235556  1
  Se  Se151  1  0.07148475  0.25524637  0.44092564  1
  Se  Se152  1  0.09046677  0.24443361  0.95228573  1
  Se  Se153  1  0.08546783  0.58071405  0.44625062  1
  Se  Se154  1  0.07703574  0.58733414  0.94218098  1
  Se  Se155  1  0.08108788  0.92232011  0.43149705  1
  Se  Se156  1  0.08633387  0.91499372  0.95080575  1
  Se  Se157  1  0.40753875  0.24069436  0.45390732  1
  Se  Se158  1  0.43905099  0.22468340  0.93953504  1
  Se  Se159  1  0.42047465  0.58471157  0.43705214  1
  Se  Se160  1  0.41737606  0.58765022  0.95127935  1
  Se  Se161  1  0.41167707  0.91716568  0.44219290  1
  Se  Se162  1  0.40964672  0.93132577  0.94452819  1
  Se  Se163  1  0.73884065  0.25315515  0.43955000  1
  Se  Se164  1  0.76090400  0.25783198  0.94959447  1
  Se  Se165  1  0.75386017  0.58373191  0.44730034  1
  Se  Se166  1  0.74401439  0.58335149  0.93368713  1
  Se  Se167  1  0.74517023  0.92163420  0.44809354  1
  Se  Se168  1  0.75698888  0.89895044  0.95969935  1
  Se  Se169  1  0.25229181  0.07100023  0.43931325  1
  Se  Se170  1  0.24591038  0.09711053  0.95221239  1
  Se  Se171  1  0.26172165  0.40085438  0.44912904  1
  Se  Se172  1  0.25835428  0.40583644  0.93962891  1
  Se  Se173  1  0.25612731  0.74275019  0.43584600  1
  Se  Se174  1  0.24499491  0.75165990  0.94909832  1
  Se  Se175  1  0.57215654  0.08532158  0.45360003  1
  Se  Se176  1  0.62084113  0.05349006  0.93865681  1
  Se  Se177  1  0.58737184  0.40695233  0.43740160  1
  Se  Se178  1  0.57804541  0.41634737  0.93799835  1
  Se  Se179  1  0.58810287  0.74556215  0.44220446  1
  Se  Se180  1  0.58827997  0.74298947  0.93994972  1
  Se  Se181  1  0.92269764  0.08760441  0.43247215  1
  Se  Se182  1  0.91961613  0.08324891  0.95150052  1
  Se  Se183  1  0.91423927  0.42036495  0.45099773  1
  Se  Se184  1  0.92634790  0.40951181  0.94451658  1
  Se  Se185  1  0.91774491  0.75222520  0.44385777  1
  Se  Se186  1  0.91435126  0.75193180  0.94567072  1
  Se  Se187  1  0.23603128  0.23880237  0.30753052  1
  Se  Se188  1  0.25075439  0.25245402  0.80677360  1
  Se  Se189  1  0.25464974  0.58083999  0.30281415  1
  Se  Se190  1  0.24533071  0.57641494  0.81733445  1
  Se  Se191  1  0.25648258  0.92307624  0.29539336  1
  Se  Se192  1  0.24166546  0.91864439  0.80506870  1
  Se  Se193  1  0.57468465  0.24815662  0.30459409  1
  Se  Se194  1  0.60079095  0.24821607  0.80554965  1
  Se  Se195  1  0.58692158  0.58219150  0.29651135  1
  Se  Se196  1  0.58376654  0.58568136  0.79791139  1
  Se  Se197  1  0.57351609  0.90595204  0.31171445  1
  Se  Se198  1  0.56778278  0.91730146  0.82413668  1
  Se  Se199  1  0.90754723  0.25372347  0.29870933  1
  Se  Se200  1  0.92607006  0.25372554  0.80707701  1
  Se  Se201  1  0.92114404  0.58572749  0.30767727  1
  Se  Se202  1  0.92097040  0.59088740  0.80089388  1
  Se  Se203  1  0.91800208  0.91882729  0.30027375  1
  Se  Se204  1  0.90680172  0.91842135  0.81444803  1
  Se  Se205  1  0.07880563  0.08098494  0.28935424  1
  Se  Se206  1  0.09058802  0.08633065  0.81653677  1
  Se  Se207  1  0.08207286  0.41662537  0.30709317  1
  Se  Se208  1  0.08203356  0.41545887  0.80526987  1
  Se  Se209  1  0.08950114  0.75145543  0.30050283  1
  Se  Se210  1  0.07143546  0.75086573  0.80277529  1
  Se  Se211  1  0.41137118  0.08211796  0.30165105  1
  Se  Se212  1  0.41145287  0.07888461  0.80431930  1
  Se  Se213  1  0.42394479  0.41908983  0.30766514  1
  Se  Se214  1  0.41974616  0.41435545  0.80409438  1
  Se  Se215  1  0.41657131  0.74896219  0.29744146  1
  Se  Se216  1  0.41531023  0.75618271  0.81631145  1
  Se  Se217  1  0.75273442  0.09023301  0.30922125  1
  Se  Se218  1  0.76446927  0.09259606  0.81830327  1
  Se  Se219  1  0.75404890  0.42395478  0.31280323  1
  Se  Se220  1  0.75680205  0.42092439  0.79847614  1
  Se  Se221  1  0.75266483  0.74753488  0.30171803  1
  Se  Se222  1  0.74561890  0.75288490  0.80497036  1
  Se  Se223  1  0.26211807  0.10138290  0.16527923  1
  Se  Se224  1  0.25148602  0.07953377  0.70054790  1
  Se  Se225  1  0.23764981  0.42062441  0.18709384  1
  Se  Se226  1  0.25254450  0.41557283  0.70175713  1
  Se  Se227  1  0.25431790  0.74995263  0.19536898  1
  Se  Se228  1  0.24183665  0.75345910  0.69252926  1
  Se  Se229  1  0.57582201  0.08448647  0.19004215  1
  Se  Se230  1  0.57838643  0.09139604  0.69911500  1
  Se  Se231  1  0.56675420  0.41220601  0.18116255  1
  Se  Se232  1  0.58961060  0.41557944  0.69293555  1
  Se  Se233  1  0.58656884  0.74620553  0.19497078  1
  Se  Se234  1  0.58538997  0.75465725  0.70619738  1
  Se  Se235  1  0.91469943  0.07598776  0.19335609  1
  Se  Se236  1  0.91217890  0.08747714  0.69270810  1
  Se  Se237  1  0.91195273  0.41839408  0.19899323  1
  Se  Se238  1  0.92115258  0.41983414  0.69595662  1
  Se  Se239  1  0.92351816  0.74778736  0.19551301  1
  Se  Se240  1  0.91662579  0.75425024  0.69542933  1
  Se  Se241  1  0.06748056  0.26151958  0.19731585  1
  Se  Se242  1  0.08166335  0.24728153  0.70550353  1
  Se  Se243  1  0.08038522  0.58677941  0.20125694  1
  Se  Se244  1  0.08656339  0.58421036  0.69827937  1
  Se  Se245  1  0.08627904  0.91903068  0.19335353  1
  Se  Se246  1  0.08981123  0.90774308  0.68685671  1
  Se  Se247  1  0.41085169  0.23882986  0.18619400  1
  Se  Se248  1  0.41745561  0.25273876  0.70578645  1
  Se  Se249  1  0.41301699  0.58241316  0.19487901  1
  Se  Se250  1  0.42178869  0.57334110  0.68763619  1
  Se  Se251  1  0.41764698  0.92231895  0.19362452  1
  Se  Se252  1  0.41186616  0.91672275  0.70595715  1
  Se  Se253  1  0.74664947  0.23828276  0.18609942  1
  Se  Se254  1  0.75795307  0.25399246  0.69908455  1
  Se  Se255  1  0.74993574  0.58221574  0.19600631  1
  Se  Se256  1  0.75051815  0.59062321  0.69452559  1
  Se  Se257  1  0.75825511  0.91015278  0.18641495  1
  Se  Se258  1  0.75319136  0.92158134  0.69812169  1
