# generated using pymatgen
data_In86Cu29Se144
_symmetry_space_group_name_H-M   'P 1'
_cell_length_a   17.57701650
_cell_length_b   17.58017765
_cell_length_c   23.44269562
_cell_angle_alpha   89.99885491
_cell_angle_beta   89.99537776
_cell_angle_gamma   90.01660685
_symmetry_Int_Tables_number   1
_chemical_formula_structural   In86Cu29Se144
_chemical_formula_sum   'In86 Cu29 Se144'
_cell_volume   7243.95841881
_cell_formula_units_Z   1
loop_
 _symmetry_equiv_pos_site_id
 _symmetry_equiv_pos_as_xyz
  1  'x, y, z'
loop_
 _atom_site_type_symbol
 _atom_site_label
 _atom_site_symmetry_multiplicity
 _atom_site_fract_x
 _atom_site_fract_y
 _atom_site_fract_z
 _atom_site_occupancy
  In  In0  1  -0.01071132  0.16476737  0.13117402  1
  In  In1  1  -0.00157528  0.17386734  0.62576072  1
  In  In2  1  0.00323263  0.51156453  0.12626794  1
  In  In3  1  -0.01503847  0.48664600  0.61480137  1
  In  In4  1  -0.00359634  0.83214140  0.11924316  1
  In  In5  1  0.01141826  0.83843823  0.62851081  1
  In  In6  1  0.32533360  0.17101275  0.13692488  1
  In  In7  1  0.32709309  0.16103270  0.61663694  1
  In  In8  1  0.34302573  0.48293149  0.13172040  1
  In  In9  1  0.32867072  0.49000305  0.61432777  1
  In  In10  1  0.33309541  0.84859840  0.12467234  1
  In  In11  1  0.33917174  0.84743256  0.62661608  1
  In  In12  1  0.65692852  0.17790765  0.13812248  1
  In  In13  1  0.67569368  0.17799335  0.61512487  1
  In  In14  1  0.66970673  0.49545501  0.12253615  1
  In  In15  1  0.66662100  0.49650105  0.62323033  1
  In  In16  1  0.68030951  0.82348880  0.13028707  1
  In  In17  1  0.66065094  0.82876374  0.63129781  1
  In  In18  1  0.18129612  0.02843276  0.35302180  1
  In  In19  1  0.15573523  -0.00301896  0.86793599  1
  In  In20  1  0.18186568  0.31936353  0.37979817  1
  In  In21  1  0.16241094  0.33774081  0.86923417  1
  In  In22  1  0.15239699  0.66663629  0.37123312  1
  In  In23  1  0.17712190  0.67106540  0.88119626  1
  In  In24  1  0.50817434  0.00601928  0.37305941  1
  In  In25  1  0.49348186  0.01088769  0.87311517  1
  In  In26  1  0.49904239  0.33367453  0.37201989  1
  In  In27  1  0.51114439  0.32900638  0.87229658  1
  In  In28  1  0.50583910  0.65027883  0.37103503  1
  In  In29  1  0.50263119  0.64709843  0.87911844  1
  In  In30  1  0.84378694  0.00738817  0.37257363  1
  In  In31  1  0.83922778  -0.01543077  0.87609513  1
  In  In32  1  0.82079033  0.34439357  0.37994710  1
  In  In33  1  0.84035421  0.34515826  0.87172522  1
  In  In34  1  0.82142134  0.65260102  0.36399208  1
  In  In35  1  0.82129389  0.67587823  0.87745404  1
  In  In36  1  0.00679585  0.16119825  0.38195220  1
  In  In37  1  0.00710697  0.17002287  0.86299797  1
  In  In38  1  -0.00951551  0.50227516  0.37733130  1
  In  In39  1  -0.01226624  0.47964670  0.87272814  1
  In  In40  1  0.00360791  0.83734226  0.36848254  1
  In  In41  1  -0.01254631  0.84622971  0.87991118  1
  In  In42  1  0.33424996  0.17350761  0.37369348  1
  In  In43  1  0.34601073  0.16276092  0.86536162  1
  In  In44  1  0.35212463  0.47927745  0.38276940  1
  In  In45  1  0.33105075  0.50767039  0.87889971  1
  In  In46  1  0.31896677  0.84101182  0.37177340  1
  In  In47  1  0.32202810  0.83591742  0.88445928  1
  In  In48  1  0.66602020  0.16982828  0.37913944  1
  In  In49  1  0.65599541  0.17736191  0.86787455  1
  In  In50  1  0.66226477  0.49911644  0.36935666  1
  In  In51  1  0.66870027  0.49939787  0.87270718  1
  In  In52  1  0.66923851  0.83007164  0.36581846  1
  In  In53  1  0.69054017  0.82851305  0.87767186  1
  In  In54  1  0.17345802  -0.00403376  0.12981234  1
  In  In55  1  0.14615606  0.03288950  0.64876643  1
  In  In56  1  0.17100539  0.33873544  0.13099412  1
  In  In57  1  0.15067222  0.31790594  0.61459273  1
  In  In58  1  0.14963076  0.66494409  0.12572968  1
  In  In59  1  0.17363274  0.66296415  0.62253134  1
  In  In60  1  0.49391499  0.01260316  0.13764145  1
  In  In61  1  0.48641994  0.00665711  0.62890157  1
  In  In62  1  0.49066963  0.34960432  0.13804196  1
  In  In63  1  0.50754295  0.34215337  0.61692291  1
  In  In64  1  0.52018042  0.65529927  0.13260124  1
  In  In65  1  0.51415724  0.66188158  0.62482479  1
  In  In66  1  0.84200619  -0.00917784  0.13094628  1
  In  In67  1  0.82810779  0.01520568  0.62394217  1
  In  In68  1  0.82238078  0.33165182  0.12352663  1
  In  In69  1  0.83193315  0.33237492  0.62402935  1
  In  In70  1  0.83446708  0.66584569  0.12113712  1
  In  In71  1  0.83774724  0.65256785  0.62548664  1
  In  In72  1  0.49852460  0.17390898  -0.00499570  1
  In  In73  1  0.83594600  0.83199722  0.50021827  1
  In  In74  1  0.00463598  0.32735570  0.25490070  1
  In  In75  1  0.16284672  0.50375748  0.00156456  1
  In  In76  1  0.33455195  0.66672534  0.25283074  1
  In  In77  1  0.49817319  0.83250982  0.50469425  1
  In  In78  1  0.16744883  0.17082480  0.00030588  1
  In  In79  1  0.83420949  0.16543934  0.00508851  1
  In  In80  1  0.33781349  0.66915072  0.75372994  1
  In  In81  1  0.66935899  0.00007732  0.75072350  1
  In  In82  1  0.50695457  0.82797961  0.01230977  1
  In  In83  1  0.33146933  0.32809270  0.74471898  1
  In  In84  1  0.16516692  0.83885359  0.50020292  1
  In  In85  1  -0.00566212  0.67239595  0.75315517  1
  Cu  Cu86  1  0.00655371  0.00884488  0.49940600  1
  Cu  Cu87  1  0.17036351  0.84402343  0.75693849  1
  Cu  Cu88  1  0.83352095  0.50205414  0.24855611  1
  Cu  Cu89  1  0.17188175  0.49809858  0.25246188  1
  Cu  Cu90  1  0.67198231  -0.00247267  0.00636223  1
  Cu  Cu91  1  0.50411056  0.49712878  0.74814541  1
  Cu  Cu92  1  0.33581178  0.66341248  0.00492711  1
  Cu  Cu93  1  0.32730749  0.00131897  0.00218489  1
  Cu  Cu94  1  0.83463989  0.16904675  0.74614015  1
  Cu  Cu95  1  0.50562566  0.83097903  0.75392207  1
  Cu  Cu96  1  0.82304581  0.49529976  0.74675860  1
  Cu  Cu97  1  0.83622899  0.83024930  0.24697616  1
  Cu  Cu98  1  0.67073389  0.66057531  0.00261974  1
  Cu  Cu99  1  0.66585210  0.00710990  0.49757110  1
  Cu  Cu100  1  0.33259133  0.65491996  0.49882450  1
  Cu  Cu101  1  0.66602331  0.33649369  0.49723868  1
  Cu  Cu102  1  0.32650858  0.00778185  0.49881287  1
  Cu  Cu103  1  0.33744617  0.33122084  0.49848371  1
  Cu  Cu104  1  -0.00094742  0.33231749  0.49824018  1
  Cu  Cu105  1  0.00245819  -0.00402543  -0.00162934  1
  Cu  Cu106  1  0.49893609  0.83768244  0.24679647  1
  Cu  Cu107  1  0.15750191  0.83558008  0.24566849  1
  Cu  Cu108  1  0.15187398  0.49624162  0.74417412  1
  Cu  Cu109  1  0.66736880  0.34170835  -0.00244983  1
  Cu  Cu110  1  -0.00657449  0.65817466  0.49406482  1
  Cu  Cu111  1  0.50215405  0.16623963  0.25818733  1
  Cu  Cu112  1  0.82702540  0.16501550  0.25488605  1
  Cu  Cu113  1  0.66790846  0.65498255  0.49669800  1
  Cu  Cu114  1  -0.00369077  0.66709379  -0.00061048  1
  Se  Se115  1  0.07590147  0.08011898  0.05969982  1
  Se  Se116  1  0.08649596  0.08953462  0.55783592  1
  Se  Se117  1  0.07685141  0.40927703  0.06077989  1
  Se  Se118  1  0.08369005  0.41845025  0.54996827  1
  Se  Se119  1  0.08267565  0.74914126  0.05055472  1
  Se  Se120  1  0.07281364  0.73965402  0.55454955  1
  Se  Se121  1  0.40852612  0.08420912  0.05885424  1
  Se  Se122  1  0.41984803  0.08375321  0.54922320  1
  Se  Se123  1  0.42268982  0.41705713  0.05481959  1
  Se  Se124  1  0.42109717  0.41969504  0.54700642  1
  Se  Se125  1  0.41339525  0.73881853  0.07045480  1
  Se  Se126  1  0.40563723  0.73854777  0.56278083  1
  Se  Se127  1  0.74181322  0.08350055  0.06893576  1
  Se  Se128  1  0.75445443  0.08867123  0.54703864  1
  Se  Se129  1  0.75631937  0.41937118  0.04971133  1
  Se  Se130  1  0.75086458  0.41625122  0.55385389  1
  Se  Se131  1  0.75227182  0.75070852  0.05086219  1
  Se  Se132  1  0.74129945  0.74182964  0.55783275  1
  Se  Se133  1  0.25982179  0.26030668  0.05856202  1
  Se  Se134  1  0.24959463  0.24939030  0.54954999  1
  Se  Se135  1  0.25569842  0.58455861  0.06781463  1
  Se  Se136  1  0.24324947  0.57717943  0.55044193  1
  Se  Se137  1  0.24408054  0.91549557  0.05175597  1
  Se  Se138  1  0.24920708  0.92970267  0.56244810  1
  Se  Se139  1  0.58913163  0.25867352  0.05737383  1
  Se  Se140  1  0.58213983  0.25106704  0.54850345  1
  Se  Se141  1  0.58441217  0.57799759  0.05233821  1
  Se  Se142  1  0.58121938  0.57645779  0.55120847  1
  Se  Se143  1  0.58786855  0.92732136  0.06979804  1
  Se  Se144  1  0.59051805  0.92610142  0.56107468  1
  Se  Se145  1  0.92676025  0.25988528  0.05835727  1
  Se  Se146  1  0.91503790  0.25054863  0.55374566  1
  Se  Se147  1  0.91765812  0.58029589  0.05253138  1
  Se  Se148  1  0.90813413  0.57768091  0.54731507  1
  Se  Se149  1  0.91281998  0.91749902  0.05081900  1
  Se  Se150  1  0.92742016  0.92443196  0.55806514  1
  Se  Se151  1  0.08588040  0.24984124  0.44755646  1
  Se  Se152  1  0.07442626  0.25874069  0.94154519  1
  Se  Se153  1  0.08379495  0.57966928  0.44399145  1
  Se  Se154  1  0.07300945  0.58727591  0.93478234  1
  Se  Se155  1  0.08260616  0.92892718  0.43638291  1
  Se  Se156  1  0.08777282  0.91461252  0.94489963  1
  Se  Se157  1  0.42081078  0.24905031  0.44428859  1
  Se  Se158  1  0.40435713  0.26220952  0.93808411  1
  Se  Se159  1  0.42248242  0.58074912  0.44564309  1
  Se  Se160  1  0.41614496  0.57830880  0.95255401  1
  Se  Se161  1  0.40655557  0.92054539  0.44327557  1
  Se  Se162  1  0.41945349  0.92200903  0.94950876  1
  Se  Se163  1  0.75164076  0.25018368  0.44840460  1
  Se  Se164  1  0.74380552  0.25174383  0.94093599  1
  Se  Se165  1  0.75146356  0.57535110  0.44184608  1
  Se  Se166  1  0.75155151  0.58018696  0.94377472  1
  Se  Se167  1  0.74335359  0.92001262  0.44096666  1
  Se  Se168  1  0.75510769  0.91661995  0.95250169  1
  Se  Se169  1  0.24604758  0.08817155  0.44096821  1
  Se  Se170  1  0.25613418  0.08198072  0.93743092  1
  Se  Se171  1  0.25056230  0.41544866  0.44762208  1
  Se  Se172  1  0.25219576  0.41063711  0.94256879  1
  Se  Se173  1  0.25463122  0.74163059  0.44269811  1
  Se  Se174  1  0.25106700  0.74939513  0.95692554  1
  Se  Se175  1  0.57827091  0.08852461  0.44815108  1
  Se  Se176  1  0.59489701  0.07648286  0.94372418  1
  Se  Se177  1  0.58299911  0.41736912  0.44130291  1
  Se  Se178  1  0.58093022  0.41903435  0.94207291  1
  Se  Se179  1  0.58942853  0.74593069  0.44269188  1
  Se  Se180  1  0.58960742  0.74376353  0.94233398  1
  Se  Se181  1  0.91398294  0.08663333  0.45003322  1
  Se  Se182  1  0.92535220  0.08167570  0.93946104  1
  Se  Se183  1  0.91423421  0.41696272  0.44745248  1
  Se  Se184  1  0.91062635  0.41666984  0.95239077  1
  Se  Se185  1  0.91827348  0.74281290  0.43424568  1
  Se  Se186  1  0.91463555  0.75029196  0.94390303  1
  Se  Se187  1  0.24792103  0.24505316  0.30066126  1
  Se  Se188  1  0.24118390  0.24006838  0.80607455  1
  Se  Se189  1  0.25023519  0.57679662  0.31626635  1
  Se  Se190  1  0.23618760  0.57462096  0.80316300  1
  Se  Se191  1  0.24551396  0.91750567  0.29641750  1
  Se  Se192  1  0.25956778  0.92174610  0.80899565  1
  Se  Se193  1  0.58835168  0.25145143  0.30626417  1
  Se  Se194  1  0.57020826  0.24411482  0.79551335  1
  Se  Se195  1  0.59713273  0.59386131  0.29851418  1
  Se  Se196  1  0.58479674  0.58281175  0.80204088  1
  Se  Se197  1  0.58316992  0.91719828  0.30412521  1
  Se  Se198  1  0.58317851  0.91032065  0.81745587  1
  Se  Se199  1  0.90787559  0.24663830  0.31577412  1
  Se  Se200  1  0.91357760  0.25274926  0.80383781  1
  Se  Se201  1  0.92149775  0.58328108  0.29964847  1
  Se  Se202  1  0.90550481  0.57527057  0.80792657  1
  Se  Se203  1  0.91416263  0.91563158  0.30311325  1
  Se  Se204  1  0.91933892  0.91828096  0.79955441  1
  Se  Se205  1  0.06147962  0.07579794  0.30208769  1
  Se  Se206  1  0.08689472  0.08495383  0.79754352  1
  Se  Se207  1  0.09186007  0.41922132  0.31516169  1
  Se  Se208  1  0.07440467  0.41100356  0.79901449  1
  Se  Se209  1  0.07861551  0.74881049  0.29858502  1
  Se  Se210  1  0.09229739  0.75652777  0.81309794  1
  Se  Se211  1  0.41592426  0.08180396  0.30780928  1
  Se  Se212  1  0.43039403  0.08969146  0.79520750  1
  Se  Se213  1  0.41957076  0.41521957  0.29993962  1
  Se  Se214  1  0.41555134  0.42486870  0.80738411  1
  Se  Se215  1  0.42347635  0.75988426  0.31373231  1
  Se  Se216  1  0.42455554  0.75636813  0.81925880  1
  Se  Se217  1  0.74608834  0.08126321  0.31021454  1
  Se  Se218  1  0.75929764  0.09025802  0.81325407  1
  Se  Se219  1  0.74984920  0.41758989  0.30049302  1
  Se  Se220  1  0.74387632  0.41016602  0.80272003  1
  Se  Se221  1  0.74973571  0.74664920  0.29774930  1
  Se  Se222  1  0.75212094  0.75062498  0.79806008  1
  Se  Se223  1  0.24867605  0.08019484  0.19963535  1
  Se  Se224  1  0.27233177  0.07149242  0.69468708  1
  Se  Se225  1  0.25494568  0.41202812  0.20353939  1
  Se  Se226  1  0.23786377  0.41908492  0.68696111  1
  Se  Se227  1  0.24404683  0.75439302  0.18933505  1
  Se  Se228  1  0.24418636  0.76063045  0.69378595  1
  Se  Se229  1  0.58741531  0.08252434  0.20493872  1
  Se  Se230  1  0.58788628  0.08838459  0.68513255  1
  Se  Se231  1  0.60535870  0.40113597  0.19305291  1
  Se  Se232  1  0.58576213  0.41363868  0.69465229  1
  Se  Se233  1  0.58501557  0.75357010  0.19812894  1
  Se  Se234  1  0.58311536  0.74424976  0.70118167  1
  Se  Se235  1  0.91180956  0.08309446  0.20145779  1
  Se  Se236  1  0.91693705  0.08442467  0.69428514  1
  Se  Se237  1  0.91595287  0.41768894  0.19144832  1
  Se  Se238  1  0.91372446  0.41612274  0.69541539  1
  Se  Se239  1  0.91814078  0.74800186  0.19064560  1
  Se  Se240  1  0.90909050  0.75900121  0.68734197  1
  Se  Se241  1  0.09290901  0.23819173  0.19326007  1
  Se  Se242  1  0.08592920  0.24803976  0.69661138  1
  Se  Se243  1  0.08496292  0.58097640  0.20287519  1
  Se  Se244  1  0.07788173  0.58263036  0.68596600  1
  Se  Se245  1  0.07604292  0.91746026  0.18973294  1
  Se  Se246  1  0.08198153  0.92003652  0.70280316  1
  Se  Se247  1  0.42197258  0.24625815  0.19850950  1
  Se  Se248  1  0.42150592  0.24794821  0.68034422  1
  Se  Se249  1  0.42697312  0.57444622  0.19857724  1
  Se  Se250  1  0.41691430  0.57437039  0.68922797  1
  Se  Se251  1  0.41125759  0.92157563  0.20013727  1
  Se  Se252  1  0.42250212  0.91448437  0.70207565  1
  Se  Se253  1  0.75185697  0.25451093  0.20143244  1
  Se  Se254  1  0.74851546  0.25073993  0.69482330  1
  Se  Se255  1  0.75204993  0.58296948  0.19023461  1
  Se  Se256  1  0.74557083  0.58358448  0.69387589  1
  Se  Se257  1  0.74981695  0.91735583  0.19855283  1
  Se  Se258  1  0.75934428  0.91091651  0.69002577  1
