# generated using pymatgen
data_In86Cu29Se144
_symmetry_space_group_name_H-M   'P 1'
_cell_length_a   17.59296278
_cell_length_b   17.59215409
_cell_length_c   23.44486044
_cell_angle_alpha   90.01663029
_cell_angle_beta   89.98334213
_cell_angle_gamma   90.02088532
_symmetry_Int_Tables_number   1
_chemical_formula_structural   In86Cu29Se144
_chemical_formula_sum   'In86 Cu29 Se144'
_cell_volume   7256.13895020
_cell_formula_units_Z   1
loop_
 _symmetry_equiv_pos_site_id
 _symmetry_equiv_pos_as_xyz
  1  'x, y, z'
loop_
 _atom_site_type_symbol
 _atom_site_label
 _atom_site_symmetry_multiplicity
 _atom_site_fract_x
 _atom_site_fract_y
 _atom_site_fract_z
 _atom_site_occupancy
  In  In0  1  -0.01508172  0.16403472  0.12787230  1
  In  In1  1  0.01267093  0.16261114  0.63360071  1
  In  In2  1  -0.00047836  0.51358181  0.12635266  1
  In  In3  1  0.03014420  0.47478606  0.65368581  1
  In  In4  1  -0.01586237  0.83925441  0.13214237  1
  In  In5  1  0.00321798  0.82689896  0.63059916  1
  In  In6  1  0.35177438  0.16439452  0.12877684  1
  In  In7  1  0.34251211  0.17232396  0.62103749  1
  In  In8  1  0.32220961  0.49238509  0.12733646  1
  In  In9  1  0.34024292  0.49978860  0.63140642  1
  In  In10  1  0.34040229  0.82466724  0.11861321  1
  In  In11  1  0.34560904  0.81837878  0.62892596  1
  In  In12  1  0.65255230  0.18175911  0.14499833  1
  In  In13  1  0.65615467  0.17916658  0.63050645  1
  In  In14  1  0.67275964  0.49303883  0.12620165  1
  In  In15  1  0.64234203  0.51706102  0.64701442  1
  In  In16  1  0.65043114  0.84226946  0.13630418  1
  In  In17  1  0.65547941  0.84077529  0.63679046  1
  In  In18  1  0.17743661  0.01151312  0.37809622  1
  In  In19  1  0.16156621  0.01544556  0.86910473  1
  In  In20  1  0.17448149  0.32763954  0.38910185  1
  In  In21  1  0.17659105  0.34805701  0.84594089  1
  In  In22  1  0.15543987  0.66451319  0.38143932  1
  In  In23  1  0.16906102  0.66061335  0.85777462  1
  In  In24  1  0.50638185  -0.00522678  0.37884848  1
  In  In25  1  0.51336323  -0.00523122  0.88042075  1
  In  In26  1  0.50076929  0.33446575  0.37556578  1
  In  In27  1  0.49429056  0.32793955  0.86540516  1
  In  In28  1  0.50114180  0.66373593  0.37911697  1
  In  In29  1  0.51795226  0.67550608  0.84436960  1
  In  In30  1  0.82330294  -0.00142169  0.36195021  1
  In  In31  1  0.83586297  0.00572983  0.86976502  1
  In  In32  1  0.82481466  0.33910195  0.37535009  1
  In  In33  1  0.84125392  0.34095842  0.87369971  1
  In  In34  1  0.83646048  0.66776810  0.37188277  1
  In  In35  1  0.82155766  0.66001855  0.87200529  1
  In  In36  1  0.01186559  0.16685456  0.37843176  1
  In  In37  1  0.01466125  0.17530045  0.85741929  1
  In  In38  1  -0.00103079  0.50771397  0.38407818  1
  In  In39  1  -0.00561818  0.49627080  0.86777889  1
  In  In40  1  -0.00496585  0.82548756  0.37426154  1
  In  In41  1  0.00310043  0.83874494  0.87024576  1
  In  In42  1  0.32357588  0.17563501  0.38443690  1
  In  In43  1  0.34162520  0.18784569  0.86724796  1
  In  In44  1  0.34414151  0.49053411  0.38752479  1
  In  In45  1  0.34396901  0.50428154  0.84511743  1
  In  In46  1  0.34301263  0.84190249  0.37882603  1
  In  In47  1  0.36129968  0.83178888  0.86587068  1
  In  In48  1  0.64465744  0.15078349  0.35498416  1
  In  In49  1  0.66295563  0.15469821  0.87120662  1
  In  In50  1  0.65850008  0.49063509  0.36857351  1
  In  In51  1  0.67033951  0.50964996  0.86808901  1
  In  In52  1  0.65550611  0.82783485  0.36334090  1
  In  In53  1  0.65336019  0.83002251  0.86777501  1
  In  In54  1  0.15366562  -0.00602742  0.12722309  1
  In  In55  1  0.15835575  -0.00222727  0.62333447  1
  In  In56  1  0.17579344  0.34260047  0.12710006  1
  In  In57  1  0.17435053  0.33220858  0.62919742  1
  In  In58  1  0.16141362  0.65014910  0.12576400  1
  In  In59  1  0.19179583  0.63452001  0.65513775  1
  In  In60  1  0.50696364  0.00325025  0.12168420  1
  In  In61  1  0.50320696  0.00407268  0.62264108  1
  In  In62  1  0.50319983  0.32637523  0.13632224  1
  In  In63  1  0.49953189  0.33446226  0.62889197  1
  In  In64  1  0.50260765  0.68043427  0.12103186  1
  In  In65  1  0.50296309  0.66825214  0.62568687  1
  In  In66  1  0.82550931  0.01735686  0.14424582  1
  In  In67  1  0.83532660  -0.00422580  0.62712328  1
  In  In68  1  0.81437326  0.33301702  0.12252630  1
  In  In69  1  0.82789383  0.33856885  0.62899191  1
  In  In70  1  0.83151630  0.66452835  0.12461587  1
  In  In71  1  0.83180536  0.66202793  0.62827039  1
  In  In72  1  0.82702579  0.83474704  0.00416514  1
  In  In73  1  0.33360833  0.00052725  0.25048373  1
  In  In74  1  0.49655269  0.50030487  -0.01110248  1
  In  In75  1  0.82731558  0.49760747  0.50187181  1
  In  In76  1  0.17540504  0.83114686  0.50378691  1
  In  In77  1  0.82832435  0.16957518  0.49447278  1
  In  In78  1  0.33366371  -0.00346440  0.74187992  1
  In  In79  1  -0.00455159  0.33056868  0.25456843  1
  In  In80  1  0.17206255  0.17625174  -0.01432055  1
  In  In81  1  0.82837981  0.83073184  0.49382083  1
  In  In82  1  0.17382110  0.49809570  -0.01534564  1
  In  In83  1  0.17389618  0.82925052  0.00222924  1
  In  In84  1  0.82792733  0.16528948  0.00292769  1
  In  In85  1  0.33463433  0.66406162  0.25361986  1
  Cu  Cu86  1  0.65072311  0.33666691  0.50183991  1
  Cu  Cu87  1  0.16599492  0.49707993  0.25379418  1
  Cu  Cu88  1  0.83270663  0.50336268  0.75236673  1
  Cu  Cu89  1  0.33872806  0.66058593  0.50945613  1
  Cu  Cu90  1  0.34011551  0.67031477  -0.01164439  1
  Cu  Cu91  1  0.66178606  -0.00190066  0.00144530  1
  Cu  Cu92  1  0.34222880  0.33139470  -0.00648972  1
  Cu  Cu93  1  -0.00746639  0.66715795  0.00202932  1
  Cu  Cu94  1  0.66088238  0.00472512  0.50078484  1
  Cu  Cu95  1  0.34255048  0.00566303  0.50095525  1
  Cu  Cu96  1  0.83289819  0.50465971  0.25083281  1
  Cu  Cu97  1  0.01036031  0.65265847  0.51268757  1
  Cu  Cu98  1  0.15689517  0.82475368  0.25046953  1
  Cu  Cu99  1  0.65919613  0.66821795  -0.00762850  1
  Cu  Cu100  1  0.16381447  0.16743315  0.25618101  1
  Cu  Cu101  1  0.33536518  0.33978500  0.50664632  1
  Cu  Cu102  1  0.50075890  0.16348168  0.74790627  1
  Cu  Cu103  1  0.00828069  0.33023193  0.51275938  1
  Cu  Cu104  1  -0.00174171  0.00715870  0.00004015  1
  Cu  Cu105  1  0.83644968  0.16640844  0.74667271  1
  Cu  Cu106  1  0.66005125  0.66678448  0.50190137  1
  Cu  Cu107  1  0.16115135  0.83981026  0.75032959  1
  Cu  Cu108  1  0.66234767  0.33171363  0.00348373  1
  Cu  Cu109  1  0.83055060  0.83670496  0.75197530  1
  Cu  Cu110  1  0.00466395  0.00112174  0.49826067  1
  Cu  Cu111  1  0.34743110  0.00307093  -0.00208834  1
  Cu  Cu112  1  0.83574729  0.82416501  0.25025713  1
  Cu  Cu113  1  0.49960689  0.49994174  0.25374477  1
  Cu  Cu114  1  -0.00010144  0.34303164  -0.00796724  1
  Se  Se115  1  0.08281294  0.09030902  0.05436938  1
  Se  Se116  1  0.08310310  0.08465143  0.55339219  1
  Se  Se117  1  0.08327856  0.41737519  0.05528242  1
  Se  Se118  1  0.08856790  0.41918955  0.56146204  1
  Se  Se119  1  0.07533053  0.74515542  0.06233665  1
  Se  Se120  1  0.09005716  0.74138858  0.56468003  1
  Se  Se121  1  0.42557389  0.08872713  0.05261191  1
  Se  Se122  1  0.42595623  0.08967977  0.55288346  1
  Se  Se123  1  0.41290143  0.41435312  0.05820493  1
  Se  Se124  1  0.42117329  0.42057358  0.55908107  1
  Se  Se125  1  0.42133976  0.75125037  0.04445189  1
  Se  Se126  1  0.42434714  0.75065799  0.55122972  1
  Se  Se127  1  0.73864422  0.07759451  0.06369421  1
  Se  Se128  1  0.74422123  0.08057893  0.56034780  1
  Se  Se129  1  0.74917294  0.41911705  0.04786289  1
  Se  Se130  1  0.73345404  0.41426847  0.56168292  1
  Se  Se131  1  0.73322944  0.74517650  0.05929666  1
  Se  Se132  1  0.74244944  0.74684446  0.55970279  1
  Se  Se133  1  0.25902782  0.25696825  0.05615939  1
  Se  Se134  1  0.25272153  0.25150603  0.55514890  1
  Se  Se135  1  0.26122828  0.59106115  0.05044473  1
  Se  Se136  1  0.25110391  0.58229399  0.56237705  1
  Se  Se137  1  0.26057568  0.93055442  0.05894300  1
  Se  Se138  1  0.26618450  0.92213500  0.56346810  1
  Se  Se139  1  0.58371373  0.25133486  0.06168373  1
  Se  Se140  1  0.57359965  0.24712512  0.55428505  1
  Se  Se141  1  0.58476070  0.58435243  0.05559323  1
  Se  Se142  1  0.58365390  0.57932859  0.55700982  1
  Se  Se143  1  0.58055340  0.91039302  0.05316796  1
  Se  Se144  1  0.58592584  0.91579799  0.55618748  1
  Se  Se145  1  0.92420694  0.26256191  0.05529800  1
  Se  Se146  1  0.91751827  0.25040368  0.56252124  1
  Se  Se147  1  0.91220524  0.58127708  0.05345467  1
  Se  Se148  1  0.92152945  0.57489274  0.56561668  1
  Se  Se149  1  0.91420486  0.93427288  0.06032013  1
  Se  Se150  1  0.92494070  0.91656937  0.55386570  1
  Se  Se151  1  0.08452892  0.24575673  0.45362401  1
  Se  Se152  1  0.08319126  0.27225634  0.93036791  1
  Se  Se153  1  0.09206152  0.57358789  0.45501145  1
  Se  Se154  1  0.07796235  0.59564925  0.93840983  1
  Se  Se155  1  0.08221198  0.91633679  0.43982825  1
  Se  Se156  1  0.08298642  0.92594290  0.94556522  1
  Se  Se157  1  0.41391346  0.25805355  0.44708219  1
  Se  Se158  1  0.42773064  0.24717491  0.94530679  1
  Se  Se159  1  0.42226906  0.58278954  0.45105622  1
  Se  Se160  1  0.41137790  0.58800474  0.92538071  1
  Se  Se161  1  0.42337609  0.91660320  0.45154450  1
  Se  Se162  1  0.42302988  0.91231461  0.94571462  1
  Se  Se163  1  0.73322795  0.25923127  0.44121062  1
  Se  Se164  1  0.74351386  0.25550464  0.93955639  1
  Se  Se165  1  0.74292386  0.59027318  0.44020788  1
  Se  Se166  1  0.74635173  0.58218737  0.94744291  1
  Se  Se167  1  0.73880468  0.92467591  0.43884466  1
  Se  Se168  1  0.74339919  0.92412034  0.93909480  1
  Se  Se169  1  0.24937199  0.08594553  0.45537868  1
  Se  Se170  1  0.26588843  0.07811505  0.93631137  1
  Se  Se171  1  0.24787289  0.42190637  0.45432950  1
  Se  Se172  1  0.26858297  0.41093718  0.92788049  1
  Se  Se173  1  0.26433373  0.73903021  0.44156036  1
  Se  Se174  1  0.25356471  0.74674712  0.93061552  1
  Se  Se175  1  0.58309065  0.08996000  0.44421884  1
  Se  Se176  1  0.58300965  0.08778150  0.95021479  1
  Se  Se177  1  0.57601728  0.42518857  0.44626461  1
  Se  Se178  1  0.58962360  0.40780080  0.93576961  1
  Se  Se179  1  0.58524435  0.75291172  0.44364523  1
  Se  Se180  1  0.57412648  0.74211383  0.93469224  1
  Se  Se181  1  0.91735996  0.07216147  0.43796019  1
  Se  Se182  1  0.92714743  0.09109207  0.93737784  1
  Se  Se183  1  0.92495691  0.40267367  0.44789043  1
  Se  Se184  1  0.91356103  0.42837745  0.94602195  1
  Se  Se185  1  0.92956022  0.73167787  0.45104455  1
  Se  Se186  1  0.91923621  0.75123745  0.94113902  1
  Se  Se187  1  0.24487943  0.25246602  0.30902147  1
  Se  Se188  1  0.22588683  0.22139141  0.80626910  1
  Se  Se189  1  0.24580053  0.57682260  0.31615096  1
  Se  Se190  1  0.23382204  0.56728648  0.78929339  1
  Se  Se191  1  0.24035513  0.90527826  0.30856479  1
  Se  Se192  1  0.24726294  0.91188227  0.81335360  1
  Se  Se193  1  0.59298241  0.26875843  0.30365810  1
  Se  Se194  1  0.58559605  0.24393678  0.80370142  1
  Se  Se195  1  0.58092137  0.58561704  0.30550215  1
  Se  Se196  1  0.56906991  0.55613245  0.79552843  1
  Se  Se197  1  0.58915364  0.93009490  0.30172193  1
  Se  Se198  1  0.58446418  0.92424118  0.80089474  1
  Se  Se199  1  0.90898460  0.24052621  0.31514133  1
  Se  Se200  1  0.91413637  0.25306155  0.80235304  1
  Se  Se201  1  0.91940758  0.57915289  0.30775966  1
  Se  Se202  1  0.91535536  0.59006678  0.80478003  1
  Se  Se203  1  0.91479449  0.90893441  0.30586199  1
  Se  Se204  1  0.91707225  0.91916180  0.80393433  1
  Se  Se205  1  0.08534309  0.07891492  0.30743090  1
  Se  Se206  1  0.07558585  0.07330053  0.79326132  1
  Se  Se207  1  0.08552197  0.41831018  0.31636271  1
  Se  Se208  1  0.08093961  0.43118546  0.79288631  1
  Se  Se209  1  0.07877808  0.74194415  0.30682560  1
  Se  Se210  1  0.07994847  0.75224215  0.80188527  1
  Se  Se211  1  0.41256789  0.08790236  0.31776429  1
  Se  Se212  1  0.42070001  0.08309871  0.80918869  1
  Se  Se213  1  0.41451868  0.41877592  0.30684540  1
  Se  Se214  1  0.41278884  0.39934805  0.79059363  1
  Se  Se215  1  0.42404259  0.75942122  0.30682206  1
  Se  Se216  1  0.39786490  0.72822044  0.79340841  1
  Se  Se217  1  0.75320215  0.09051307  0.29636050  1
  Se  Se218  1  0.75178506  0.08303952  0.80019039  1
  Se  Se219  1  0.75043564  0.41676184  0.30023245  1
  Se  Se220  1  0.75217833  0.41764542  0.80608643  1
  Se  Se221  1  0.75005335  0.74501139  0.30419451  1
  Se  Se222  1  0.74846326  0.75273775  0.80582186  1
  Se  Se223  1  0.23957621  0.08955974  0.18909136  1
  Se  Se224  1  0.24482345  0.08924462  0.68633616  1
  Se  Se225  1  0.25186296  0.41398908  0.20497878  1
  Se  Se226  1  0.25482328  0.41656499  0.69777094  1
  Se  Se227  1  0.24164669  0.75190168  0.18863453  1
  Se  Se228  1  0.24567522  0.76025624  0.69685238  1
  Se  Se229  1  0.56828772  0.08742872  0.19926958  1
  Se  Se230  1  0.58511859  0.08108487  0.69542482  1
  Se  Se231  1  0.58383824  0.42069801  0.19649818  1
  Se  Se232  1  0.60406310  0.39206451  0.69508429  1
  Se  Se233  1  0.58168110  0.74245878  0.19922481  1
  Se  Se234  1  0.59521902  0.73535472  0.69735325  1
  Se  Se235  1  0.93963280  0.06861243  0.20184320  1
  Se  Se236  1  0.91735433  0.08138253  0.69340400  1
  Se  Se237  1  0.91043007  0.42058656  0.18872897  1
  Se  Se238  1  0.91143526  0.41480022  0.70090377  1
  Se  Se239  1  0.91800512  0.73984127  0.19623573  1
  Se  Se240  1  0.90840693  0.75374587  0.69461954  1
  Se  Se241  1  0.08904197  0.24691364  0.18922490  1
  Se  Se242  1  0.07105539  0.26846583  0.69426118  1
  Se  Se243  1  0.08256136  0.58146929  0.20312739  1
  Se  Se244  1  0.05457472  0.61128423  0.68866589  1
  Se  Se245  1  0.07778498  0.91351493  0.19875172  1
  Se  Se246  1  0.07817475  0.92060724  0.69592035  1
  Se  Se247  1  0.40175301  0.26164533  0.20012674  1
  Se  Se248  1  0.41563962  0.24890064  0.69832035  1
  Se  Se249  1  0.42093814  0.57591078  0.18735617  1
  Se  Se250  1  0.40451102  0.60495538  0.69486601  1
  Se  Se251  1  0.41928721  0.90905486  0.18955906  1
  Se  Se252  1  0.43321072  0.90536755  0.69483365  1
  Se  Se253  1  0.78011895  0.22394347  0.18915752  1
  Se  Se254  1  0.75097467  0.24984585  0.69678270  1
  Se  Se255  1  0.74872839  0.58302425  0.19415604  1
  Se  Se256  1  0.74870443  0.58843453  0.70175665  1
  Se  Se257  1  0.75427870  0.90938580  0.19679011  1
  Se  Se258  1  0.75003247  0.92083640  0.69769724  1
