# generated using pymatgen
data_In86Cu29Se144
_symmetry_space_group_name_H-M   'P 1'
_cell_length_a   17.58212046
_cell_length_b   17.58745401
_cell_length_c   23.44807270
_cell_angle_alpha   90.00698027
_cell_angle_beta   89.99494322
_cell_angle_gamma   89.99700238
_symmetry_Int_Tables_number   1
_chemical_formula_structural   In86Cu29Se144
_chemical_formula_sum   'In86 Cu29 Se144'
_cell_volume   7250.72397518
_cell_formula_units_Z   1
loop_
 _symmetry_equiv_pos_site_id
 _symmetry_equiv_pos_as_xyz
  1  'x, y, z'
loop_
 _atom_site_type_symbol
 _atom_site_label
 _atom_site_symmetry_multiplicity
 _atom_site_fract_x
 _atom_site_fract_y
 _atom_site_fract_z
 _atom_site_occupancy
  In  In0  1  0.00225143  0.16962629  0.11561358  1
  In  In1  1  -0.00534645  0.16419962  0.63254875  1
  In  In2  1  0.00554831  0.49666446  0.13445036  1
  In  In3  1  -0.00385215  0.48697195  0.61106569  1
  In  In4  1  -0.00839043  0.83589948  0.13205712  1
  In  In5  1  -0.01315871  0.85085406  0.62234880  1
  In  In6  1  0.33899473  0.18065691  0.11411891  1
  In  In7  1  0.35175762  0.16241273  0.64094957  1
  In  In8  1  0.34279518  0.49069220  0.13543538  1
  In  In9  1  0.32239040  0.49957113  0.61848789  1
  In  In10  1  0.33172688  0.83359890  0.13002478  1
  In  In11  1  0.34044235  0.83118052  0.62453898  1
  In  In12  1  0.67711359  0.17431410  0.11160901  1
  In  In13  1  0.64929507  0.16456734  0.63158528  1
  In  In14  1  0.65901637  0.50797387  0.13248376  1
  In  In15  1  0.68489542  0.50430123  0.61814986  1
  In  In16  1  0.66552193  0.82875188  0.12501378  1
  In  In17  1  0.66866938  0.83193980  0.62674392  1
  In  In18  1  0.16514250  -0.00506261  0.37790880  1
  In  In19  1  0.18412707  0.01820688  0.86152196  1
  In  In20  1  0.17024376  0.33481428  0.37111286  1
  In  In21  1  0.15292823  0.31979491  0.86471369  1
  In  In22  1  0.14663111  0.65630933  0.36120152  1
  In  In23  1  0.16962856  0.66495370  0.87803146  1
  In  In24  1  0.50008700  -0.00592774  0.38632755  1
  In  In25  1  0.52282044  0.03278774  0.84862508  1
  In  In26  1  0.49389285  0.32702400  0.37018273  1
  In  In27  1  0.49422723  0.34018038  0.87839161  1
  In  In28  1  0.51057241  0.67276501  0.36950469  1
  In  In29  1  0.50654968  0.65100213  0.87690030  1
  In  In30  1  0.81788458  0.00071650  0.38211506  1
  In  In31  1  0.82779169  0.00299575  0.87038634  1
  In  In32  1  0.84552845  0.34478785  0.36564170  1
  In  In33  1  0.82541695  0.29885692  0.86389809  1
  In  In34  1  0.83274217  0.65880771  0.37784119  1
  In  In35  1  0.83032951  0.68405907  0.87847581  1
  In  In36  1  -0.01283045  0.17388565  0.37409591  1
  In  In37  1  -0.00326435  0.16557671  0.86871031  1
  In  In38  1  -0.00524250  0.49507593  0.37926235  1
  In  In39  1  0.00977241  0.49116200  0.87430608  1
  In  In40  1  0.00334791  0.81828061  0.37749261  1
  In  In41  1  -0.02414452  0.84318759  0.88168881  1
  In  In42  1  0.33173778  0.17833549  0.37574263  1
  In  In43  1  0.33675073  0.17020656  0.87406318  1
  In  In44  1  0.32156139  0.48863449  0.36927046  1
  In  In45  1  0.34775332  0.50060440  0.87765826  1
  In  In46  1  0.34565238  0.83419991  0.37711203  1
  In  In47  1  0.32662983  0.83900937  0.87299275  1
  In  In48  1  0.65357897  0.16503775  0.37580996  1
  In  In49  1  0.67302208  0.15450345  0.89048482  1
  In  In50  1  0.68190860  0.50916519  0.36978433  1
  In  In51  1  0.65788978  0.49130090  0.87278207  1
  In  In52  1  0.68352627  0.80438679  0.39954848  1
  In  In53  1  0.67725573  0.84779023  0.86652418  1
  In  In54  1  0.15708474  0.00593269  0.11991971  1
  In  In55  1  0.15775180  0.01083399  0.63493375  1
  In  In56  1  0.16863725  0.32960351  0.12728837  1
  In  In57  1  0.16612425  0.33801424  0.62725207  1
  In  In58  1  0.17399823  0.66685740  0.14549159  1
  In  In59  1  0.17349544  0.65627634  0.61654314  1
  In  In60  1  0.49573726  0.00712412  0.11646279  1
  In  In61  1  0.50233014  -0.00056779  0.63452375  1
  In  In62  1  0.49709292  0.33566662  0.12419850  1
  In  In63  1  0.50263762  0.31673699  0.62695219  1
  In  In64  1  0.51005500  0.65870606  0.13676461  1
  In  In65  1  0.50415103  0.68092773  0.61788825  1
  In  In66  1  0.83231513  0.00055937  0.10960592  1
  In  In67  1  0.84282679  -0.01179559  0.63356770  1
  In  In68  1  0.83910854  0.32825651  0.12808856  1
  In  In69  1  0.83511163  0.33811694  0.62246106  1
  In  In70  1  0.82473743  0.67518891  0.13408410  1
  In  In71  1  0.82502457  0.66340785  0.61484620  1
  In  In72  1  0.66137309  -0.00311549  0.24945097  1
  In  In73  1  0.17121308  0.49625720  0.00850609  1
  In  In74  1  0.33427973  0.00025164  0.25018510  1
  In  In75  1  0.00016446  -0.00086357  0.24968792  1
  In  In76  1  0.16221345  0.83875176  0.00250935  1
  In  In77  1  0.83231731  0.49555591  0.00085450  1
  In  In78  1  0.82986625  0.16494547  0.50725914  1
  In  In79  1  0.66667478  0.32957994  0.74937910  1
  In  In80  1  0.16529995  0.17087154  0.50823880  1
  In  In81  1  0.16412692  0.82734548  0.49948496  1
  In  In82  1  0.50806529  0.50129772  0.49477849  1
  In  In83  1  0.33768785  0.66512956  0.74370838  1
  In  In84  1  0.00014625  0.66628780  0.75211841  1
  In  In85  1  0.50651010  0.84303461  -0.00410022  1
  Cu  Cu86  1  0.32721362  0.33389955  -0.00046136  1
  Cu  Cu87  1  0.83271638  0.82805533  0.25610562  1
  Cu  Cu88  1  0.17098849  0.17022202  0.75064914  1
  Cu  Cu89  1  0.16051723  0.49944413  0.25421388  1
  Cu  Cu90  1  0.83941295  0.50252697  0.74319993  1
  Cu  Cu91  1  0.34511219  0.66488450  0.00808616  1
  Cu  Cu92  1  0.49809951  0.17357759  0.24677992  1
  Cu  Cu93  1  0.67095064  0.33080317  0.50014223  1
  Cu  Cu94  1  0.82693253  0.83532637  0.75043609  1
  Cu  Cu95  1  0.16681985  0.17284251  0.24619595  1
  Cu  Cu96  1  0.51052533  0.82724544  0.25611230  1
  Cu  Cu97  1  0.33023826  0.66059013  0.49296162  1
  Cu  Cu98  1  0.16938771  0.49168995  0.74437132  1
  Cu  Cu99  1  -0.01031534  0.32217311  -0.00576311  1
  Cu  Cu100  1  0.34091947  0.32665462  0.49730355  1
  Cu  Cu101  1  0.33430488  0.00396874  0.51089305  1
  Cu  Cu102  1  0.50017350  0.83236015  0.74651031  1
  Cu  Cu103  1  -0.00437170  0.66180629  0.49582478  1
  Cu  Cu104  1  0.83494045  0.49952752  0.25114307  1
  Cu  Cu105  1  0.49729012  0.49759733  0.25499996  1
  Cu  Cu106  1  -0.00336283  0.66996169  0.00847746  1
  Cu  Cu107  1  0.33624658  0.01005712  -0.00978291  1
  Cu  Cu108  1  0.50494268  0.49849816  0.74955112  1
  Cu  Cu109  1  0.83070373  0.17574132  0.24299756  1
  Cu  Cu110  1  0.66553667  0.66821849  0.00715642  1
  Cu  Cu111  1  0.15625816  0.83691957  0.75071435  1
  Cu  Cu112  1  0.65723296  0.33590548  -0.00184181  1
  Cu  Cu113  1  0.00246286  0.00451158  -0.00712026  1
  Cu  Cu114  1  0.65520719  -0.00446723  0.50829002  1
  Se  Se115  1  0.08569160  0.08740323  0.04645526  1
  Se  Se116  1  0.07053443  0.07527424  0.55670673  1
  Se  Se117  1  0.06823637  0.40578370  0.05473274  1
  Se  Se118  1  0.10223149  0.42368706  0.55179525  1
  Se  Se119  1  0.08435194  0.74255101  0.06698563  1
  Se  Se120  1  0.07071785  0.74144432  0.56226689  1
  Se  Se121  1  0.41737394  0.09076062  0.04805747  1
  Se  Se122  1  0.42070887  0.08381419  0.56262150  1
  Se  Se123  1  0.41024540  0.41700561  0.05437826  1
  Se  Se124  1  0.41896138  0.41112651  0.55756590  1
  Se  Se125  1  0.42248101  0.75225657  0.06280858  1
  Se  Se126  1  0.40650766  0.74518522  0.54975028  1
  Se  Se127  1  0.74859935  0.08223139  0.04538290  1
  Se  Se128  1  0.73878776  0.07620526  0.56622010  1
  Se  Se129  1  0.73929269  0.41214587  0.06216723  1
  Se  Se130  1  0.75650234  0.41552057  0.54803614  1
  Se  Se131  1  0.75243732  0.75146830  0.05568958  1
  Se  Se132  1  0.75687269  0.76378418  0.55365275  1
  Se  Se133  1  0.24004659  0.25114392  0.04984023  1
  Se  Se134  1  0.26605333  0.25076074  0.56490748  1
  Se  Se135  1  0.25763244  0.59141696  0.06623930  1
  Se  Se136  1  0.24621427  0.57524427  0.54219023  1
  Se  Se137  1  0.26288349  0.92902987  0.05597077  1
  Se  Se138  1  0.24637829  0.92312534  0.56353518  1
  Se  Se139  1  0.57647262  0.25124805  0.05340931  1
  Se  Se140  1  0.58673847  0.24799283  0.55200698  1
  Se  Se141  1  0.58074286  0.58418674  0.05659045  1
  Se  Se142  1  0.59478148  0.59331686  0.55406992  1
  Se  Se143  1  0.59851519  0.92949068  0.05710379  1
  Se  Se144  1  0.57409428  0.91154531  0.56235872  1
  Se  Se145  1  0.90607142  0.24399458  0.05140138  1
  Se  Se146  1  0.92909857  0.25645531  0.55595253  1
  Se  Se147  1  0.91903629  0.58410975  0.06516052  1
  Se  Se148  1  0.91338346  0.57942086  0.55119793  1
  Se  Se149  1  0.92952116  0.91786402  0.05295306  1
  Se  Se150  1  0.90282533  0.91683066  0.54819542  1
  Se  Se151  1  0.07838593  0.25430414  0.44138778  1
  Se  Se152  1  0.08055204  0.24558314  0.94245923  1
  Se  Se153  1  0.08324970  0.58211232  0.44360247  1
  Se  Se154  1  0.07585027  0.59034971  0.94843129  1
  Se  Se155  1  0.07164005  0.92249309  0.44549111  1
  Se  Se156  1  0.08539234  0.92563751  0.93251836  1
  Se  Se157  1  0.42465610  0.24265892  0.44691466  1
  Se  Se158  1  0.41442286  0.25352417  0.94641673  1
  Se  Se159  1  0.41184824  0.58200732  0.43312860  1
  Se  Se160  1  0.42225724  0.58113952  0.95164797  1
  Se  Se161  1  0.41122494  0.91725334  0.45425381  1
  Se  Se162  1  0.41528055  0.92641600  0.93376012  1
  Se  Se163  1  0.74937976  0.25091073  0.43673435  1
  Se  Se164  1  0.74866043  0.25448583  0.95163787  1
  Se  Se165  1  0.74684943  0.58416085  0.44920927  1
  Se  Se166  1  0.74309738  0.58826203  0.94168541  1
  Se  Se167  1  0.74349471  0.91882920  0.45379859  1
  Se  Se168  1  0.76416805  0.90738320  0.94119605  1
  Se  Se169  1  0.25587312  0.07763557  0.44473326  1
  Se  Se170  1  0.24594887  0.09253767  0.94438544  1
  Se  Se171  1  0.25324692  0.40715853  0.44655741  1
  Se  Se172  1  0.24885858  0.41291612  0.93578119  1
  Se  Se173  1  0.24879059  0.74156416  0.43352765  1
  Se  Se174  1  0.26077786  0.74219834  0.94903134  1
  Se  Se175  1  0.58189282  0.08298322  0.45043510  1
  Se  Se176  1  0.57250565  0.07677898  0.94565534  1
  Se  Se177  1  0.59351822  0.40799361  0.43494915  1
  Se  Se178  1  0.57625999  0.42399331  0.94892131  1
  Se  Se179  1  0.56390865  0.75624930  0.45051063  1
  Se  Se180  1  0.59260694  0.74590695  0.93856100  1
  Se  Se181  1  0.92073936  0.07664373  0.44300364  1
  Se  Se182  1  0.91644046  0.08375212  0.93951623  1
  Se  Se183  1  0.91214639  0.41225107  0.44778980  1
  Se  Se184  1  0.91420066  0.40653131  0.93430958  1
  Se  Se185  1  0.91322395  0.74860509  0.44629431  1
  Se  Se186  1  0.91361727  0.75159562  0.95491425  1
  Se  Se187  1  0.25279623  0.25152123  0.30099537  1
  Se  Se188  1  0.25560029  0.25454150  0.80258573  1
  Se  Se189  1  0.24937193  0.58279874  0.30266062  1
  Se  Se190  1  0.24504967  0.57626870  0.80596661  1
  Se  Se191  1  0.24513260  0.90934900  0.30922644  1
  Se  Se192  1  0.24970982  0.91430897  0.79855948  1
  Se  Se193  1  0.58506595  0.25076547  0.30179822  1
  Se  Se194  1  0.58544997  0.24909251  0.81982396  1
  Se  Se195  1  0.58564139  0.58088816  0.30358213  1
  Se  Se196  1  0.58900770  0.58171310  0.80075501  1
  Se  Se197  1  0.58607154  0.90791730  0.31877208  1
  Se  Se198  1  0.58435895  0.91714883  0.79776928  1
  Se  Se199  1  0.91938293  0.25241356  0.29659646  1
  Se  Se200  1  0.93513423  0.26413797  0.79866785  1
  Se  Se201  1  0.91762147  0.58088051  0.30741290  1
  Se  Se202  1  0.90989722  0.57820003  0.81495506  1
  Se  Se203  1  0.90735692  0.91560744  0.31409574  1
  Se  Se204  1  0.91368274  0.91868417  0.80074858  1
  Se  Se205  1  0.09097941  0.09286585  0.30952402  1
  Se  Se206  1  0.08281345  0.08419057  0.79885235  1
  Se  Se207  1  0.07887969  0.41439695  0.30739219  1
  Se  Se208  1  0.08055582  0.41449992  0.79727123  1
  Se  Se209  1  0.08322290  0.75937172  0.29850990  1
  Se  Se210  1  0.08478185  0.75860905  0.81673606  1
  Se  Se211  1  0.42633331  0.08793629  0.31013003  1
  Se  Se212  1  0.39463711  0.06898763  0.80527204  1
  Se  Se213  1  0.41183258  0.41089045  0.30261402  1
  Se  Se214  1  0.41797893  0.41974913  0.80197830  1
  Se  Se215  1  0.41701257  0.74953136  0.30383937  1
  Se  Se216  1  0.42398404  0.75118240  0.81111114  1
  Se  Se217  1  0.75508243  0.09282785  0.30444363  1
  Se  Se218  1  0.75438548  0.10179890  0.80867670  1
  Se  Se219  1  0.74825733  0.41403017  0.30008647  1
  Se  Se220  1  0.76197848  0.42101921  0.80788020  1
  Se  Se221  1  0.74838251  0.74713010  0.31037910  1
  Se  Se222  1  0.74654003  0.74673134  0.80137474  1
  Se  Se223  1  0.24636069  0.09013312  0.18750055  1
  Se  Se224  1  0.25277094  0.08285699  0.69943350  1
  Se  Se225  1  0.24244895  0.41817098  0.19622194  1
  Se  Se226  1  0.25995320  0.41366305  0.69467827  1
  Se  Se227  1  0.26071111  0.75452382  0.20351936  1
  Se  Se228  1  0.23610718  0.75462815  0.69093710  1
  Se  Se229  1  0.57822108  0.09164695  0.18782883  1
  Se  Se230  1  0.57390051  0.08830184  0.70583033  1
  Se  Se231  1  0.57833647  0.41698564  0.19584333  1
  Se  Se232  1  0.58522127  0.42437561  0.68419611  1
  Se  Se233  1  0.59426286  0.74776078  0.20005025  1
  Se  Se234  1  0.58369567  0.74687208  0.69603338  1
  Se  Se235  1  0.90841203  0.08551234  0.18789206  1
  Se  Se236  1  0.91373498  0.08214174  0.69916098  1
  Se  Se237  1  0.91677761  0.41413644  0.19732140  1
  Se  Se238  1  0.92070817  0.41801002  0.69167468  1
  Se  Se239  1  0.91842397  0.74792254  0.20177805  1
  Se  Se240  1  0.91020910  0.75359929  0.69118109  1
  Se  Se241  1  0.07765328  0.24795558  0.19133061  1
  Se  Se242  1  0.08777939  0.24824281  0.69251099  1
  Se  Se243  1  0.07771586  0.58640216  0.20337929  1
  Se  Se244  1  0.08775290  0.57697451  0.68899345  1
  Se  Se245  1  0.09688672  0.91043824  0.19369825  1
  Se  Se246  1  0.07448070  0.91832923  0.69577732  1
  Se  Se247  1  0.41113406  0.25298817  0.19373759  1
  Se  Se248  1  0.42430365  0.25635811  0.70662380  1
  Se  Se249  1  0.41555914  0.58471349  0.20165442  1
  Se  Se250  1  0.42725139  0.57546313  0.68320093  1
  Se  Se251  1  0.43532210  0.91203556  0.19452828  1
  Se  Se252  1  0.41094405  0.91358960  0.69812874  1
  Se  Se253  1  0.74120360  0.25370035  0.19195256  1
  Se  Se254  1  0.75721531  0.24272779  0.68810883  1
  Se  Se255  1  0.74944056  0.58368550  0.19966588  1
  Se  Se256  1  0.75365726  0.58639672  0.69470715  1
  Se  Se257  1  0.76193893  0.91334333  0.19174459  1
  Se  Se258  1  0.74318314  0.91982290  0.69821174  1
