# generated using pymatgen
data_In86Cu29Se144
_symmetry_space_group_name_H-M   'P 1'
_cell_length_a   17.57582946
_cell_length_b   17.57862452
_cell_length_c   23.44038152
_cell_angle_alpha   90.01283600
_cell_angle_beta   89.99478746
_cell_angle_gamma   90.02089539
_symmetry_Int_Tables_number   1
_chemical_formula_structural   In86Cu29Se144
_chemical_formula_sum   'In86 Cu29 Se144'
_cell_volume   7242.11395246
_cell_formula_units_Z   1
loop_
 _symmetry_equiv_pos_site_id
 _symmetry_equiv_pos_as_xyz
  1  'x, y, z'
loop_
 _atom_site_type_symbol
 _atom_site_label
 _atom_site_symmetry_multiplicity
 _atom_site_fract_x
 _atom_site_fract_y
 _atom_site_fract_z
 _atom_site_occupancy
  In  In0  1  -0.00898400  0.17852677  0.12225407  1
  In  In1  1  -0.01125212  0.17364866  0.63280664  1
  In  In2  1  -0.00458851  0.51484761  0.12372697  1
  In  In3  1  -0.01453710  0.49500455  0.63076834  1
  In  In4  1  0.00027190  0.81897423  0.12231734  1
  In  In5  1  0.00861965  0.84193324  0.61968367  1
  In  In6  1  0.35354519  0.16287458  0.12692158  1
  In  In7  1  0.35179471  0.16685737  0.62300699  1
  In  In8  1  0.34115430  0.48457372  0.13229605  1
  In  In9  1  0.34828127  0.48615283  0.63285869  1
  In  In10  1  0.33014649  0.84482262  0.12275032  1
  In  In11  1  0.32585254  0.83246028  0.61664378  1
  In  In12  1  0.66980671  0.17092039  0.12427900  1
  In  In13  1  0.66727818  0.16368380  0.62743737  1
  In  In14  1  0.65565364  0.48653884  0.11542931  1
  In  In15  1  0.65499899  0.50898074  0.63179933  1
  In  In16  1  0.66794643  0.83930048  0.13239008  1
  In  In17  1  0.66659996  0.83429714  0.62349372  1
  In  In18  1  0.16071580  -0.00426041  0.37792559  1
  In  In19  1  0.15126637  -0.00028723  0.87344091  1
  In  In20  1  0.17849955  0.32053287  0.36934165  1
  In  In21  1  0.16850542  0.33932134  0.86624290  1
  In  In22  1  0.16240691  0.67962826  0.37581695  1
  In  In23  1  0.17925156  0.65781971  0.87591094  1
  In  In24  1  0.51375359  -0.01154319  0.38519678  1
  In  In25  1  0.51663096  0.00549473  0.87075338  1
  In  In26  1  0.50342249  0.33427865  0.37635783  1
  In  In27  1  0.50189324  0.33164390  0.87615557  1
  In  In28  1  0.49984628  0.67108535  0.38435625  1
  In  In29  1  0.49318596  0.65905455  0.86951627  1
  In  In30  1  0.81932670  0.01363137  0.38591384  1
  In  In31  1  0.83151774  0.00036842  0.87083344  1
  In  In32  1  0.81026892  0.33299729  0.37382566  1
  In  In33  1  0.82811999  0.32979702  0.87534268  1
  In  In34  1  0.84325362  0.66319386  0.37123271  1
  In  In35  1  0.82061243  0.67189150  0.87551108  1
  In  In36  1  0.00244361  0.15637262  0.37758830  1
  In  In37  1  -0.01284056  0.15387490  0.86781332  1
  In  In38  1  -0.02877215  0.50231764  0.36357694  1
  In  In39  1  0.00302105  0.48802502  0.87687304  1
  In  In40  1  0.00294723  0.82894423  0.38029281  1
  In  In41  1  -0.00886878  0.84455735  0.87551540  1
  In  In42  1  0.34136750  0.18642019  0.37088743  1
  In  In43  1  0.33725110  0.18206007  0.87250355  1
  In  In44  1  0.35059447  0.49524777  0.37597314  1
  In  In45  1  0.34033942  0.50579111  0.86875605  1
  In  In46  1  0.33764334  0.83478377  0.39050584  1
  In  In47  1  0.33757799  0.81635134  0.87243774  1
  In  In48  1  0.66253674  0.16722104  0.37758478  1
  In  In49  1  0.66227082  0.16354561  0.87741471  1
  In  In50  1  0.66315208  0.48613999  0.36696795  1
  In  In51  1  0.66551889  0.49741033  0.87645803  1
  In  In52  1  0.65517022  0.84870638  0.38313271  1
  In  In53  1  0.67217970  0.83489981  0.86468991  1
  In  In54  1  0.18101930  -0.00509980  0.11968293  1
  In  In55  1  0.16777149  -0.01383896  0.62420339  1
  In  In56  1  0.16919129  0.34041666  0.12761971  1
  In  In57  1  0.16483862  0.33326802  0.63325662  1
  In  In58  1  0.15268629  0.66447447  0.12251012  1
  In  In59  1  0.16991086  0.68291020  0.62441952  1
  In  In60  1  0.50367941  0.01300165  0.12467027  1
  In  In61  1  0.50478391  0.01232788  0.61432785  1
  In  In62  1  0.51156925  0.33717359  0.12701136  1
  In  In63  1  0.50596669  0.33244225  0.62704678  1
  In  In64  1  0.51201077  0.65684778  0.12679364  1
  In  In65  1  0.50074709  0.66589094  0.62430144  1
  In  In66  1  0.81583042  0.00750581  0.12887859  1
  In  In67  1  0.83218389  0.00020593  0.62625973  1
  In  In68  1  0.82112432  0.32246323  0.11328705  1
  In  In69  1  0.83211143  0.32433610  0.63194057  1
  In  In70  1  0.84629143  0.66614911  0.12445325  1
  In  In71  1  0.81779872  0.66424365  0.62553980  1
  In  In72  1  0.17413684  0.15641693  0.50030929  1
  In  In73  1  0.83319453  0.83306050  -0.00264623  1
  In  In74  1  0.33209168  -0.00045286  0.73758650  1
  In  In75  1  0.00052312  0.66678664  0.75367178  1
  In  In76  1  0.16557443  0.16509486  -0.00205621  1
  In  In77  1  0.00151111  -0.00100295  0.25934388  1
  In  In78  1  0.66886781  0.66511035  0.24967114  1
  In  In79  1  0.33537834  0.66785758  0.26035053  1
  In  In80  1  0.50030905  0.83158448  0.00342347  1
  In  In81  1  0.16660835  0.50843453  0.49635752  1
  In  In82  1  0.82239296  0.50030537  0.49633818  1
  In  In83  1  0.34190481  0.00446183  0.25582460  1
  In  In84  1  0.00113607  0.33632754  0.24472360  1
  In  In85  1  0.16543578  0.49910995  -0.00100843  1
  Cu  Cu86  1  0.33293908  0.66036543  -0.00245101  1
  Cu  Cu87  1  0.16554699  0.49980084  0.24809842  1
  Cu  Cu88  1  0.66351284  0.33036429  -0.00392811  1
  Cu  Cu89  1  0.66580974  0.66226992  -0.00223210  1
  Cu  Cu90  1  0.34615235  0.33477157  0.50308149  1
  Cu  Cu91  1  0.17232771  0.50204196  0.75013448  1
  Cu  Cu92  1  0.33587658  0.66421396  0.50213443  1
  Cu  Cu93  1  0.83010718  0.83710914  0.25050307  1
  Cu  Cu94  1  0.66163914  0.32754567  0.50286534  1
  Cu  Cu95  1  -0.00237222  0.67348081  0.49743609  1
  Cu  Cu96  1  0.50702130  0.82893567  0.74587974  1
  Cu  Cu97  1  0.51286329  0.17694844  0.24966588  1
  Cu  Cu98  1  0.66279898  0.67357236  0.50275468  1
  Cu  Cu99  1  0.16082887  0.17003364  0.75248804  1
  Cu  Cu100  1  0.33414144  -0.00386268  -0.00170000  1
  Cu  Cu101  1  0.82602174  0.16517080  0.75244024  1
  Cu  Cu102  1  0.16969542  0.83367753  0.74648946  1
  Cu  Cu103  1  -0.00798210  0.32832835  -0.00605235  1
  Cu  Cu104  1  -0.00624719  -0.00205598  0.50109831  1
  Cu  Cu105  1  0.82751523  0.49075871  0.75244691  1
  Cu  Cu106  1  0.82761278  0.17307504  0.25235755  1
  Cu  Cu107  1  0.83196439  0.83493495  0.74641314  1
  Cu  Cu108  1  0.67196382  0.00224662  0.50454142  1
  Cu  Cu109  1  -0.00469210  -0.00383310  -0.00322330  1
  Cu  Cu110  1  -0.00272193  0.32876085  0.50603862  1
  Cu  Cu111  1  0.16261053  0.82848455  0.25043480  1
  Cu  Cu112  1  0.50361153  0.49611331  0.75269002  1
  Cu  Cu113  1  0.34539055  0.33146575  0.00246923  1
  Cu  Cu114  1  0.50505163  0.16920884  0.74775049  1
  Se  Se115  1  0.07511322  0.07549790  0.06048677  1
  Se  Se116  1  0.07419618  0.07983076  0.56245617  1
  Se  Se117  1  0.07239487  0.40634866  0.05642494  1
  Se  Se118  1  0.07680732  0.41592146  0.55894974  1
  Se  Se119  1  0.09153095  0.75615092  0.05139131  1
  Se  Se120  1  0.08482187  0.75168984  0.55083107  1
  Se  Se121  1  0.41764360  0.08025682  0.04933764  1
  Se  Se122  1  0.40359118  0.07486376  0.54871648  1
  Se  Se123  1  0.42353990  0.41785525  0.05642812  1
  Se  Se124  1  0.42837021  0.41936055  0.55490413  1
  Se  Se125  1  0.40946628  0.73924305  0.06318778  1
  Se  Se126  1  0.41783841  0.74938740  0.55501657  1
  Se  Se127  1  0.75498251  0.09201657  0.05394684  1
  Se  Se128  1  0.75444500  0.08735885  0.55676106  1
  Se  Se129  1  0.74872465  0.41633974  0.04636486  1
  Se  Se130  1  0.74129325  0.41147401  0.56302977  1
  Se  Se131  1  0.74009799  0.74542745  0.05994228  1
  Se  Se132  1  0.75226143  0.75256955  0.55284190  1
  Se  Se133  1  0.25717253  0.25375218  0.05932124  1
  Se  Se134  1  0.25496471  0.25891686  0.55889377  1
  Se  Se135  1  0.25805056  0.58200209  0.06432042  1
  Se  Se136  1  0.25716495  0.58476529  0.56461187  1
  Se  Se137  1  0.24812609  0.91017084  0.04456060  1
  Se  Se138  1  0.25044500  0.92198501  0.54920115  1
  Se  Se139  1  0.58250921  0.24931474  0.05460921  1
  Se  Se140  1  0.58070141  0.24311119  0.55733133  1
  Se  Se141  1  0.57883464  0.57991342  0.04816000  1
  Se  Se142  1  0.58323140  0.58301250  0.55288204  1
  Se  Se143  1  0.59248369  0.92417903  0.05761892  1
  Se  Se144  1  0.58530327  0.91737418  0.55362090  1
  Se  Se145  1  0.90987923  0.24247169  0.04508421  1
  Se  Se146  1  0.91068295  0.24822779  0.55628198  1
  Se  Se147  1  0.91870968  0.58826119  0.04915723  1
  Se  Se148  1  0.91989261  0.58896521  0.55645764  1
  Se  Se149  1  0.91733718  0.92319949  0.06457401  1
  Se  Se150  1  0.91246791  0.91431888  0.55566404  1
  Se  Se151  1  0.08198586  0.25550168  0.44441600  1
  Se  Se152  1  0.07879045  0.25350485  0.93460318  1
  Se  Se153  1  0.06547247  0.58508091  0.43498916  1
  Se  Se154  1  0.07569400  0.59064676  0.94130684  1
  Se  Se155  1  0.08147110  0.91656287  0.44911861  1
  Se  Se156  1  0.08189785  0.91399669  0.94716595  1
  Se  Se157  1  0.42513451  0.24921605  0.44889232  1
  Se  Se158  1  0.42289936  0.24502372  0.94802601  1
  Se  Se159  1  0.41916313  0.58093479  0.44939405  1
  Se  Se160  1  0.41858004  0.57965819  0.94542391  1
  Se  Se161  1  0.41518917  0.92542920  0.45260513  1
  Se  Se162  1  0.41477533  0.91845544  0.93552033  1
  Se  Se163  1  0.74843957  0.24741708  0.44953234  1
  Se  Se164  1  0.74848974  0.24595382  0.94532986  1
  Se  Se165  1  0.73634606  0.59330731  0.43631793  1
  Se  Se166  1  0.75128745  0.58121557  0.94519034  1
  Se  Se167  1  0.75268948  0.91480064  0.45144438  1
  Se  Se168  1  0.73892444  0.92211955  0.94253412  1
  Se  Se169  1  0.26279069  0.07988192  0.43204442  1
  Se  Se170  1  0.25665230  0.07715057  0.93514921  1
  Se  Se171  1  0.25525299  0.40747713  0.44489903  1
  Se  Se172  1  0.25975432  0.40855074  0.94260818  1
  Se  Se173  1  0.24879306  0.74568070  0.44991617  1
  Se  Se174  1  0.25197060  0.74674851  0.94653592  1
  Se  Se175  1  0.58649429  0.08409583  0.45035060  1
  Se  Se176  1  0.57591279  0.08711028  0.94836465  1
  Se  Se177  1  0.58771737  0.41690203  0.44662656  1
  Se  Se178  1  0.58018465  0.41758158  0.94604862  1
  Se  Se179  1  0.57849434  0.75839676  0.45124759  1
  Se  Se180  1  0.58905336  0.74667920  0.93771365  1
  Se  Se181  1  0.91632242  0.08831832  0.45003939  1
  Se  Se182  1  0.91187749  0.07922532  0.94481650  1
  Se  Se183  1  0.91865860  0.40682711  0.44219158  1
  Se  Se184  1  0.91118908  0.41643058  0.94406658  1
  Se  Se185  1  0.90936826  0.75151969  0.44516883  1
  Se  Se186  1  0.92458600  0.74091173  0.94115507  1
  Se  Se187  1  0.25450482  0.24770884  0.29486945  1
  Se  Se188  1  0.25008068  0.25170919  0.80055324  1
  Se  Se189  1  0.24148030  0.57465672  0.31630218  1
  Se  Se190  1  0.25677912  0.58754861  0.79887681  1
  Se  Se191  1  0.24615527  0.90711059  0.30927318  1
  Se  Se192  1  0.24917199  0.91434006  0.80929147  1
  Se  Se193  1  0.59410039  0.25915452  0.30633018  1
  Se  Se194  1  0.58461665  0.24996233  0.80617824  1
  Se  Se195  1  0.57255774  0.58126323  0.30983680  1
  Se  Se196  1  0.58602966  0.58237048  0.80516612  1
  Se  Se197  1  0.58640993  0.92299275  0.30389956  1
  Se  Se198  1  0.58509314  0.91669128  0.79893708  1
  Se  Se199  1  0.91519748  0.24722764  0.31187231  1
  Se  Se200  1  0.91258798  0.24875659  0.80443301  1
  Se  Se201  1  0.91032583  0.59059161  0.29003936  1
  Se  Se202  1  0.90854405  0.57527600  0.81066889  1
  Se  Se203  1  0.90557365  0.91487718  0.31683710  1
  Se  Se204  1  0.91494797  0.91841489  0.80023566  1
  Se  Se205  1  0.10026450  0.09519426  0.30479165  1
  Se  Se206  1  0.07915534  0.08006012  0.79933086  1
  Se  Se207  1  0.08649568  0.42290543  0.31404216  1
  Se  Se208  1  0.08274130  0.42046594  0.79895341  1
  Se  Se209  1  0.07548931  0.74883230  0.30272191  1
  Se  Se210  1  0.09190162  0.75690353  0.81231672  1
  Se  Se211  1  0.43510934  0.09417361  0.31161147  1
  Se  Se212  1  0.41859769  0.08708243  0.80436236  1
  Se  Se213  1  0.41065512  0.40312277  0.30579299  1
  Se  Se214  1  0.41766306  0.41294100  0.80520174  1
  Se  Se215  1  0.42450649  0.76465377  0.31280903  1
  Se  Se216  1  0.42006091  0.74727230  0.79777749  1
  Se  Se217  1  0.74815236  0.08660481  0.30649885  1
  Se  Se218  1  0.74314833  0.08060323  0.80529765  1
  Se  Se219  1  0.77755870  0.44196530  0.30635162  1
  Se  Se220  1  0.74301473  0.41035224  0.80625479  1
  Se  Se221  1  0.75031771  0.75896293  0.31349679  1
  Se  Se222  1  0.75049247  0.74699799  0.79678752  1
  Se  Se223  1  0.24966737  0.08799658  0.19019957  1
  Se  Se224  1  0.23934730  0.09618426  0.68508956  1
  Se  Se225  1  0.25043916  0.41325113  0.20192982  1
  Se  Se226  1  0.25279299  0.41404093  0.69826386  1
  Se  Se227  1  0.24792036  0.75236632  0.19144607  1
  Se  Se228  1  0.25696916  0.75249011  0.69673326  1
  Se  Se229  1  0.58857832  0.08690484  0.19579490  1
  Se  Se230  1  0.58136987  0.07904844  0.69492093  1
  Se  Se231  1  0.58713263  0.42165652  0.19864443  1
  Se  Se232  1  0.58736118  0.41281683  0.69907655  1
  Se  Se233  1  0.57231948  0.75872049  0.19573440  1
  Se  Se234  1  0.58955178  0.74453702  0.69247757  1
  Se  Se235  1  0.91309286  0.09123173  0.19691696  1
  Se  Se236  1  0.91214324  0.08282545  0.69875894  1
  Se  Se237  1  0.91039879  0.41561988  0.18038875  1
  Se  Se238  1  0.91451721  0.40928409  0.70140606  1
  Se  Se239  1  0.91397322  0.75469027  0.19801994  1
  Se  Se240  1  0.91463221  0.75267610  0.68750610  1
  Se  Se241  1  0.09283543  0.23919465  0.19098305  1
  Se  Se242  1  0.07683533  0.25437268  0.69924457  1
  Se  Se243  1  0.08169428  0.58380949  0.19816487  1
  Se  Se244  1  0.08967225  0.57925498  0.68792585  1
  Se  Se245  1  0.08899456  0.91510361  0.19043499  1
  Se  Se246  1  0.08202003  0.91704400  0.69857626  1
  Se  Se247  1  0.42417015  0.25292624  0.19499006  1
  Se  Se248  1  0.41852283  0.25241388  0.69728437  1
  Se  Se249  1  0.42301657  0.57822101  0.19827498  1
  Se  Se250  1  0.42241263  0.58116663  0.69684185  1
  Se  Se251  1  0.42599522  0.91303877  0.19155066  1
  Se  Se252  1  0.42712669  0.90935037  0.68440807  1
  Se  Se253  1  0.74872428  0.25659122  0.19619382  1
  Se  Se254  1  0.74264003  0.24942722  0.69994643  1
  Se  Se255  1  0.74783310  0.58023926  0.18026754  1
  Se  Se256  1  0.74980796  0.58015216  0.69991698  1
  Se  Se257  1  0.74551499  0.92302795  0.20293573  1
  Se  Se258  1  0.74695072  0.91794233  0.69440508  1
