# generated using pymatgen
data_In86Cu29Se144
_symmetry_space_group_name_H-M   'P 1'
_cell_length_a   17.57530749
_cell_length_b   17.57751670
_cell_length_c   23.44068236
_cell_angle_alpha   90.00002256
_cell_angle_beta   89.99481340
_cell_angle_gamma   89.99618250
_symmetry_Int_Tables_number   1
_chemical_formula_structural   In86Cu29Se144
_chemical_formula_sum   'In86 Cu29 Se144'
_cell_volume   7241.53607382
_cell_formula_units_Z   1
loop_
 _symmetry_equiv_pos_site_id
 _symmetry_equiv_pos_as_xyz
  1  'x, y, z'
loop_
 _atom_site_type_symbol
 _atom_site_label
 _atom_site_symmetry_multiplicity
 _atom_site_fract_x
 _atom_site_fract_y
 _atom_site_fract_z
 _atom_site_occupancy
  In  In0  1  -0.01022048  0.17638697  0.11344904  1
  In  In1  1  0.01843063  0.18479996  0.61110454  1
  In  In2  1  0.02283218  0.50047703  0.11651614  1
  In  In3  1  0.01071346  0.48936044  0.63394873  1
  In  In4  1  -0.01230431  0.81993741  0.11384147  1
  In  In5  1  -0.00796892  0.83115775  0.63134220  1
  In  In6  1  0.34119206  0.15597810  0.13100666  1
  In  In7  1  0.31409635  0.18363449  0.64778873  1
  In  In8  1  0.32754201  0.50971823  0.13051689  1
  In  In9  1  0.32661587  0.50807827  0.62878390  1
  In  In10  1  0.33022917  0.83285963  0.12161456  1
  In  In11  1  0.33530703  0.83292030  0.63320004  1
  In  In12  1  0.67076861  0.17261712  0.12094682  1
  In  In13  1  0.67812694  0.16881037  0.61998418  1
  In  In14  1  0.65196422  0.49598710  0.12887456  1
  In  In15  1  0.67058161  0.49797750  0.63434002  1
  In  In16  1  0.67271365  0.84077621  0.11609192  1
  In  In17  1  0.65292745  0.84177889  0.62569136  1
  In  In18  1  0.17296273  0.00029314  0.37656469  1
  In  In19  1  0.16091949  -0.01237782  0.87512583  1
  In  In20  1  0.17129595  0.32446644  0.38249639  1
  In  In21  1  0.17856392  0.33555032  0.86832885  1
  In  In22  1  0.16423740  0.65916006  0.37158069  1
  In  In23  1  0.16709101  0.66727907  0.87558351  1
  In  In24  1  0.48363711  -0.00370535  0.37490925  1
  In  In25  1  0.49360132  0.00504201  0.88133928  1
  In  In26  1  0.50214522  0.33276275  0.37117841  1
  In  In27  1  0.49498315  0.32657486  0.86910127  1
  In  In28  1  0.49688147  0.68302387  0.37670303  1
  In  In29  1  0.50771113  0.67287536  0.86939929  1
  In  In30  1  0.84317578  0.00762749  0.37724572  1
  In  In31  1  0.84405659  0.00178017  0.89108355  1
  In  In32  1  0.82369795  0.32358347  0.37229501  1
  In  In33  1  0.82919654  0.32362114  0.86932126  1
  In  In34  1  0.83635639  0.66004674  0.37122748  1
  In  In35  1  0.84447505  0.67427427  0.86835511  1
  In  In36  1  -0.00351369  0.16295357  0.39220516  1
  In  In37  1  -0.00883182  0.16072862  0.87445987  1
  In  In38  1  0.00365503  0.51318575  0.37298656  1
  In  In39  1  0.01001810  0.50454364  0.87164041  1
  In  In40  1  0.00928337  0.83151356  0.36913226  1
  In  In41  1  0.01292656  0.82926786  0.88897569  1
  In  In42  1  0.32909261  0.16139068  0.37167933  1
  In  In43  1  0.33809171  0.17763388  0.86638521  1
  In  In44  1  0.32324102  0.49070315  0.37250654  1
  In  In45  1  0.32105043  0.49401822  0.87060853  1
  In  In46  1  0.33789646  0.84226818  0.36860427  1
  In  In47  1  0.33377645  0.83210406  0.87606550  1
  In  In48  1  0.66786426  0.17872486  0.37890970  1
  In  In49  1  0.66478238  0.16535003  0.87697344  1
  In  In50  1  0.67824503  0.49153983  0.37304898  1
  In  In51  1  0.66416002  0.49623545  0.86511126  1
  In  In52  1  0.65936363  0.82063226  0.37668020  1
  In  In53  1  0.67628733  0.83108668  0.88057468  1
  In  In54  1  0.18213918  0.00087427  0.12644303  1
  In  In55  1  0.16479546  0.03215034  0.63001332  1
  In  In56  1  0.16864856  0.34690633  0.11855381  1
  In  In57  1  0.16487414  0.33479566  0.62680079  1
  In  In58  1  0.16793736  0.66675260  0.12257534  1
  In  In59  1  0.17403564  0.65944930  0.63150256  1
  In  In60  1  0.48941021  -0.01047748  0.11685126  1
  In  In61  1  0.49500889  -0.01167087  0.62176729  1
  In  In62  1  0.50554317  0.32419224  0.13106410  1
  In  In63  1  0.50132391  0.32804233  0.63203441  1
  In  In64  1  0.48462950  0.66713859  0.12348361  1
  In  In65  1  0.49222750  0.67665687  0.63356040  1
  In  In66  1  0.83494725  -0.00418183  0.11541994  1
  In  In67  1  0.83166735  0.00995503  0.61856040  1
  In  In68  1  0.83290830  0.32032594  0.12090138  1
  In  In69  1  0.83641041  0.33214420  0.63147400  1
  In  In70  1  0.84056007  0.68438658  0.12500218  1
  In  In71  1  0.83918187  0.66087442  0.63764792  1
  In  In72  1  0.66484159  -0.00021421  0.23969911  1
  In  In73  1  0.82673240  0.83801241  0.50051414  1
  In  In74  1  0.00645291  -0.00510824  0.24819767  1
  In  In75  1  0.00219486  0.33605688  0.24115611  1
  In  In76  1  0.50071930  0.15835243  0.50612075  1
  In  In77  1  0.66695979  0.00316191  0.74373465  1
  In  In78  1  0.16632315  0.84086907  0.49619149  1
  In  In79  1  0.83338465  0.50043339  -0.01016559  1
  In  In80  1  0.49061911  0.50153313  0.00013482  1
  In  In81  1  0.66347501  0.66172764  0.25315577  1
  In  In82  1  0.00252077  -0.00102357  0.75202552  1
  In  In83  1  0.16491123  0.16274018  -0.00405592  1
  In  In84  1  0.49895999  0.49774588  0.49418241  1
  In  In85  1  0.83777298  0.49735455  0.49960815  1
  Cu  Cu86  1  0.32598590  0.67077096  -0.00009504  1
  Cu  Cu87  1  0.49331552  0.49266065  0.25194571  1
  Cu  Cu88  1  0.17087200  0.50189552  0.24724268  1
  Cu  Cu89  1  0.16692905  0.50365308  0.75051746  1
  Cu  Cu90  1  0.00767063  0.66517891  0.49927679  1
  Cu  Cu91  1  0.32931031  0.00309761  0.50137066  1
  Cu  Cu92  1  0.17085924  0.82415873  0.24705211  1
  Cu  Cu93  1  0.83757323  0.50036356  0.24981563  1
  Cu  Cu94  1  0.17124734  0.17108832  0.25160466  1
  Cu  Cu95  1  0.33534333  0.32975068  -0.00502636  1
  Cu  Cu96  1  0.65737224  0.67167270  0.50694037  1
  Cu  Cu97  1  0.49424211  0.83176679  0.24432525  1
  Cu  Cu98  1  0.49629361  0.16789465  0.25389610  1
  Cu  Cu99  1  0.83595406  0.16685678  0.74886771  1
  Cu  Cu100  1  0.49543771  0.50087934  0.74851815  1
  Cu  Cu101  1  0.00351786  0.66504600  -0.00393126  1
  Cu  Cu102  1  0.50239715  0.83208149  0.75280784  1
  Cu  Cu103  1  0.66690589  0.32870977  -0.00182393  1
  Cu  Cu104  1  0.50035067  0.16834979  0.75475033  1
  Cu  Cu105  1  0.83207297  0.17015213  0.24703758  1
  Cu  Cu106  1  0.83462776  0.49647338  0.75478697  1
  Cu  Cu107  1  0.33475430  -0.00258838  -0.00076429  1
  Cu  Cu108  1  0.32997979  0.32889333  0.50394447  1
  Cu  Cu109  1  -0.00023889  0.33574578  0.50582179  1
  Cu  Cu110  1  0.66278971  0.00411365  -0.00000555  1
  Cu  Cu111  1  0.33337900  0.67216841  0.50844200  1
  Cu  Cu112  1  0.16752388  0.82890953  0.75488771  1
  Cu  Cu113  1  0.66571967  0.67676706  -0.00416229  1
  Cu  Cu114  1  0.83495142  0.82735971  0.75611137  1
  Se  Se115  1  0.08010173  0.07663419  0.06305080  1
  Se  Se116  1  0.07531301  0.07518392  0.55114446  1
  Se  Se117  1  0.07704992  0.40467671  0.04557592  1
  Se  Se118  1  0.08585324  0.41995687  0.55449824  1
  Se  Se119  1  0.08658784  0.74789330  0.05126943  1
  Se  Se120  1  0.08142070  0.74890967  0.56053446  1
  Se  Se121  1  0.41599156  0.08515230  0.05139706  1
  Se  Se122  1  0.40083708  0.08429132  0.56734186  1
  Se  Se123  1  0.40918773  0.40858187  0.06280106  1
  Se  Se124  1  0.41272247  0.41096761  0.56046426  1
  Se  Se125  1  0.41489320  0.75174276  0.05055739  1
  Se  Se126  1  0.41676422  0.75624195  0.55848475  1
  Se  Se127  1  0.74902795  0.08444789  0.05427453  1
  Se  Se128  1  0.72555209  0.06158057  0.55469787  1
  Se  Se129  1  0.74039380  0.41737553  0.05669026  1
  Se  Se130  1  0.74496473  0.41257607  0.55896806  1
  Se  Se131  1  0.75385914  0.75177165  0.05116241  1
  Se  Se132  1  0.74801629  0.74187148  0.56562948  1
  Se  Se133  1  0.25774905  0.24914358  0.05923122  1
  Se  Se134  1  0.24933114  0.24630234  0.56007448  1
  Se  Se135  1  0.24954414  0.58018643  0.05309570  1
  Se  Se136  1  0.24809508  0.58432108  0.55325770  1
  Se  Se137  1  0.24866046  0.91591072  0.05091047  1
  Se  Se138  1  0.25028341  0.92405880  0.56449577  1
  Se  Se139  1  0.58047713  0.25028512  0.05327497  1
  Se  Se140  1  0.58925439  0.25968859  0.55583598  1
  Se  Se141  1  0.58833525  0.59363982  0.05572626  1
  Se  Se142  1  0.58254455  0.58402876  0.56374136  1
  Se  Se143  1  0.58136869  0.91510319  0.05020250  1
  Se  Se144  1  0.58790566  0.92512578  0.55084564  1
  Se  Se145  1  0.91200917  0.25616356  0.04321909  1
  Se  Se146  1  0.91096095  0.25412868  0.55495915  1
  Se  Se147  1  0.91977533  0.58695644  0.05709817  1
  Se  Se148  1  0.92569727  0.58749314  0.56077162  1
  Se  Se149  1  0.92156479  0.91851612  0.04934615  1
  Se  Se150  1  0.92578405  0.92199735  0.55707521  1
  Se  Se151  1  0.08369772  0.25059733  0.45241357  1
  Se  Se152  1  0.08266615  0.25484325  0.93459086  1
  Se  Se153  1  0.08940718  0.57975725  0.44792196  1
  Se  Se154  1  0.08849792  0.58069924  0.94649359  1
  Se  Se155  1  0.06849955  0.92945216  0.44127369  1
  Se  Se156  1  0.07424703  0.93186891  0.95244543  1
  Se  Se157  1  0.41310383  0.25251460  0.44347426  1
  Se  Se158  1  0.41970412  0.24681962  0.94421766  1
  Se  Se159  1  0.40690174  0.59239095  0.44065978  1
  Se  Se160  1  0.40690992  0.59198986  0.93730554  1
  Se  Se161  1  0.40990265  0.91520351  0.44948459  1
  Se  Se162  1  0.41840761  0.91238196  0.94695520  1
  Se  Se163  1  0.75878761  0.24425561  0.44951049  1
  Se  Se164  1  0.75072413  0.24719940  0.94478972  1
  Se  Se165  1  0.73979621  0.59386575  0.44563093  1
  Se  Se166  1  0.73971620  0.59254190  0.93504464  1
  Se  Se167  1  0.74030518  0.92181399  0.43439039  1
  Se  Se168  1  0.74988457  0.91947266  0.95014491  1
  Se  Se169  1  0.24811828  0.08691054  0.44686475  1
  Se  Se170  1  0.25950219  0.07791307  0.93558029  1
  Se  Se171  1  0.24935632  0.41473359  0.44986727  1
  Se  Se172  1  0.24946627  0.41481071  0.94747956  1
  Se  Se173  1  0.25571699  0.74666623  0.43976840  1
  Se  Se174  1  0.24468336  0.75491212  0.94529915  1
  Se  Se175  1  0.58322114  0.07645634  0.43490230  1
  Se  Se176  1  0.58017343  0.08760688  0.94707641  1
  Se  Se177  1  0.59670525  0.40590471  0.44355110  1
  Se  Se178  1  0.58566762  0.41349143  0.94194740  1
  Se  Se179  1  0.57573628  0.75496964  0.45358423  1
  Se  Se180  1  0.57807177  0.75649767  0.94436450  1
  Se  Se181  1  0.90261544  0.08976810  0.45516556  1
  Se  Se182  1  0.91907372  0.09287786  0.95531265  1
  Se  Se183  1  0.92571671  0.40910289  0.43494131  1
  Se  Se184  1  0.92223444  0.40981155  0.93392865  1
  Se  Se185  1  0.92274495  0.74444751  0.44239869  1
  Se  Se186  1  0.91450430  0.74859564  0.94801012  1
  Se  Se187  1  0.25234933  0.25491118  0.30576362  1
  Se  Se188  1  0.25208465  0.25085091  0.79663103  1
  Se  Se189  1  0.25408435  0.58381501  0.30308794  1
  Se  Se190  1  0.25015042  0.58830604  0.80336471  1
  Se  Se191  1  0.24319305  0.91571527  0.30286976  1
  Se  Se192  1  0.25000219  0.91455917  0.80594983  1
  Se  Se193  1  0.58519642  0.24854298  0.30363007  1
  Se  Se194  1  0.58925469  0.24909775  0.80463971  1
  Se  Se195  1  0.57227840  0.57282243  0.31552057  1
  Se  Se196  1  0.58174536  0.58310565  0.80055514  1
  Se  Se197  1  0.57696749  0.90991191  0.30504674  1
  Se  Se198  1  0.58345937  0.91592977  0.81088608  1
  Se  Se199  1  0.92126967  0.24223928  0.30653340  1
  Se  Se200  1  0.92103761  0.24833102  0.80156139  1
  Se  Se201  1  0.92043593  0.58617362  0.29919678  1
  Se  Se202  1  0.92025902  0.58183806  0.80384359  1
  Se  Se203  1  0.90901322  0.91026344  0.30672007  1
  Se  Se204  1  0.91309447  0.91099254  0.81465973  1
  Se  Se205  1  0.08500547  0.09471985  0.31073132  1
  Se  Se206  1  0.09371678  0.09086891  0.80801356  1
  Se  Se207  1  0.08967306  0.42029331  0.30754766  1
  Se  Se208  1  0.08700436  0.41654190  0.80307381  1
  Se  Se209  1  0.08507684  0.74476214  0.30177918  1
  Se  Se210  1  0.07946828  0.75179192  0.80887621  1
  Se  Se211  1  0.41283354  0.08019666  0.30199837  1
  Se  Se212  1  0.41890704  0.08143919  0.80513848  1
  Se  Se213  1  0.41127056  0.40989243  0.30630631  1
  Se  Se214  1  0.41523958  0.41820396  0.80573190  1
  Se  Se215  1  0.41308646  0.74960030  0.30077803  1
  Se  Se216  1  0.41527413  0.74995112  0.80438788  1
  Se  Se217  1  0.75275474  0.08739199  0.30535349  1
  Se  Se218  1  0.76183756  0.08113694  0.80955337  1
  Se  Se219  1  0.75507532  0.41339817  0.29941351  1
  Se  Se220  1  0.74826099  0.41011311  0.80153285  1
  Se  Se221  1  0.75726674  0.75642802  0.30554445  1
  Se  Se222  1  0.74500974  0.74690556  0.80491794  1
  Se  Se223  1  0.25287124  0.08176530  0.20213535  1
  Se  Se224  1  0.26676608  0.06521037  0.70276003  1
  Se  Se225  1  0.25116158  0.41453592  0.19509748  1
  Se  Se226  1  0.24878189  0.41933219  0.69514467  1
  Se  Se227  1  0.25538136  0.74420070  0.19218337  1
  Se  Se228  1  0.25169797  0.74772140  0.69904993  1
  Se  Se229  1  0.57040704  0.09032162  0.18593127  1
  Se  Se230  1  0.57370348  0.09253578  0.68641359  1
  Se  Se231  1  0.58226811  0.41195576  0.20197122  1
  Se  Se232  1  0.58161601  0.41624639  0.69818337  1
  Se  Se233  1  0.58179296  0.75502663  0.18726621  1
  Se  Se234  1  0.58784329  0.75190544  0.69834275  1
  Se  Se235  1  0.91362716  0.08880546  0.18954185  1
  Se  Se236  1  0.91706550  0.08924913  0.68832118  1
  Se  Se237  1  0.91185500  0.42603611  0.18120289  1
  Se  Se238  1  0.91864662  0.41439006  0.69976075  1
  Se  Se239  1  0.92548012  0.75009585  0.19869889  1
  Se  Se240  1  0.92235005  0.74605194  0.70431922  1
  Se  Se241  1  0.09228284  0.24099941  0.18499125  1
  Se  Se242  1  0.08405493  0.24860766  0.69451504  1
  Se  Se243  1  0.08567737  0.58332269  0.19409057  1
  Se  Se244  1  0.08048502  0.58749915  0.69878859  1
  Se  Se245  1  0.09168796  0.90547857  0.18592824  1
  Se  Se246  1  0.09446042  0.91124637  0.68923911  1
  Se  Se247  1  0.41290200  0.25073398  0.19829813  1
  Se  Se248  1  0.41677907  0.25682539  0.70525535  1
  Se  Se249  1  0.41848299  0.58353938  0.19941635  1
  Se  Se250  1  0.41199984  0.58702084  0.69767494  1
  Se  Se251  1  0.41084926  0.91738479  0.19333453  1
  Se  Se252  1  0.41995926  0.91726095  0.70055873  1
  Se  Se253  1  0.74715360  0.25341224  0.19591975  1
  Se  Se254  1  0.74836192  0.24800878  0.69713454  1
  Se  Se255  1  0.75505603  0.57834671  0.18730811  1
  Se  Se256  1  0.75011542  0.58233376  0.70299561  1
  Se  Se257  1  0.76330852  0.90729336  0.19226724  1
  Se  Se258  1  0.76290770  0.90870231  0.69059067  1
