# generated using pymatgen
data_In86Cu29Se144
_symmetry_space_group_name_H-M   'P 1'
_cell_length_a   17.73067249
_cell_length_b   17.72767300
_cell_length_c   23.59058906
_cell_angle_alpha   90.05277200
_cell_angle_beta   89.94488433
_cell_angle_gamma   89.99919141
_symmetry_Int_Tables_number   1
_chemical_formula_structural   In86Cu29Se144
_chemical_formula_sum   'In86 Cu29 Se144'
_cell_volume   7415.07145313
_cell_formula_units_Z   1
loop_
 _symmetry_equiv_pos_site_id
 _symmetry_equiv_pos_as_xyz
  1  'x, y, z'
loop_
 _atom_site_type_symbol
 _atom_site_label
 _atom_site_symmetry_multiplicity
 _atom_site_fract_x
 _atom_site_fract_y
 _atom_site_fract_z
 _atom_site_occupancy
  In  In0  1  0.01748321  0.16887520  0.12304155  1
  In  In1  1  -0.00913512  0.16338101  0.62748983  1
  In  In2  1  -0.00575174  0.49022461  0.11452410  1
  In  In3  1  -0.00425693  0.48939019  0.63124341  1
  In  In4  1  0.00201062  0.82942253  0.11555719  1
  In  In5  1  -0.00236029  0.87259181  0.63593009  1
  In  In6  1  0.33267262  0.16557780  0.12623792  1
  In  In7  1  0.32947703  0.16644001  0.63085532  1
  In  In8  1  0.33245309  0.49774175  0.11749213  1
  In  In9  1  0.31702577  0.49509605  0.62961050  1
  In  In10  1  0.32989498  0.84324734  0.12914365  1
  In  In11  1  0.33711183  0.84206446  0.61998655  1
  In  In12  1  0.65979807  0.16850927  0.12976548  1
  In  In13  1  0.66134620  0.15851020  0.61116926  1
  In  In14  1  0.67556776  0.50949501  0.12162028  1
  In  In15  1  0.66268231  0.49630122  0.62124073  1
  In  In16  1  0.68121009  0.82537646  0.13845353  1
  In  In17  1  0.66854160  0.84340290  0.61142763  1
  In  In18  1  0.18016572  0.00711338  0.37319602  1
  In  In19  1  0.16890452  0.00521319  0.86994055  1
  In  In20  1  0.16069633  0.32092168  0.37204430  1
  In  In21  1  0.17345271  0.32397053  0.87057009  1
  In  In22  1  0.16554329  0.65752380  0.36596640  1
  In  In23  1  0.17264304  0.66691348  0.89319947  1
  In  In24  1  0.49290951  0.00308971  0.37517189  1
  In  In25  1  0.50458723  0.01319486  0.87814743  1
  In  In26  1  0.48792099  0.33416463  0.37495619  1
  In  In27  1  0.49198391  0.34178503  0.88446219  1
  In  In28  1  0.50710312  0.67752952  0.36014728  1
  In  In29  1  0.47263606  0.67341757  0.89068540  1
  In  In30  1  0.83376275  0.00491102  0.37971560  1
  In  In31  1  0.84495366  -0.01129330  0.87429644  1
  In  In32  1  0.83724599  0.32696450  0.37702280  1
  In  In33  1  0.85055667  0.32744190  0.87383095  1
  In  In34  1  0.83186683  0.68109741  0.36790408  1
  In  In35  1  0.83633377  0.66942151  0.88540733  1
  In  In36  1  0.00024562  0.17750773  0.38798492  1
  In  In37  1  0.03065686  0.19815327  0.82373847  1
  In  In38  1  0.00236413  0.49393196  0.37190898  1
  In  In39  1  0.01363361  0.48811145  0.88380612  1
  In  In40  1  -0.00686333  0.83320387  0.37889988  1
  In  In41  1  0.00815510  0.83430974  0.87638619  1
  In  In42  1  0.33338524  0.17178401  0.37772629  1
  In  In43  1  0.33377695  0.16598914  0.87357133  1
  In  In44  1  0.32626484  0.49810169  0.36087021  1
  In  In45  1  0.33625472  0.48979932  0.88683651  1
  In  In46  1  0.33860444  0.84315835  0.36548945  1
  In  In47  1  0.30310383  0.85076435  0.88691836  1
  In  In48  1  0.67216383  0.15747900  0.37923769  1
  In  In49  1  0.66453443  0.15899149  0.87987905  1
  In  In50  1  0.65708395  0.50210608  0.36510521  1
  In  In51  1  0.66276918  0.50513584  0.88858044  1
  In  In52  1  0.66335220  0.83517568  0.36739701  1
  In  In53  1  0.67454481  0.84485471  0.88100480  1
  In  In54  1  0.17383496  0.00920413  0.11533501  1
  In  In55  1  0.12500812  0.03395131  0.68112580  1
  In  In56  1  0.16879337  0.33337618  0.12261745  1
  In  In57  1  0.16248411  0.31660159  0.63911647  1
  In  In58  1  0.17972611  0.67207384  0.11212851  1
  In  In59  1  0.16463545  0.66991151  0.62300453  1
  In  In60  1  0.49693758  0.00865467  0.13101526  1
  In  In61  1  0.49306013  -0.00273544  0.61671623  1
  In  In62  1  0.49173079  0.31984539  0.11989436  1
  In  In63  1  0.49832434  0.32021537  0.62338932  1
  In  In64  1  0.50673047  0.66391234  0.12939075  1
  In  In65  1  0.48026484  0.67529220  0.62146769  1
  In  In66  1  0.83907712  -0.00841438  0.12800854  1
  In  In67  1  0.84102518  0.01133712  0.60488803  1
  In  In68  1  0.84085338  0.34659147  0.12784942  1
  In  In69  1  0.85309899  0.31077146  0.63883378  1
  In  In70  1  0.82788202  0.66364874  0.12513535  1
  In  In71  1  0.82126551  0.67246793  0.62048820  1
  In  In72  1  0.66393456  0.33075620  0.74859501  1
  In  In73  1  0.16397380  0.49414953  0.50311421  1
  In  In74  1  0.17160518  0.84183166  0.50572577  1
  In  In75  1  0.50497995  0.83607580  0.00987683  1
  In  In76  1  0.49620171  0.50495878  0.49067683  1
  In  In77  1  0.00061945  0.67064273  0.76097418  1
  In  In78  1  0.66764744  -0.00063347  0.74392360  1
  In  In79  1  0.33262487  0.66621704  0.76471586  1
  In  In80  1  0.00240565  0.00102990  0.25340628  1
  In  In81  1  0.65701390  0.66197312  0.75173942  1
  In  In82  1  0.84265229  0.16062683  -0.00723453  1
  In  In83  1  0.82871833  0.49824892  0.49495614  1
  In  In84  1  -0.00142138  0.66034453  0.23960340  1
  In  In85  1  0.66898061  0.33522919  0.24893727  1
  Cu  Cu86  1  0.65825208  -0.00378603  0.48906894  1
  Cu  Cu87  1  0.49461437  0.49477760  0.24236386  1
  Cu  Cu88  1  0.65900425  0.67707834  0.49298048  1
  Cu  Cu89  1  0.16323326  0.83359381  0.24559230  1
  Cu  Cu90  1  0.83234607  0.49409423  0.75659435  1
  Cu  Cu91  1  0.17478381  0.17000152  0.24809813  1
  Cu  Cu92  1  0.49060514  0.16995976  0.75137251  1
  Cu  Cu93  1  0.32973272  0.00926774  0.49940962  1
  Cu  Cu94  1  0.00834070  0.00348630  0.50788006  1
  Cu  Cu95  1  0.67399388  0.32952290  0.50120474  1
  Cu  Cu96  1  0.17232711  0.49951022  0.24175565  1
  Cu  Cu97  1  0.84049223  0.16748537  0.25811898  1
  Cu  Cu98  1  0.49710106  0.16443971  0.25087889  1
  Cu  Cu99  1  0.00827304  -0.00065954  -0.00461815  1
  Cu  Cu100  1  0.00091659  0.67059870  0.00274109  1
  Cu  Cu101  1  0.33569583  0.00541764  0.00156715  1
  Cu  Cu102  1  0.83555600  0.82819819  0.74973465  1
  Cu  Cu103  1  -0.00468117  0.67211550  0.50114051  1
  Cu  Cu104  1  0.00641046  0.32488758  -0.00805839  1
  Cu  Cu105  1  0.66948620  0.33213628  0.00940918  1
  Cu  Cu106  1  0.49521779  0.83894331  0.24836666  1
  Cu  Cu107  1  0.32862439  0.32173011  0.00139405  1
  Cu  Cu108  1  0.48912200  0.49705569  0.76130889  1
  Cu  Cu109  1  0.49708568  0.83600540  0.74383749  1
  Cu  Cu110  1  0.33084225  0.33004935  0.50358853  1
  Cu  Cu111  1  0.66858817  0.67024368  0.00836159  1
  Cu  Cu112  1  0.33547421  0.67720630  0.49193581  1
  Cu  Cu113  1  0.16135106  0.49099670  0.75491424  1
  Cu  Cu114  1  0.67284064  -0.00106712  0.00243961  1
  Se  Se115  1  0.08638464  0.08682332  0.04805547  1
  Se  Se116  1  0.08654033  0.07099690  0.57547743  1
  Se  Se117  1  0.08253812  0.40805070  0.05029078  1
  Se  Se118  1  0.07847966  0.40556910  0.56412649  1
  Se  Se119  1  0.09045847  0.75461038  0.04833859  1
  Se  Se120  1  0.07326710  0.75288723  0.56084436  1
  Se  Se121  1  0.41837424  0.08460703  0.05697906  1
  Se  Se122  1  0.41091010  0.08956883  0.55763942  1
  Se  Se123  1  0.41309017  0.40562275  0.05283405  1
  Se  Se124  1  0.40971935  0.41952101  0.55864477  1
  Se  Se125  1  0.41287485  0.74781754  0.06472761  1
  Se  Se126  1  0.41491592  0.75908445  0.54720276  1
  Se  Se127  1  0.75112180  0.08303587  0.06124467  1
  Se  Se128  1  0.74350655  0.07968665  0.54187192  1
  Se  Se129  1  0.75382032  0.41636963  0.05732478  1
  Se  Se130  1  0.75163089  0.40580450  0.56426677  1
  Se  Se131  1  0.75253860  0.75510020  0.05740876  1
  Se  Se132  1  0.74792605  0.75252200  0.54750747  1
  Se  Se133  1  0.24625902  0.24218883  0.05629775  1
  Se  Se134  1  0.25016543  0.25451027  0.56281174  1
  Se  Se135  1  0.24465231  0.57261784  0.04925109  1
  Se  Se136  1  0.25958430  0.59368013  0.55291891  1
  Se  Se137  1  0.25415912  0.91812224  0.05199540  1
  Se  Se138  1  0.25016798  0.93716884  0.56479975  1
  Se  Se139  1  0.58569447  0.24419681  0.05435969  1
  Se  Se140  1  0.58213231  0.25175533  0.55018832  1
  Se  Se141  1  0.58425567  0.58454256  0.05563868  1
  Se  Se142  1  0.58470893  0.59419804  0.55648343  1
  Se  Se143  1  0.59528903  0.92435324  0.06744146  1
  Se  Se144  1  0.57649036  0.91741428  0.54783699  1
  Se  Se145  1  0.92383406  0.25361074  0.05749313  1
  Se  Se146  1  0.91153727  0.24288645  0.55483690  1
  Se  Se147  1  0.91784249  0.58912486  0.05618106  1
  Se  Se148  1  0.92003985  0.58571240  0.56084734  1
  Se  Se149  1  0.92425655  0.92423228  0.05388512  1
  Se  Se150  1  0.92016407  0.91130440  0.54843273  1
  Se  Se151  1  0.09407715  0.24980653  0.45192387  1
  Se  Se152  1  0.07317690  0.24143747  0.92585435  1
  Se  Se153  1  0.07565513  0.59130584  0.44370442  1
  Se  Se154  1  0.08131046  0.58326556  0.95097192  1
  Se  Se155  1  0.08101990  0.92708373  0.43962330  1
  Se  Se156  1  0.09272780  0.91763933  0.94146179  1
  Se  Se157  1  0.41691608  0.25255846  0.44892332  1
  Se  Se158  1  0.41570725  0.24579865  0.94512225  1
  Se  Se159  1  0.40697690  0.59223123  0.43037259  1
  Se  Se160  1  0.43134028  0.56213086  0.95050970  1
  Se  Se161  1  0.40532456  0.92294950  0.44344014  1
  Se  Se162  1  0.41755298  0.92243633  0.94334178  1
  Se  Se163  1  0.75218776  0.24822748  0.44370623  1
  Se  Se164  1  0.74609143  0.25681500  0.94208457  1
  Se  Se165  1  0.73746899  0.58866419  0.43768869  1
  Se  Se166  1  0.75079697  0.58825420  0.95095554  1
  Se  Se167  1  0.74596979  0.91584699  0.43865496  1
  Se  Se168  1  0.75840148  0.92021080  0.94972973  1
  Se  Se169  1  0.24707293  0.09162693  0.44688776  1
  Se  Se170  1  0.25197812  0.08217922  0.94265528  1
  Se  Se171  1  0.25811249  0.41408916  0.44104010  1
  Se  Se172  1  0.24630351  0.40433474  0.94624486  1
  Se  Se173  1  0.24618955  0.74882563  0.43452973  1
  Se  Se174  1  0.29198680  0.72479779  0.93909045  1
  Se  Se175  1  0.57602025  0.08659343  0.44342295  1
  Se  Se176  1  0.58695595  0.08206595  0.95322989  1
  Se  Se177  1  0.59297159  0.40895272  0.44142253  1
  Se  Se178  1  0.58663784  0.41165158  0.95095837  1
  Se  Se179  1  0.57628001  0.75500439  0.43770575  1
  Se  Se180  1  0.59054352  0.74692120  0.94254414  1
  Se  Se181  1  0.92654144  0.07732124  0.44645160  1
  Se  Se182  1  0.93352263  0.07908623  0.93256368  1
  Se  Se183  1  0.92857732  0.40923193  0.44676059  1
  Se  Se184  1  0.91828144  0.41217644  0.94714519  1
  Se  Se185  1  0.91169512  0.74938318  0.44552977  1
  Se  Se186  1  0.92229185  0.75514289  0.94581839  1
  Se  Se187  1  0.25444918  0.25306058  0.30454146  1
  Se  Se188  1  0.24443309  0.23309205  0.80045871  1
  Se  Se189  1  0.25107705  0.58828909  0.29415364  1
  Se  Se190  1  0.23929154  0.57107826  0.81576433  1
  Se  Se191  1  0.24382012  0.91704288  0.30103134  1
  Se  Se192  1  0.25355295  0.92253487  0.80210606  1
  Se  Se193  1  0.57903365  0.24651880  0.30998566  1
  Se  Se194  1  0.57612137  0.24341620  0.81181257  1
  Se  Se195  1  0.57653642  0.57924466  0.29559219  1
  Se  Se196  1  0.56792409  0.58161591  0.81756491  1
  Se  Se197  1  0.57437603  0.92046457  0.30561668  1
  Se  Se198  1  0.57945338  0.90984565  0.80745998  1
  Se  Se199  1  0.92411068  0.24894741  0.30943637  1
  Se  Se200  1  0.89450191  0.23575148  0.79751321  1
  Se  Se201  1  0.91318778  0.57880354  0.30925565  1
  Se  Se202  1  0.91187420  0.57473710  0.81557828  1
  Se  Se203  1  0.90998551  0.91038401  0.30736589  1
  Se  Se204  1  0.92178638  0.90634389  0.80279682  1
  Se  Se205  1  0.09071116  0.09484524  0.30964265  1
  Se  Se206  1  0.07001893  0.06073894  0.79645506  1
  Se  Se207  1  0.09674200  0.42367667  0.30738763  1
  Se  Se208  1  0.07989270  0.40746585  0.80676834  1
  Se  Se209  1  0.08258265  0.75612517  0.30568365  1
  Se  Se210  1  0.10373497  0.74985845  0.81299675  1
  Se  Se211  1  0.41146183  0.08716175  0.30690873  1
  Se  Se212  1  0.41895998  0.08007192  0.80616247  1
  Se  Se213  1  0.41656091  0.41418538  0.30042238  1
  Se  Se214  1  0.40845877  0.41055455  0.80957189  1
  Se  Se215  1  0.41071806  0.75181812  0.29790399  1
  Se  Se216  1  0.42108708  0.76728127  0.81309444  1
  Se  Se217  1  0.75579814  0.08440750  0.30665776  1
  Se  Se218  1  0.75308184  0.08082632  0.81149137  1
  Se  Se219  1  0.75985964  0.42209651  0.30933748  1
  Se  Se220  1  0.74625728  0.42068462  0.81482454  1
  Se  Se221  1  0.73759065  0.74326269  0.30125114  1
  Se  Se222  1  0.75170906  0.75278921  0.80847080  1
  Se  Se223  1  0.24837770  0.08104873  0.19364775  1
  Se  Se224  1  0.24060297  0.11515584  0.71204901  1
  Se  Se225  1  0.25397784  0.41495076  0.18998823  1
  Se  Se226  1  0.24503440  0.41091402  0.69998943  1
  Se  Se227  1  0.24530712  0.75257694  0.19119092  1
  Se  Se228  1  0.25645294  0.74616297  0.68854258  1
  Se  Se229  1  0.58573514  0.08474803  0.20044109  1
  Se  Se230  1  0.57295348  0.09147585  0.69028810  1
  Se  Se231  1  0.57875418  0.41607676  0.18397388  1
  Se  Se232  1  0.57047855  0.42656211  0.69373775  1
  Se  Se233  1  0.57951067  0.75446806  0.19715763  1
  Se  Se234  1  0.57736660  0.75532757  0.68589110  1
  Se  Se235  1  0.91788946  0.09397273  0.19122977  1
  Se  Se236  1  0.91152640  0.06780387  0.68884535  1
  Se  Se237  1  0.93265880  0.41205127  0.19530289  1
  Se  Se238  1  0.91528185  0.41317418  0.70304722  1
  Se  Se239  1  0.91281066  0.76026086  0.18967582  1
  Se  Se240  1  0.91634541  0.75125208  0.68736502  1
  Se  Se241  1  0.08891311  0.25137726  0.19568109  1
  Se  Se242  1  0.06417722  0.24694386  0.70315910  1
  Se  Se243  1  0.09259328  0.57738462  0.18076152  1
  Se  Se244  1  0.08779195  0.57792188  0.69464646  1
  Se  Se245  1  0.08650159  0.91522980  0.18651794  1
  Se  Se246  1  0.11647805  0.88920234  0.69350511  1
  Se  Se247  1  0.41550127  0.24704686  0.19671946  1
  Se  Se248  1  0.41371973  0.25632174  0.69720808  1
  Se  Se249  1  0.41515174  0.57913091  0.18873989  1
  Se  Se250  1  0.41733195  0.57693696  0.69426843  1
  Se  Se251  1  0.41353365  0.92398734  0.19643445  1
  Se  Se252  1  0.41687540  0.92109761  0.69218635  1
  Se  Se253  1  0.76317118  0.24402430  0.19232157  1
  Se  Se254  1  0.74354235  0.23277760  0.68955454  1
  Se  Se255  1  0.75678511  0.57734090  0.19574380  1
  Se  Se256  1  0.75525091  0.57287802  0.69370381  1
  Se  Se257  1  0.74898334  0.92807004  0.19763219  1
  Se  Se258  1  0.75786563  0.90761523  0.68764220  1
