# generated using pymatgen
data_In86Cu29Se144
_symmetry_space_group_name_H-M   'P 1'
_cell_length_a   17.58755335
_cell_length_b   17.58699136
_cell_length_c   23.44892748
_cell_angle_alpha   90.02795002
_cell_angle_beta   89.97346304
_cell_angle_gamma   89.99598301
_symmetry_Int_Tables_number   1
_chemical_formula_structural   In86Cu29Se144
_chemical_formula_sum   'In86 Cu29 Se144'
_cell_volume   7253.03649093
_cell_formula_units_Z   1
loop_
 _symmetry_equiv_pos_site_id
 _symmetry_equiv_pos_as_xyz
  1  'x, y, z'
loop_
 _atom_site_type_symbol
 _atom_site_label
 _atom_site_symmetry_multiplicity
 _atom_site_fract_x
 _atom_site_fract_y
 _atom_site_fract_z
 _atom_site_occupancy
  In  In0  1  0.00013082  0.18658524  0.11885737  1
  In  In1  1  -0.01390918  0.18170813  0.63596551  1
  In  In2  1  -0.00357646  0.49737641  0.12573983  1
  In  In3  1  -0.00567155  0.50349160  0.63229045  1
  In  In4  1  -0.00861173  0.81804975  0.12159907  1
  In  In5  1  0.01431021  0.82434582  0.63182780  1
  In  In6  1  0.33786700  0.16611999  0.13162666  1
  In  In7  1  0.35042071  0.16885162  0.61888500  1
  In  In8  1  0.33766476  0.49817267  0.13245576  1
  In  In9  1  0.35119198  0.48249469  0.63065899  1
  In  In10  1  0.33894128  0.82914966  0.12522611  1
  In  In11  1  0.32788380  0.83313240  0.62164370  1
  In  In12  1  0.66737792  0.16988895  0.10910477  1
  In  In13  1  0.64973981  0.18731749  0.63807559  1
  In  In14  1  0.66916310  0.50178799  0.11508106  1
  In  In15  1  0.66184898  0.50032564  0.62611825  1
  In  In16  1  0.66235107  0.84443386  0.11920099  1
  In  In17  1  0.66568068  0.82706399  0.64670029  1
  In  In18  1  0.17011651  -0.01542683  0.37771815  1
  In  In19  1  0.17045658  0.00740194  0.87545739  1
  In  In20  1  0.16520213  0.33324586  0.37203883  1
  In  In21  1  0.16775764  0.33016118  0.86923685  1
  In  In22  1  0.17160644  0.67077473  0.37323578  1
  In  In23  1  0.16344527  0.66460332  0.86859493  1
  In  In24  1  0.49906422  0.01433671  0.37531483  1
  In  In25  1  0.50633202  -0.00797045  0.88525955  1
  In  In26  1  0.48190411  0.34853037  0.39953357  1
  In  In27  1  0.49936521  0.33366596  0.87445713  1
  In  In28  1  0.48639115  0.66415061  0.37306120  1
  In  In29  1  0.50098942  0.65824661  0.87269370  1
  In  In30  1  0.82531920  0.01164685  0.37410126  1
  In  In31  1  0.83478921  0.00194895  0.87153948  1
  In  In32  1  0.84023238  0.33764287  0.37301162  1
  In  In33  1  0.83152586  0.33610135  0.87065066  1
  In  In34  1  0.83166627  0.64762026  0.37702440  1
  In  In35  1  0.81150702  0.64105980  0.85031666  1
  In  In36  1  -0.01173333  0.17968602  0.37309665  1
  In  In37  1  -0.00088130  0.16370260  0.87213754  1
  In  In38  1  -0.00873143  0.49455633  0.36739397  1
  In  In39  1  -0.02927942  0.47632205  0.84808348  1
  In  In40  1  0.01941959  0.82932907  0.37884334  1
  In  In41  1  -0.00942436  0.82486782  0.86980470  1
  In  In42  1  0.34764836  0.17749692  0.36218579  1
  In  In43  1  0.33076210  0.17748583  0.87769355  1
  In  In44  1  0.33277960  0.50030831  0.37288887  1
  In  In45  1  0.33746768  0.51002627  0.86794982  1
  In  In46  1  0.32378211  0.82072612  0.36721365  1
  In  In47  1  0.37349099  0.83476631  0.87130093  1
  In  In48  1  0.65740320  0.16719765  0.38275689  1
  In  In49  1  0.66617226  0.16995698  0.87039849  1
  In  In50  1  0.66611519  0.48788353  0.39231954  1
  In  In51  1  0.67234795  0.48973131  0.87008715  1
  In  In52  1  0.67079681  0.83732860  0.38477199  1
  In  In53  1  0.63869579  0.82136786  0.85597731  1
  In  In54  1  0.17210326  0.01118316  0.12772774  1
  In  In55  1  0.17292022  -0.01458808  0.62280474  1
  In  In56  1  0.16295086  0.34073312  0.13552200  1
  In  In57  1  0.16855642  0.33053458  0.63100103  1
  In  In58  1  0.16605863  0.66643379  0.12784169  1
  In  In59  1  0.16461197  0.67089439  0.62531073  1
  In  In60  1  0.48628530  -0.00367253  0.10682969  1
  In  In61  1  0.50147634  0.00720965  0.63019140  1
  In  In62  1  0.49646668  0.32996194  0.11713962  1
  In  In63  1  0.50074439  0.33337289  0.62018624  1
  In  In64  1  0.49163331  0.65646761  0.11548317  1
  In  In65  1  0.52043199  0.65208121  0.64781383  1
  In  In66  1  0.82241249  0.00337457  0.11903519  1
  In  In67  1  0.83101936  0.00807450  0.63822499  1
  In  In68  1  0.84984143  0.34742122  0.10088344  1
  In  In69  1  0.80264816  0.38007033  0.66789475  1
  In  In70  1  0.84437720  0.65936542  0.12708560  1
  In  In71  1  0.84118135  0.64830646  0.64145450  1
  In  In72  1  0.33398044  0.00172125  0.75027784  1
  In  In73  1  0.17352595  0.82886148  0.00285419  1
  In  In74  1  0.00602213  -0.00058999  0.25043638  1
  In  In75  1  0.16320980  0.50263497  0.00388941  1
  In  In76  1  0.66640368  0.33180286  0.25136547  1
  In  In77  1  0.17117334  0.50486234  0.49490903  1
  In  In78  1  0.17222858  0.16115894  0.50480744  1
  In  In79  1  0.83795917  0.82300956  0.51851559  1
  In  In80  1  0.66563081  0.66075938  0.24263427  1
  In  In81  1  0.17045115  0.17204639  -0.00385746  1
  In  In82  1  0.66094843  0.00220065  0.24667031  1
  In  In83  1  0.83134648  0.17856888  0.50189498  1
  In  In84  1  0.82543287  0.83026839  -0.00446901  1
  In  In85  1  0.49394450  0.82869015  0.50504342  1
  Cu  Cu86  1  -0.01120601  0.64999333  -0.00808253  1
  Cu  Cu87  1  0.16747643  0.83641314  0.75203749  1
  Cu  Cu88  1  0.66659970  0.33404396  -0.00850740  1
  Cu  Cu89  1  0.33664105  0.34107649  0.00130414  1
  Cu  Cu90  1  0.34184791  0.67207713  -0.00647016  1
  Cu  Cu91  1  0.83707962  0.84191790  0.75259724  1
  Cu  Cu92  1  0.49407423  0.83711205  0.24573107  1
  Cu  Cu93  1  0.17126458  0.83013221  0.24878369  1
  Cu  Cu94  1  0.16431035  0.16562434  0.74986848  1
  Cu  Cu95  1  -0.00373738  0.34160910  0.50265527  1
  Cu  Cu96  1  0.33145036  -0.00447585  0.49845878  1
  Cu  Cu97  1  0.66331529  0.00028603  -0.00936828  1
  Cu  Cu98  1  0.84239242  0.82321340  0.25471301  1
  Cu  Cu99  1  0.33508343  0.66325881  0.50103966  1
  Cu  Cu100  1  0.83873103  0.18004906  0.24096291  1
  Cu  Cu101  1  0.16876701  0.50487036  0.74467840  1
  Cu  Cu102  1  0.00577360  0.00001567  0.50561554  1
  Cu  Cu103  1  0.16563817  0.50474217  0.25261599  1
  Cu  Cu104  1  0.49714387  0.17005685  0.24434327  1
  Cu  Cu105  1  0.50017381  0.49128581  0.75293968  1
  Cu  Cu106  1  0.17075150  0.16699743  0.25195612  1
  Cu  Cu107  1  0.66581524  0.66333920  -0.01065772  1
  Cu  Cu108  1  0.50184679  0.17243648  0.74975163  1
  Cu  Cu109  1  -0.00028569  -0.00002512  -0.00842412  1
  Cu  Cu110  1  0.66712335  0.00336349  0.51010195  1
  Cu  Cu111  1  0.66339656  0.65587305  0.50806835  1
  Cu  Cu112  1  0.49918546  0.49882630  0.25435842  1
  Cu  Cu113  1  0.83569794  0.16451326  0.75617014  1
  Cu  Cu114  1  -0.00276538  0.66597190  0.50790141  1
  Se  Se115  1  0.07646247  0.07827079  0.05578215  1
  Se  Se116  1  0.07590406  0.08427596  0.56872137  1
  Se  Se117  1  0.07631763  0.40312598  0.05631744  1
  Se  Se118  1  0.08360611  0.41673894  0.55964317  1
  Se  Se119  1  0.07161335  0.73247376  0.04956441  1
  Se  Se120  1  0.08595323  0.75138362  0.55143536  1
  Se  Se121  1  0.42282380  0.10701701  0.05388789  1
  Se  Se122  1  0.41857396  0.07225828  0.55246383  1
  Se  Se123  1  0.41710247  0.42635316  0.05566535  1
  Se  Se124  1  0.41974350  0.41555955  0.54887611  1
  Se  Se125  1  0.42116860  0.75507496  0.05078756  1
  Se  Se126  1  0.41723040  0.73279860  0.56763093  1
  Se  Se127  1  0.74968856  0.08060446  0.04403862  1
  Se  Se128  1  0.74625243  0.08845538  0.56601073  1
  Se  Se129  1  0.74809904  0.42070904  0.04346694  1
  Se  Se130  1  0.75895750  0.41954423  0.56787271  1
  Se  Se131  1  0.74085794  0.73787804  0.06049897  1
  Se  Se132  1  0.73915953  0.73747425  0.57107056  1
  Se  Se133  1  0.25348011  0.26335293  0.06187891  1
  Se  Se134  1  0.25995308  0.25897777  0.55665181  1
  Se  Se135  1  0.26033512  0.59493267  0.05671653  1
  Se  Se136  1  0.25918062  0.58222196  0.56412751  1
  Se  Se137  1  0.25655017  0.92676667  0.05961112  1
  Se  Se138  1  0.24828143  0.90924120  0.54675902  1
  Se  Se139  1  0.58096653  0.25409105  0.04581898  1
  Se  Se140  1  0.58031276  0.24348507  0.55329213  1
  Se  Se141  1  0.58385161  0.58327028  0.04867553  1
  Se  Se142  1  0.57160129  0.58094868  0.55905962  1
  Se  Se143  1  0.58196191  0.91649116  0.04553679  1
  Se  Se144  1  0.59161746  0.91313627  0.56508966  1
  Se  Se145  1  0.89765294  0.22697903  0.04827953  1
  Se  Se146  1  0.91385181  0.26895170  0.56418168  1
  Se  Se147  1  0.91057742  0.57292213  0.05274815  1
  Se  Se148  1  0.91461054  0.58128885  0.55861062  1
  Se  Se149  1  0.92235800  0.92038317  0.05524662  1
  Se  Se150  1  0.92368388  0.92610337  0.56813772  1
  Se  Se151  1  0.07564602  0.25527602  0.44738540  1
  Se  Se152  1  0.07459801  0.26017700  0.94223037  1
  Se  Se153  1  0.07349991  0.59047828  0.43934625  1
  Se  Se154  1  0.07610732  0.57814781  0.93377351  1
  Se  Se155  1  0.08717222  0.91525852  0.45323998  1
  Se  Se156  1  0.08124787  0.91468628  0.93940755  1
  Se  Se157  1  0.42398170  0.22893250  0.44663741  1
  Se  Se158  1  0.41564421  0.25441891  0.94753155  1
  Se  Se159  1  0.41518220  0.57993422  0.44570138  1
  Se  Se160  1  0.41821522  0.57851288  0.94545940  1
  Se  Se161  1  0.41277029  0.91612034  0.43551066  1
  Se  Se162  1  0.40949117  0.92438795  0.95157666  1
  Se  Se163  1  0.74000533  0.26516644  0.44059673  1
  Se  Se164  1  0.75115712  0.25006642  0.94005163  1
  Se  Se165  1  0.75134130  0.57926532  0.45351408  1
  Se  Se166  1  0.75144659  0.58008763  0.93952189  1
  Se  Se167  1  0.75417559  0.92612251  0.45343097  1
  Se  Se168  1  0.73768176  0.91308025  0.93070649  1
  Se  Se169  1  0.25799213  0.07902059  0.43639156  1
  Se  Se170  1  0.26378995  0.07486746  0.94696021  1
  Se  Se171  1  0.25706006  0.40473910  0.44338070  1
  Se  Se172  1  0.25302232  0.41536297  0.94046562  1
  Se  Se173  1  0.25289579  0.74691171  0.44734581  1
  Se  Se174  1  0.25839821  0.74800453  0.93403395  1
  Se  Se175  1  0.58311976  0.07917324  0.45225914  1
  Se  Se176  1  0.58250627  0.09213714  0.94355633  1
  Se  Se177  1  0.58200661  0.41375814  0.46163388  1
  Se  Se178  1  0.58205080  0.41941551  0.94182057  1
  Se  Se179  1  0.58944399  0.73902558  0.44441892  1
  Se  Se180  1  0.58055303  0.74850741  0.94147423  1
  Se  Se181  1  0.92481000  0.07860922  0.44529602  1
  Se  Se182  1  0.91572927  0.08354786  0.94243739  1
  Se  Se183  1  0.91517587  0.42158722  0.44551070  1
  Se  Se184  1  0.91165749  0.42276829  0.93901534  1
  Se  Se185  1  0.92041756  0.74729459  0.44272120  1
  Se  Se186  1  0.90861890  0.73536245  0.93629982  1
  Se  Se187  1  0.25114923  0.25535680  0.30269562  1
  Se  Se188  1  0.25159627  0.24789532  0.80104336  1
  Se  Se189  1  0.25165491  0.58530572  0.30550713  1
  Se  Se190  1  0.25025765  0.58745268  0.79976158  1
  Se  Se191  1  0.25193407  0.91706742  0.30071637  1
  Se  Se192  1  0.25183935  0.90743126  0.81492593  1
  Se  Se193  1  0.57384499  0.24512118  0.31036052  1
  Se  Se194  1  0.58503324  0.25686599  0.80264445  1
  Se  Se195  1  0.58357285  0.57536157  0.31402366  1
  Se  Se196  1  0.58523043  0.57494814  0.80471164  1
  Se  Se197  1  0.57755898  0.90740706  0.31087836  1
  Se  Se198  1  0.57260346  0.92898865  0.80009227  1
  Se  Se199  1  0.91982161  0.26116268  0.29757681  1
  Se  Se200  1  0.91989184  0.25083205  0.80525817  1
  Se  Se201  1  0.92092253  0.59116759  0.30238056  1
  Se  Se202  1  0.93482227  0.60254480  0.79967853  1
  Se  Se203  1  0.91205557  0.91434123  0.31436717  1
  Se  Se204  1  0.92362392  0.92280807  0.80434625  1
  Se  Se205  1  0.08983226  0.09134613  0.31659494  1
  Se  Se206  1  0.08562020  0.08040754  0.80489082  1
  Se  Se207  1  0.08419411  0.41649504  0.30407640  1
  Se  Se208  1  0.09182061  0.41856755  0.80099804  1
  Se  Se209  1  0.08608018  0.74909900  0.30154156  1
  Se  Se210  1  0.08237741  0.75194051  0.80250052  1
  Se  Se211  1  0.41891738  0.07883945  0.29661335  1
  Se  Se212  1  0.42059578  0.09222312  0.81077055  1
  Se  Se213  1  0.42146558  0.41300465  0.31040855  1
  Se  Se214  1  0.41135962  0.41230515  0.80520036  1
  Se  Se215  1  0.41634596  0.74829317  0.29895251  1
  Se  Se216  1  0.41070245  0.73168745  0.80168159  1
  Se  Se217  1  0.75345260  0.10201435  0.30096774  1
  Se  Se218  1  0.74730119  0.08101214  0.80411931  1
  Se  Se219  1  0.75223281  0.42831429  0.30931419  1
  Se  Se220  1  0.76080929  0.42193705  0.79494089  1
  Se  Se221  1  0.74930577  0.75343851  0.31088273  1
  Se  Se222  1  0.75006624  0.75767608  0.80071466  1
  Se  Se223  1  0.25402173  0.08302061  0.20067402  1
  Se  Se224  1  0.24621321  0.09092903  0.68549955  1
  Se  Se225  1  0.25088586  0.42044319  0.20072377  1
  Se  Se226  1  0.25165465  0.41534202  0.69654846  1
  Se  Se227  1  0.25309372  0.74795735  0.19273803  1
  Se  Se228  1  0.24733357  0.75515454  0.69376050  1
  Se  Se229  1  0.57845019  0.09109554  0.18260323  1
  Se  Se230  1  0.58486276  0.08326421  0.70081791  1
  Se  Se231  1  0.57926936  0.42497751  0.18943314  1
  Se  Se232  1  0.58084963  0.41202040  0.69445250  1
  Se  Se233  1  0.57702152  0.75808747  0.18645867  1
  Se  Se234  1  0.57104713  0.75945982  0.71260483  1
  Se  Se235  1  0.91293990  0.08535826  0.18813257  1
  Se  Se236  1  0.92338128  0.08295362  0.70382273  1
  Se  Se237  1  0.91617850  0.40431173  0.18810938  1
  Se  Se238  1  0.93714263  0.40752177  0.70457237  1
  Se  Se239  1  0.92328970  0.74089720  0.19991046  1
  Se  Se240  1  0.91392311  0.75702121  0.69496283  1
  Se  Se241  1  0.08411096  0.24552631  0.19791020  1
  Se  Se242  1  0.08257942  0.25417384  0.70043115  1
  Se  Se243  1  0.08346211  0.58007126  0.19188189  1
  Se  Se244  1  0.08355983  0.58863372  0.69446955  1
  Se  Se245  1  0.08847988  0.90551303  0.18457947  1
  Se  Se246  1  0.08648576  0.92095068  0.69793382  1
  Se  Se247  1  0.41649774  0.26075270  0.19526497  1
  Se  Se248  1  0.41771188  0.25163067  0.69387246  1
  Se  Se249  1  0.42182566  0.58557268  0.19805630  1
  Se  Se250  1  0.41487890  0.57731722  0.70149138  1
  Se  Se251  1  0.41896828  0.92277031  0.18934203  1
  Se  Se252  1  0.42089180  0.90870769  0.69104483  1
  Se  Se253  1  0.75207059  0.25206713  0.18112145  1
  Se  Se254  1  0.75339166  0.24782471  0.70260147  1
  Se  Se255  1  0.76028227  0.56737707  0.19251507  1
  Se  Se256  1  0.73356037  0.58888666  0.69983937  1
  Se  Se257  1  0.76117176  0.90587943  0.19536184  1
  Se  Se258  1  0.74746604  0.92352475  0.70376995  1
