# generated using pymatgen
data_In86Cu29Se144
_symmetry_space_group_name_H-M   'P 1'
_cell_length_a   17.56805309
_cell_length_b   17.56823484
_cell_length_c   23.41557558
_cell_angle_alpha   89.96350311
_cell_angle_beta   89.99658813
_cell_angle_gamma   89.97622212
_symmetry_Int_Tables_number   1
_chemical_formula_structural   In86Cu29Se144
_chemical_formula_sum   'In86 Cu29 Se144'
_cell_volume   7226.97370919
_cell_formula_units_Z   1
loop_
 _symmetry_equiv_pos_site_id
 _symmetry_equiv_pos_as_xyz
  1  'x, y, z'
loop_
 _atom_site_type_symbol
 _atom_site_label
 _atom_site_symmetry_multiplicity
 _atom_site_fract_x
 _atom_site_fract_y
 _atom_site_fract_z
 _atom_site_occupancy
  In  In0  1  0.01428081  0.18803451  0.10116083  1
  In  In1  1  -0.00778149  0.16520418  0.62160345  1
  In  In2  1  0.00515530  0.49576850  0.12327069  1
  In  In3  1  -0.00908776  0.51074066  0.62243838  1
  In  In4  1  -0.01715995  0.83715253  0.12141041  1
  In  In5  1  0.01598545  0.83446728  0.62721663  1
  In  In6  1  0.32238372  0.17522333  0.13641598  1
  In  In7  1  0.30436154  0.12864906  0.59235236  1
  In  In8  1  0.31244357  0.49939068  0.12128637  1
  In  In9  1  0.34299205  0.50009209  0.63265399  1
  In  In10  1  0.34270730  0.83141018  0.12493399  1
  In  In11  1  0.32979929  0.83727086  0.62786729  1
  In  In12  1  0.67984475  0.17294257  0.12292248  1
  In  In13  1  0.66814475  0.16981971  0.61385761  1
  In  In14  1  0.67573646  0.49468536  0.12779375  1
  In  In15  1  0.67845629  0.49746557  0.62867379  1
  In  In16  1  0.66345102  0.82393937  0.11503191  1
  In  In17  1  0.65525617  0.83076932  0.62623586  1
  In  In18  1  0.18003222  -0.00294038  0.38580472  1
  In  In19  1  0.17139186  0.00550780  0.87005549  1
  In  In20  1  0.15530951  0.32307210  0.36787160  1
  In  In21  1  0.15091992  0.33782548  0.89313669  1
  In  In22  1  0.16645726  0.68051374  0.37327426  1
  In  In23  1  0.17498745  0.65331358  0.87551540  1
  In  In24  1  0.48263021  0.01679878  0.39160256  1
  In  In25  1  0.48147487  -0.00392461  0.86868948  1
  In  In26  1  0.49260681  0.32542788  0.36021201  1
  In  In27  1  0.50622602  0.32661280  0.87556645  1
  In  In28  1  0.50882479  0.66449250  0.37627204  1
  In  In29  1  0.50850492  0.67827300  0.87300782  1
  In  In30  1  0.84512974  0.01002011  0.37476375  1
  In  In31  1  0.84399579  -0.01098166  0.88416163  1
  In  In32  1  0.83733845  0.33583621  0.36977884  1
  In  In33  1  0.84208293  0.32684267  0.90494625  1
  In  In34  1  0.82436471  0.65916663  0.36341732  1
  In  In35  1  0.82083409  0.66469021  0.89541140  1
  In  In36  1  -0.00651162  0.17077641  0.37920118  1
  In  In37  1  0.01074642  0.15262279  0.89414859  1
  In  In38  1  -0.01033245  0.49017691  0.36423047  1
  In  In39  1  -0.00324834  0.49839244  0.89048655  1
  In  In40  1  0.01207018  0.84100833  0.36955936  1
  In  In41  1  -0.01387014  0.83148386  0.87657166  1
  In  In42  1  0.32786144  0.16335597  0.37575853  1
  In  In43  1  0.32742016  0.15338960  0.87119447  1
  In  In44  1  0.34546082  0.49853622  0.37077465  1
  In  In45  1  0.31495784  0.50721937  0.87683432  1
  In  In46  1  0.32721443  0.84520950  0.38921689  1
  In  In47  1  0.33884589  0.83993454  0.87225413  1
  In  In48  1  0.66419076  0.17343776  0.37451586  1
  In  In49  1  0.67841904  0.16804471  0.87577978  1
  In  In50  1  0.67462079  0.50960513  0.36246536  1
  In  In51  1  0.66733191  0.50712749  0.88444436  1
  In  In52  1  0.65878403  0.82088235  0.37276936  1
  In  In53  1  0.67344962  0.81418191  0.88597227  1
  In  In54  1  0.15952063  0.02240083  0.12310799  1
  In  In55  1  0.16419237  -0.00045836  0.63106156  1
  In  In56  1  0.16572326  0.33384448  0.12565880  1
  In  In57  1  0.17929472  0.32504490  0.62327471  1
  In  In58  1  0.17000441  0.63887781  0.11816333  1
  In  In59  1  0.16074517  0.68116984  0.62790363  1
  In  In60  1  0.49560932  -0.01546926  0.12729910  1
  In  In61  1  0.47557025  -0.02132786  0.60073853  1
  In  In62  1  0.50330865  0.32649574  0.13683011  1
  In  In63  1  0.50755832  0.32990524  0.62236357  1
  In  In64  1  0.50009030  0.68494436  0.12134300  1
  In  In65  1  0.49170683  0.67779203  0.63715104  1
  In  In66  1  0.84592815  0.00606534  0.10961833  1
  In  In67  1  0.83472596  0.01370370  0.62893317  1
  In  In68  1  0.83543015  0.34042670  0.11895532  1
  In  In69  1  0.83091173  0.33780596  0.61684751  1
  In  In70  1  0.83228753  0.66623430  0.12409464  1
  In  In71  1  0.83729680  0.65177229  0.62726052  1
  In  In72  1  0.83353476  0.83535025  0.49577112  1
  In  In73  1  0.00448849  0.66887143  0.75403068  1
  In  In74  1  0.49904493  0.50252873  0.00715438  1
  In  In75  1  0.00129438  0.00521785  0.24629490  1
  In  In76  1  0.16533601  0.83488382  -0.00587341  1
  In  In77  1  0.33540688  0.33069250  0.74978641  1
  In  In78  1  0.16164136  0.49920372  0.49979204  1
  In  In79  1  0.67062457  0.33720856  0.75925661  1
  In  In80  1  0.65973925  -0.00242313  0.74399626  1
  In  In81  1  0.00004028  0.33507281  0.76605841  1
  In  In82  1  0.33396132  0.66458321  0.24648207  1
  In  In83  1  0.50752837  0.49795940  0.49889591  1
  In  In84  1  0.66418989  -0.00303703  0.24670248  1
  In  In85  1  0.50303786  0.15898323  0.00249347  1
  Cu  Cu86  1  0.32857445  0.00174209  -0.00228172  1
  Cu  Cu87  1  0.66639161  0.66325475  0.49776443  1
  Cu  Cu88  1  0.17451023  0.83933530  0.75142179  1
  Cu  Cu89  1  0.49733712  0.16011891  0.25629804  1
  Cu  Cu90  1  0.33341105  0.32574362  0.49074570  1
  Cu  Cu91  1  0.16725593  0.83259738  0.25130048  1
  Cu  Cu92  1  0.50419856  0.50140999  0.24562924  1
  Cu  Cu93  1  -0.00249321  0.33235294  0.49390498  1
  Cu  Cu94  1  0.83917512  0.16744227  0.75080887  1
  Cu  Cu95  1  0.50015140  0.83298361  0.74835379  1
  Cu  Cu96  1  0.16708628  0.16866063  0.24897475  1
  Cu  Cu97  1  0.49617017  0.83532287  0.25182757  1
  Cu  Cu98  1  0.32896815  0.67516457  0.50734547  1
  Cu  Cu99  1  0.82592905  0.82747869  0.24173368  1
  Cu  Cu100  1  0.50087079  0.51038343  0.75895800  1
  Cu  Cu101  1  0.83860601  0.17879539  0.24468923  1
  Cu  Cu102  1  0.67195591  0.00374528  0.50225390  1
  Cu  Cu103  1  0.16575132  0.16775732  0.75106322  1
  Cu  Cu104  1  0.83379415  0.50231833  0.75589151  1
  Cu  Cu105  1  0.16344076  0.49219655  0.24616174  1
  Cu  Cu106  1  0.00215779  0.66672522  0.00366923  1
  Cu  Cu107  1  0.00558107  0.00282366  0.50109648  1
  Cu  Cu108  1  0.66064191  -0.01006479  -0.00072388  1
  Cu  Cu109  1  0.49329571  0.16004720  0.73581258  1
  Cu  Cu110  1  0.83243555  0.83047332  0.76054037  1
  Cu  Cu111  1  -0.00591085  0.66630740  0.49868874  1
  Cu  Cu112  1  0.67451446  0.33773683  0.49061536  1
  Cu  Cu113  1  0.83889227  0.49919377  0.24258778  1
  Cu  Cu114  1  0.32790241  0.32687126  0.00396017  1
  Se  Se115  1  0.06197068  0.06690825  0.04963980  1
  Se  Se116  1  0.08421426  0.08514575  0.55909277  1
  Se  Se117  1  0.10801875  0.43494030  0.05777121  1
  Se  Se118  1  0.07360014  0.40769525  0.56245612  1
  Se  Se119  1  0.08377557  0.74670455  0.06302688  1
  Se  Se120  1  0.07978152  0.74867117  0.55033940  1
  Se  Se121  1  0.40660217  0.07863319  0.06372929  1
  Se  Se122  1  0.43880080  0.10560601  0.55395033  1
  Se  Se123  1  0.41093093  0.40345493  0.06386478  1
  Se  Se124  1  0.40770409  0.40822033  0.55417182  1
  Se  Se125  1  0.40961090  0.74928287  0.05009790  1
  Se  Se126  1  0.41733917  0.75230206  0.56026146  1
  Se  Se127  1  0.73937780  0.07644051  0.05290433  1
  Se  Se128  1  0.75855782  0.08615456  0.55157489  1
  Se  Se129  1  0.76360580  0.43614888  0.04988727  1
  Se  Se130  1  0.74898653  0.42307679  0.54936534  1
  Se  Se131  1  0.76390743  0.75764879  0.05288172  1
  Se  Se132  1  0.74844360  0.74292275  0.55931600  1
  Se  Se133  1  0.24546930  0.24252774  0.05699338  1
  Se  Se134  1  0.24400443  0.24861207  0.54371013  1
  Se  Se135  1  0.27050916  0.59570337  0.04512465  1
  Se  Se136  1  0.25394164  0.58519514  0.56313926  1
  Se  Se137  1  0.24927027  0.92411878  0.06164707  1
  Se  Se138  1  0.24991715  0.92318120  0.56100781  1
  Se  Se139  1  0.58713638  0.25828196  0.05709936  1
  Se  Se140  1  0.58924698  0.25956848  0.54754652  1
  Se  Se141  1  0.59198697  0.59160463  0.06302646  1
  Se  Se142  1  0.58736075  0.58953197  0.56499415  1
  Se  Se143  1  0.57474299  0.91115764  0.05268024  1
  Se  Se144  1  0.59037814  0.91382515  0.54984445  1
  Se  Se145  1  0.88960704  0.23192333  0.05481836  1
  Se  Se146  1  0.91428113  0.25196686  0.55262930  1
  Se  Se147  1  0.92064704  0.58318621  0.05814223  1
  Se  Se148  1  0.90946445  0.58016717  0.54652109  1
  Se  Se149  1  0.92254571  0.91826113  0.04274779  1
  Se  Se150  1  0.92229348  0.92144381  0.56081679  1
  Se  Se151  1  0.08487221  0.24756968  0.44706033  1
  Se  Se152  1  0.07953535  0.24750953  0.95996607  1
  Se  Se153  1  0.07535145  0.58768372  0.43620546  1
  Se  Se154  1  0.08711546  0.58690567  0.94910212  1
  Se  Se155  1  0.08390642  0.91623727  0.44700671  1
  Se  Se156  1  0.07489682  0.92512352  0.93671946  1
  Se  Se157  1  0.42182440  0.24838637  0.43791759  1
  Se  Se158  1  0.40869597  0.24978089  0.94132899  1
  Se  Se159  1  0.40807363  0.59251524  0.44720437  1
  Se  Se160  1  0.41825825  0.58367560  0.93569448  1
  Se  Se161  1  0.42940125  0.90733532  0.45261295  1
  Se  Se162  1  0.41539280  0.91862080  0.94855895  1
  Se  Se163  1  0.75653579  0.25015714  0.43985942  1
  Se  Se164  1  0.72762884  0.25980829  0.95084757  1
  Se  Se165  1  0.74908508  0.58383811  0.44141338  1
  Se  Se166  1  0.76480684  0.55631085  0.95911688  1
  Se  Se167  1  0.74376637  0.92488590  0.43386996  1
  Se  Se168  1  0.75008204  0.91163893  0.94677324  1
  Se  Se169  1  0.26051462  0.08030970  0.45354869  1
  Se  Se170  1  0.24441635  0.08603754  0.94744982  1
  Se  Se171  1  0.25433578  0.41399373  0.43624724  1
  Se  Se172  1  0.25165283  0.41606697  0.94989677  1
  Se  Se173  1  0.24397126  0.75157878  0.45035773  1
  Se  Se174  1  0.25948085  0.74536813  0.93976849  1
  Se  Se175  1  0.59057869  0.08700323  0.44606036  1
  Se  Se176  1  0.58675183  0.07114108  0.93417809  1
  Se  Se177  1  0.58833757  0.41272521  0.42964810  1
  Se  Se178  1  0.58661340  0.40729384  0.94676328  1
  Se  Se179  1  0.58046117  0.74896396  0.45032234  1
  Se  Se180  1  0.58391696  0.74233733  0.95428581  1
  Se  Se181  1  0.91746442  0.08526560  0.45148456  1
  Se  Se182  1  0.88507385  0.10763377  0.94013998  1
  Se  Se183  1  0.91535343  0.41931338  0.44375570  1
  Se  Se184  1  0.94404241  0.39921250  0.96047472  1
  Se  Se185  1  0.92042074  0.74680236  0.43284462  1
  Se  Se186  1  0.91664762  0.74912756  0.95164476  1
  Se  Se187  1  0.25190658  0.24985551  0.30408621  1
  Se  Se188  1  0.23756693  0.25265368  0.81435866  1
  Se  Se189  1  0.24117330  0.57506759  0.30883067  1
  Se  Se190  1  0.25267194  0.58660388  0.79691922  1
  Se  Se191  1  0.24793816  0.91219228  0.30928880  1
  Se  Se192  1  0.25787028  0.92467015  0.80318903  1
  Se  Se193  1  0.58834790  0.24753004  0.29744611  1
  Se  Se194  1  0.57485665  0.23188752  0.80148696  1
  Se  Se195  1  0.58211984  0.59013911  0.29861089  1
  Se  Se196  1  0.59217736  0.58572743  0.80992713  1
  Se  Se197  1  0.57291723  0.91865980  0.31350489  1
  Se  Se198  1  0.58197191  0.90767213  0.81268843  1
  Se  Se199  1  0.92523164  0.25296031  0.30261508  1
  Se  Se200  1  0.90668957  0.24513884  0.81967707  1
  Se  Se201  1  0.91886216  0.58581593  0.29797385  1
  Se  Se202  1  0.91391960  0.58240597  0.81654565  1
  Se  Se203  1  0.90598565  0.90988700  0.30211780  1
  Se  Se204  1  0.91818922  0.91969022  0.80273673  1
  Se  Se205  1  0.09107742  0.08653318  0.31325844  1
  Se  Se206  1  0.07985713  0.09001254  0.80760923  1
  Se  Se207  1  0.07851431  0.40970458  0.29908251  1
  Se  Se208  1  0.09256746  0.43180781  0.81440325  1
  Se  Se209  1  0.07966542  0.74843087  0.29878474  1
  Se  Se210  1  0.09446672  0.76003505  0.81434645  1
  Se  Se211  1  0.41153692  0.07759930  0.30647524  1
  Se  Se212  1  0.41162646  0.08367108  0.79617383  1
  Se  Se213  1  0.41577194  0.41914193  0.29508937  1
  Se  Se214  1  0.42340893  0.42142630  0.81381137  1
  Se  Se215  1  0.41639395  0.75355548  0.31297259  1
  Se  Se216  1  0.41723995  0.75130417  0.80416327  1
  Se  Se217  1  0.76019668  0.09031420  0.30184085  1
  Se  Se218  1  0.75499957  0.08165166  0.80414622  1
  Se  Se219  1  0.75471963  0.41799311  0.29957338  1
  Se  Se220  1  0.76485937  0.41765491  0.82066484  1
  Se  Se221  1  0.74244127  0.74997285  0.29923717  1
  Se  Se222  1  0.75609889  0.74077939  0.81181908  1
  Se  Se223  1  0.24850913  0.07795440  0.20101934  1
  Se  Se224  1  0.25111498  0.09199091  0.69246887  1
  Se  Se225  1  0.25324182  0.41114681  0.19785282  1
  Se  Se226  1  0.24055165  0.42372098  0.69418910  1
  Se  Se227  1  0.24039210  0.75050178  0.18649969  1
  Se  Se228  1  0.25084328  0.75024270  0.69798288  1
  Se  Se229  1  0.57569151  0.09017950  0.18635496  1
  Se  Se230  1  0.57681358  0.08285476  0.67694307  1
  Se  Se231  1  0.58947964  0.41542057  0.19720218  1
  Se  Se232  1  0.57563014  0.42516959  0.69733326  1
  Se  Se233  1  0.58232854  0.75813032  0.19591489  1
  Se  Se234  1  0.58994600  0.74731797  0.70299895  1
  Se  Se235  1  0.91560358  0.09527203  0.18510451  1
  Se  Se236  1  0.92372910  0.08388669  0.69998701  1
  Se  Se237  1  0.92191278  0.41298832  0.19247223  1
  Se  Se238  1  0.91117230  0.42017756  0.69516866  1
  Se  Se239  1  0.91839146  0.74799645  0.19500221  1
  Se  Se240  1  0.91145844  0.75633470  0.69163582  1
  Se  Se241  1  0.08171752  0.24468038  0.19033633  1
  Se  Se242  1  0.08471673  0.25104919  0.69430434  1
  Se  Se243  1  0.08378735  0.58225988  0.19652939  1
  Se  Se244  1  0.08883723  0.57540584  0.69177558  1
  Se  Se245  1  0.08896738  0.91109849  0.18669959  1
  Se  Se246  1  0.08195731  0.91830699  0.70302133  1
  Se  Se247  1  0.41538659  0.24759429  0.20325533  1
  Se  Se248  1  0.41309875  0.24406287  0.68047183  1
  Se  Se249  1  0.42209354  0.57684397  0.18306433  1
  Se  Se250  1  0.41411338  0.58684199  0.70339008  1
  Se  Se251  1  0.40854837  0.91697121  0.20164976  1
  Se  Se252  1  0.42119499  0.91960922  0.69339133  1
  Se  Se253  1  0.75133359  0.25991045  0.19347382  1
  Se  Se254  1  0.75542055  0.24697580  0.69246123  1
  Se  Se255  1  0.75096814  0.58530473  0.19650218  1
  Se  Se256  1  0.75020755  0.58380782  0.70156415  1
  Se  Se257  1  0.75723756  0.91764377  0.18204541  1
  Se  Se258  1  0.75927877  0.90629785  0.69020015  1
