# generated using pymatgen
data_In86Cu29Se144
_symmetry_space_group_name_H-M   'P 1'
_cell_length_a   17.59154748
_cell_length_b   17.59106128
_cell_length_c   23.45570016
_cell_angle_alpha   89.98597124
_cell_angle_beta   90.04160137
_cell_angle_gamma   90.00510763
_symmetry_Int_Tables_number   1
_chemical_formula_structural   In86Cu29Se144
_chemical_formula_sum   'In86 Cu29 Se144'
_cell_volume   7258.45783843
_cell_formula_units_Z   1
loop_
 _symmetry_equiv_pos_site_id
 _symmetry_equiv_pos_as_xyz
  1  'x, y, z'
loop_
 _atom_site_type_symbol
 _atom_site_label
 _atom_site_symmetry_multiplicity
 _atom_site_fract_x
 _atom_site_fract_y
 _atom_site_fract_z
 _atom_site_occupancy
  In  In0  1  -0.00155298  0.13712979  0.12610965  1
  In  In1  1  0.00436562  0.16633498  0.62728658  1
  In  In2  1  0.00756766  0.49203817  0.12187794  1
  In  In3  1  -0.00660169  0.49483357  0.62828694  1
  In  In4  1  0.00058323  0.85602151  0.12621986  1
  In  In5  1  0.00040489  0.82776371  0.63041626  1
  In  In6  1  0.33560967  0.17750193  0.13010153  1
  In  In7  1  0.31946461  0.15420845  0.61467369  1
  In  In8  1  0.32657084  0.49634577  0.12386238  1
  In  In9  1  0.32829281  0.49209575  0.61520045  1
  In  In10  1  0.33289881  0.82102281  0.12289704  1
  In  In11  1  0.33287331  0.85481990  0.62845695  1
  In  In12  1  0.68408033  0.16116787  0.14619271  1
  In  In13  1  0.68263249  0.18068727  0.60994854  1
  In  In14  1  0.66299453  0.49884905  0.13246693  1
  In  In15  1  0.66987463  0.50162777  0.62012101  1
  In  In16  1  0.67156987  0.83377029  0.11938579  1
  In  In17  1  0.66727826  0.81835735  0.62741841  1
  In  In18  1  0.15457466  0.00512572  0.38187210  1
  In  In19  1  0.16834057  0.00374482  0.86971527  1
  In  In20  1  0.17152316  0.32549652  0.38144515  1
  In  In21  1  0.15920876  0.33947942  0.87910468  1
  In  In22  1  0.16040018  0.66992190  0.38797127  1
  In  In23  1  0.14744180  0.66828970  0.87426652  1
  In  In24  1  0.51732967  -0.00323910  0.37608878  1
  In  In25  1  0.49126545  -0.00195977  0.87474565  1
  In  In26  1  0.50073382  0.33695058  0.37807313  1
  In  In27  1  0.51015111  0.32450981  0.87007055  1
  In  In28  1  0.51120494  0.65772094  0.37902052  1
  In  In29  1  0.51256897  0.66804432  0.87711260  1
  In  In30  1  0.84630791  0.01490576  0.35703527  1
  In  In31  1  0.83605980  -0.01159476  0.87617992  1
  In  In32  1  0.82763675  0.33925365  0.38337098  1
  In  In33  1  0.83971870  0.34316272  0.85776413  1
  In  In34  1  0.81985890  0.67176403  0.37407882  1
  In  In35  1  0.84045569  0.67076939  0.86724250  1
  In  In36  1  -0.00011102  0.15902536  0.38431145  1
  In  In37  1  0.00617467  0.17428066  0.86835324  1
  In  In38  1  0.00443038  0.49133181  0.38946595  1
  In  In39  1  -0.00111201  0.50621163  0.86788200  1
  In  In40  1  -0.00018957  0.85372743  0.37229810  1
  In  In41  1  -0.00352172  0.83204145  0.86790724  1
  In  In42  1  0.32339182  0.17874229  0.37982117  1
  In  In43  1  0.33367625  0.15060160  0.86928826  1
  In  In44  1  0.34387856  0.49797580  0.38339748  1
  In  In45  1  0.32481523  0.48315236  0.87087303  1
  In  In46  1  0.32716342  0.82425110  0.37742404  1
  In  In47  1  0.32570915  0.84882930  0.87694735  1
  In  In48  1  0.66884332  0.16620585  0.37973183  1
  In  In49  1  0.66391614  0.17666976  0.87095738  1
  In  In50  1  0.66725907  0.50093510  0.37648864  1
  In  In51  1  0.67811162  0.50890481  0.85947048  1
  In  In52  1  0.69076236  0.84270488  0.35109755  1
  In  In53  1  0.68418178  0.81735592  0.89606301  1
  In  In54  1  0.13813405  -0.00103737  0.12715125  1
  In  In55  1  0.16167311  0.00490357  0.62423561  1
  In  In56  1  0.17308904  0.33407670  0.12497340  1
  In  In57  1  0.15486901  0.32156038  0.61851891  1
  In  In58  1  0.17546722  0.66568957  0.12330800  1
  In  In59  1  0.15465063  0.65375385  0.61967299  1
  In  In60  1  0.51396187  -0.00118634  0.12764596  1
  In  In61  1  0.48944431  0.00149050  0.62160469  1
  In  In62  1  0.50646615  0.32201923  0.13567549  1
  In  In63  1  0.50893314  0.33968574  0.61344114  1
  In  In64  1  0.50656882  0.67576331  0.11720048  1
  In  In65  1  0.51805492  0.66513097  0.62507946  1
  In  In66  1  0.84903378  -0.01645610  0.14376191  1
  In  In67  1  0.84356535  0.01357307  0.61821338  1
  In  In68  1  0.82892811  0.32383767  0.13160460  1
  In  In69  1  0.83660313  0.33894086  0.62858742  1
  In  In70  1  0.81581131  0.67323005  0.12581064  1
  In  In71  1  0.84618419  0.64807827  0.64048698  1
  In  In72  1  0.33310815  0.32746334  0.73658451  1
  In  In73  1  0.33154661  0.00383013  0.25567575  1
  In  In74  1  0.50114712  0.82668481  0.49796964  1
  In  In75  1  0.83766717  0.16567569  0.00187239  1
  In  In76  1  -0.00573043  0.67177023  0.25551468  1
  In  In77  1  0.33298256  0.67093610  0.74470762  1
  In  In78  1  0.66732232  -0.00072144  0.74983005  1
  In  In79  1  0.50119032  0.16668518  0.00074233  1
  In  In80  1  0.49939346  0.49943051  0.00179177  1
  In  In81  1  0.83770793  0.50448529  -0.00961410  1
  In  In82  1  0.33654851  0.66430169  0.24473141  1
  In  In83  1  -0.00223071  0.32542863  0.25918595  1
  In  In84  1  0.16499077  0.83236087  0.00125443  1
  In  In85  1  0.84126443  0.83545426  0.49746292  1
  Cu  Cu86  1  0.15464907  0.50305330  0.74962069  1
  Cu  Cu87  1  0.67102076  0.66456957  0.49821622  1
  Cu  Cu88  1  0.66942471  0.33681720  -0.00001694  1
  Cu  Cu89  1  0.33131851  0.66901216  0.50379155  1
  Cu  Cu90  1  0.16110843  0.16529633  0.25620558  1
  Cu  Cu91  1  0.50664003  0.49912180  0.74354491  1
  Cu  Cu92  1  0.83789871  0.16807823  0.74246261  1
  Cu  Cu93  1  0.16350482  0.83755869  0.74910012  1
  Cu  Cu94  1  0.33330562  0.65860653  0.00157646  1
  Cu  Cu95  1  0.32709394  0.00435397  0.49890258  1
  Cu  Cu96  1  0.66755915  0.00161361  0.49764655  1
  Cu  Cu97  1  0.32961267  -0.00025767  -0.00183913  1
  Cu  Cu98  1  0.66870414  -0.00473147  0.00541817  1
  Cu  Cu99  1  0.50682262  0.16735144  0.74320015  1
  Cu  Cu100  1  0.83184886  0.83538505  0.75150624  1
  Cu  Cu101  1  0.50591228  0.82813142  0.24474833  1
  Cu  Cu102  1  0.17475265  0.50194059  0.25151630  1
  Cu  Cu103  1  0.16670461  0.16570088  0.74508818  1
  Cu  Cu104  1  0.32456722  0.32855304  0.00076981  1
  Cu  Cu105  1  -0.00404082  0.66282965  0.50697832  1
  Cu  Cu106  1  -0.00394529  0.66547787  -0.00526119  1
  Cu  Cu107  1  0.50107505  0.83913500  0.75412274  1
  Cu  Cu108  1  0.66529252  0.33591256  0.49757439  1
  Cu  Cu109  1  -0.00618791  0.33227893  0.50612332  1
  Cu  Cu110  1  0.01288683  0.32675095  0.00052618  1
  Cu  Cu111  1  0.50328598  0.49645325  0.25680096  1
  Cu  Cu112  1  0.33624528  0.33700918  0.49822291  1
  Cu  Cu113  1  0.83068401  0.49982203  0.25572021  1
  Cu  Cu114  1  0.49947162  0.17688936  0.25770282  1
  Se  Se115  1  0.08725332  0.08602771  0.04841284  1
  Se  Se116  1  0.09846404  0.10288154  0.55646187  1
  Se  Se117  1  0.09166117  0.41561809  0.05305338  1
  Se  Se118  1  0.07884524  0.41797290  0.55687869  1
  Se  Se119  1  0.07305276  0.74309179  0.06149504  1
  Se  Se120  1  0.07926956  0.74946999  0.55641935  1
  Se  Se121  1  0.41070468  0.07665380  0.06178104  1
  Se  Se122  1  0.41744905  0.08468336  0.54811869  1
  Se  Se123  1  0.41502011  0.40079194  0.05999823  1
  Se  Se124  1  0.42128731  0.42204115  0.54821604  1
  Se  Se125  1  0.41414079  0.74788126  0.04927594  1
  Se  Se126  1  0.41106706  0.74694412  0.56712372  1
  Se  Se127  1  0.74438037  0.08206410  0.06236601  1
  Se  Se128  1  0.75585080  0.08324040  0.54704208  1
  Se  Se129  1  0.75180977  0.41533867  0.05869471  1
  Se  Se130  1  0.75079765  0.41396746  0.55432738  1
  Se  Se131  1  0.75178725  0.75243741  0.04832258  1
  Se  Se132  1  0.75545715  0.74132220  0.55822537  1
  Se  Se133  1  0.24777532  0.24283580  0.05587556  1
  Se  Se134  1  0.25148481  0.25461466  0.55171907  1
  Se  Se135  1  0.24720364  0.57795581  0.05244844  1
  Se  Se136  1  0.24700644  0.58148890  0.55208991  1
  Se  Se137  1  0.25207559  0.92385888  0.06423784  1
  Se  Se138  1  0.24715989  0.92070424  0.55444817  1
  Se  Se139  1  0.59632900  0.25124549  0.06022257  1
  Se  Se140  1  0.58101928  0.24656207  0.54623222  1
  Se  Se141  1  0.59734759  0.58749426  0.05355803  1
  Se  Se142  1  0.58316433  0.58267212  0.54851838  1
  Se  Se143  1  0.57800076  0.91399395  0.05230384  1
  Se  Se144  1  0.59173414  0.91824328  0.55994187  1
  Se  Se145  1  0.92845533  0.25594146  0.06374445  1
  Se  Se146  1  0.91417290  0.24830995  0.56152338  1
  Se  Se147  1  0.92134789  0.58795734  0.06156726  1
  Se  Se148  1  0.91114825  0.57887232  0.55667043  1
  Se  Se149  1  0.91674190  0.92860186  0.05568517  1
  Se  Se150  1  0.93214808  0.92424062  0.55637298  1
  Se  Se151  1  0.07698070  0.25371603  0.44713106  1
  Se  Se152  1  0.09071942  0.24199309  0.94506747  1
  Se  Se153  1  0.08425191  0.58044901  0.45455715  1
  Se  Se154  1  0.07906129  0.57858030  0.94534850  1
  Se  Se155  1  0.08989478  0.90616528  0.44820208  1
  Se  Se156  1  0.07925218  0.91972253  0.93877065  1
  Se  Se157  1  0.41744182  0.25126349  0.44580835  1
  Se  Se158  1  0.40928228  0.25541543  0.93836114  1
  Se  Se159  1  0.41877052  0.59185928  0.44924133  1
  Se  Se160  1  0.40750032  0.58157936  0.93481908  1
  Se  Se161  1  0.41008835  0.92258492  0.44038004  1
  Se  Se162  1  0.41578251  0.91676795  0.94868877  1
  Se  Se163  1  0.75070257  0.24853006  0.45012014  1
  Se  Se164  1  0.75244855  0.26016720  0.93900908  1
  Se  Se165  1  0.75496596  0.58086134  0.44580292  1
  Se  Se166  1  0.74187675  0.59415667  0.93877876  1
  Se  Se167  1  0.74457409  0.91830519  0.43924682  1
  Se  Se168  1  0.75913381  0.91808320  0.95407224  1
  Se  Se169  1  0.24465675  0.08825786  0.44478189  1
  Se  Se170  1  0.24940766  0.08277861  0.94375088  1
  Se  Se171  1  0.24928360  0.41887994  0.44567283  1
  Se  Se172  1  0.24637784  0.41769865  0.94903654  1
  Se  Se173  1  0.24785444  0.75362274  0.45324156  1
  Se  Se174  1  0.25364684  0.73984172  0.93885754  1
  Se  Se175  1  0.58024586  0.08546447  0.44985332  1
  Se  Se176  1  0.59438350  0.07673201  0.94075557  1
  Se  Se177  1  0.58204751  0.42238772  0.44666479  1
  Se  Se178  1  0.59132729  0.41474270  0.93777015  1
  Se  Se179  1  0.60197920  0.75391666  0.43614101  1
  Se  Se180  1  0.57129940  0.75839015  0.95000188  1
  Se  Se181  1  0.91317831  0.07043399  0.44450188  1
  Se  Se182  1  0.92426377  0.08118215  0.93720201  1
  Se  Se183  1  0.91116419  0.41789587  0.45427448  1
  Se  Se184  1  0.92694815  0.40338015  0.94104745  1
  Se  Se185  1  0.92709682  0.74062013  0.43675681  1
  Se  Se186  1  0.91783517  0.75102723  0.94080880  1
  Se  Se187  1  0.24627361  0.25254088  0.30235590  1
  Se  Se188  1  0.24793605  0.24676385  0.80687490  1
  Se  Se189  1  0.24812527  0.58451858  0.31369174  1
  Se  Se190  1  0.24311172  0.57924065  0.80658539  1
  Se  Se191  1  0.24291012  0.91268406  0.31278549  1
  Se  Se192  1  0.25037461  0.92014390  0.79970936  1
  Se  Se193  1  0.58664883  0.25410150  0.31170206  1
  Se  Se194  1  0.58888470  0.25225426  0.79418921  1
  Se  Se195  1  0.58798468  0.58444499  0.30301399  1
  Se  Se196  1  0.57979696  0.58699038  0.80035153  1
  Se  Se197  1  0.58316399  0.91640282  0.29826200  1
  Se  Se198  1  0.58741914  0.90997532  0.81655015  1
  Se  Se199  1  0.90521674  0.24096554  0.31693350  1
  Se  Se200  1  0.92127022  0.25104816  0.79755392  1
  Se  Se201  1  0.91608228  0.57183241  0.31623185  1
  Se  Se202  1  0.89190695  0.56121808  0.80489867  1
  Se  Se203  1  0.88925963  0.89135749  0.30703704  1
  Se  Se204  1  0.91765800  0.92084823  0.79962246  1
  Se  Se205  1  0.07666983  0.08240605  0.30669223  1
  Se  Se206  1  0.08375129  0.08397962  0.80101821  1
  Se  Se207  1  0.09105881  0.42347506  0.30997539  1
  Se  Se208  1  0.08019687  0.41417856  0.80471546  1
  Se  Se209  1  0.09108857  0.75618248  0.31167607  1
  Se  Se210  1  0.08035163  0.74978565  0.79857828  1
  Se  Se211  1  0.42311097  0.09036937  0.31652157  1
  Se  Se212  1  0.42620429  0.08461874  0.79882845  1
  Se  Se213  1  0.41447427  0.41759567  0.30720671  1
  Se  Se214  1  0.42502133  0.41717767  0.80117685  1
  Se  Se215  1  0.42692557  0.75282391  0.30841024  1
  Se  Se216  1  0.41699612  0.75785643  0.81162937  1
  Se  Se217  1  0.72749539  0.06904434  0.30872597  1
  Se  Se218  1  0.75968544  0.09156128  0.80894060  1
  Se  Se219  1  0.74903276  0.41538172  0.30815887  1
  Se  Se220  1  0.72928180  0.39858318  0.80055753  1
  Se  Se221  1  0.75091365  0.73634137  0.29117713  1
  Se  Se222  1  0.74741492  0.75648510  0.80724172  1
  Se  Se223  1  0.24103816  0.08798317  0.19151385  1
  Se  Se224  1  0.25212136  0.08066704  0.69584163  1
  Se  Se225  1  0.25285639  0.41526055  0.19779479  1
  Se  Se226  1  0.23629565  0.42350920  0.68968654  1
  Se  Se227  1  0.23781879  0.76067580  0.19775071  1
  Se  Se228  1  0.24086338  0.75768220  0.68557363  1
  Se  Se229  1  0.57473206  0.09181583  0.19933425  1
  Se  Se230  1  0.58753686  0.08789728  0.68180151  1
  Se  Se231  1  0.58469437  0.41300102  0.19999146  1
  Se  Se232  1  0.58593554  0.41535087  0.68869946  1
  Se  Se233  1  0.58860678  0.74734634  0.19014592  1
  Se  Se234  1  0.58025329  0.75256790  0.70166648  1
  Se  Se235  1  0.89706604  0.10158818  0.19876008  1
  Se  Se236  1  0.92203268  0.08036276  0.69670005  1
  Se  Se237  1  0.91484484  0.42346906  0.19539004  1
  Se  Se238  1  0.90109519  0.43125922  0.70075798  1
  Se  Se239  1  0.91440944  0.75555970  0.18596461  1
  Se  Se240  1  0.91668070  0.74941926  0.70115267  1
  Se  Se241  1  0.08315722  0.24293024  0.19003654  1
  Se  Se242  1  0.08134479  0.25386484  0.69939934  1
  Se  Se243  1  0.08968605  0.57963639  0.19419097  1
  Se  Se244  1  0.07316259  0.58683397  0.69656168  1
  Se  Se245  1  0.08135427  0.91650980  0.20618502  1
  Se  Se246  1  0.08130402  0.91983913  0.69403405  1
  Se  Se247  1  0.41139700  0.25498594  0.20462490  1
  Se  Se248  1  0.42439102  0.23914059  0.67866249  1
  Se  Se249  1  0.42957597  0.57362962  0.18714001  1
  Se  Se250  1  0.41947616  0.57511577  0.68651911  1
  Se  Se251  1  0.41790776  0.90953623  0.19183038  1
  Se  Se252  1  0.42068989  0.92376088  0.70090675  1
  Se  Se253  1  0.74217107  0.26728139  0.20741418  1
  Se  Se254  1  0.74984848  0.24924195  0.69312139  1
  Se  Se255  1  0.75148074  0.58042793  0.19705428  1
  Se  Se256  1  0.72199324  0.60697362  0.68815831  1
  Se  Se257  1  0.72871206  0.93139000  0.19050867  1
  Se  Se258  1  0.75813558  0.91341371  0.68513952  1
