# generated using pymatgen
data_In86Cu29Se144
_symmetry_space_group_name_H-M   'P 1'
_cell_length_a   17.57870083
_cell_length_b   17.57904750
_cell_length_c   23.43392891
_cell_angle_alpha   89.97088113
_cell_angle_beta   89.99093610
_cell_angle_gamma   90.00389494
_symmetry_Int_Tables_number   1
_chemical_formula_structural   In86Cu29Se144
_chemical_formula_sum   'In86 Cu29 Se144'
_cell_volume   7241.47707730
_cell_formula_units_Z   1
loop_
 _symmetry_equiv_pos_site_id
 _symmetry_equiv_pos_as_xyz
  1  'x, y, z'
loop_
 _atom_site_type_symbol
 _atom_site_label
 _atom_site_symmetry_multiplicity
 _atom_site_fract_x
 _atom_site_fract_y
 _atom_site_fract_z
 _atom_site_occupancy
  In  In0  1  0.02097429  0.16255884  0.12389241  1
  In  In1  1  0.00252339  0.15772864  0.62997042  1
  In  In2  1  0.01432905  0.49910090  0.13463274  1
  In  In3  1  0.01200255  0.50514442  0.62878799  1
  In  In4  1  -0.01489323  0.82003936  0.09183560  1
  In  In5  1  0.00233465  0.83061421  0.64053344  1
  In  In6  1  0.32772767  0.16924430  0.11912181  1
  In  In7  1  0.32432357  0.15498615  0.61885483  1
  In  In8  1  0.31464116  0.50326727  0.13764692  1
  In  In9  1  0.33531188  0.50742638  0.62915303  1
  In  In10  1  0.32573844  0.82479152  0.11061024  1
  In  In11  1  0.33613174  0.83086309  0.63000035  1
  In  In12  1  0.65791989  0.17233709  0.12937426  1
  In  In13  1  0.66398364  0.16967442  0.63041389  1
  In  In14  1  0.67330757  0.49866655  0.13050260  1
  In  In15  1  0.65242212  0.49223389  0.62646885  1
  In  In16  1  0.66337571  0.83890089  0.12897515  1
  In  In17  1  0.66664084  0.84593113  0.62759334  1
  In  In18  1  0.17776786  0.00158985  0.37356192  1
  In  In19  1  0.16548363  -0.00471820  0.87773102  1
  In  In20  1  0.15561881  0.31298847  0.34813672  1
  In  In21  1  0.18889165  0.32781956  0.90086606  1
  In  In22  1  0.15995001  0.65806488  0.35026039  1
  In  In23  1  0.16094754  0.66797320  0.88443895  1
  In  In24  1  0.50182019  -0.00989965  0.38479378  1
  In  In25  1  0.50100094  0.00201782  0.87593799  1
  In  In26  1  0.49170761  0.32436815  0.36971276  1
  In  In27  1  0.49324625  0.30923252  0.87963551  1
  In  In28  1  0.49503456  0.66735298  0.36545357  1
  In  In29  1  0.50189349  0.68469086  0.87825374  1
  In  In30  1  0.83047539  0.01092207  0.37290053  1
  In  In31  1  0.82527638  -0.01217923  0.87381310  1
  In  In32  1  0.83767899  0.33363303  0.36097601  1
  In  In33  1  0.82671633  0.34162135  0.87495219  1
  In  In34  1  0.83119329  0.67243529  0.36103462  1
  In  In35  1  0.85920625  0.67306121  0.88121024  1
  In  In36  1  0.00414228  0.17103199  0.36761485  1
  In  In37  1  0.02162210  0.16043999  0.87980130  1
  In  In38  1  0.01132674  0.49612454  0.35744205  1
  In  In39  1  0.01143343  0.51329777  0.88025150  1
  In  In40  1  0.00543307  0.83359003  0.36685402  1
  In  In41  1  0.00543731  0.83684340  0.88565400  1
  In  In42  1  0.33064041  0.17111256  0.38056435  1
  In  In43  1  0.34005530  0.16811440  0.88026764  1
  In  In44  1  0.32378718  0.49275569  0.35463662  1
  In  In45  1  0.31439856  0.50119417  0.88183929  1
  In  In46  1  0.34066048  0.83885144  0.36929353  1
  In  In47  1  0.33617818  0.83562235  0.87544204  1
  In  In48  1  0.65593068  0.15418419  0.36569609  1
  In  In49  1  0.65689252  0.15137335  0.86800973  1
  In  In50  1  0.66472227  0.50041803  0.36269446  1
  In  In51  1  0.67480859  0.49486783  0.87754380  1
  In  In52  1  0.65123673  0.81749687  0.35721685  1
  In  In53  1  0.65603748  0.84949406  0.88693132  1
  In  In54  1  0.16276214  0.00488875  0.10713842  1
  In  In55  1  0.16017446  0.01455269  0.64601750  1
  In  In56  1  0.16266432  0.32746434  0.13147141  1
  In  In57  1  0.17963362  0.32856277  0.62626128  1
  In  In58  1  0.15968452  0.67534026  0.12013927  1
  In  In59  1  0.16171940  0.66860897  0.63998836  1
  In  In60  1  0.50321607  0.01176338  0.11736257  1
  In  In61  1  0.49992656  0.00162985  0.62653687  1
  In  In62  1  0.50105803  0.32392391  0.13092898  1
  In  In63  1  0.51275162  0.33168708  0.62670010  1
  In  In64  1  0.49272226  0.67456198  0.12702286  1
  In  In65  1  0.47918802  0.66681626  0.62663153  1
  In  In66  1  0.83492106  -0.03258175  0.12439503  1
  In  In67  1  0.83413685  -0.00466017  0.63978596  1
  In  In68  1  0.83035165  0.33974956  0.13045361  1
  In  In69  1  0.83196779  0.31479107  0.62555669  1
  In  In70  1  0.83395817  0.68050210  0.13293722  1
  In  In71  1  0.83712190  0.68030496  0.62829333  1
  In  In72  1  0.83405007  0.49792239  0.48564874  1
  In  In73  1  0.33726938  0.33284898  0.75697010  1
  In  In74  1  0.18230268  0.83441463  0.49944754  1
  In  In75  1  0.83186213  0.16321282  0.00083101  1
  In  In76  1  0.49277486  0.49756415  0.01512861  1
  In  In77  1  0.83023939  0.16484983  0.49790260  1
  In  In78  1  0.33382558  0.00334329  0.23723519  1
  In  In79  1  -0.00349816  0.33703342  0.75748556  1
  In  In80  1  0.17570961  0.49744720  0.48497041  1
  In  In81  1  0.67099532  0.67059775  0.75370539  1
  In  In82  1  0.83033068  0.84312483  0.49805438  1
  In  In83  1  -0.00593431  -0.00715903  0.23997558  1
  In  In84  1  0.49364265  0.49633125  0.49863203  1
  In  In85  1  0.83909910  0.50691074  0.01042643  1
  Cu  Cu86  1  0.33860224  0.00466806  -0.00759039  1
  Cu  Cu87  1  0.83093473  0.49877777  0.75474221  1
  Cu  Cu88  1  0.66820790  0.32902340  0.49980303  1
  Cu  Cu89  1  0.50256113  0.16315106  0.75119912  1
  Cu  Cu90  1  0.65273568  0.32477001  -0.00186311  1
  Cu  Cu91  1  0.66355283  0.00215548  0.00249893  1
  Cu  Cu92  1  0.33621292  0.00559628  0.50342333  1
  Cu  Cu93  1  0.33475530  0.66502143  0.00245071  1
  Cu  Cu94  1  0.49835121  0.83959144  0.75435708  1
  Cu  Cu95  1  0.83109406  0.16632125  0.24259763  1
  Cu  Cu96  1  0.00186262  0.33693205  0.00687292  1
  Cu  Cu97  1  0.33418270  0.31964997  0.49627454  1
  Cu  Cu98  1  0.65968222  -0.00214692  0.50110718  1
  Cu  Cu99  1  0.01218202  0.00202571  0.50886617  1
  Cu  Cu100  1  0.65194398  0.67734478  0.49101383  1
  Cu  Cu101  1  0.83640662  0.50608906  0.24686804  1
  Cu  Cu102  1  0.16818455  0.83109418  0.76030750  1
  Cu  Cu103  1  0.67546268  0.67541796  0.00387662  1
  Cu  Cu104  1  0.83077340  0.16485849  0.75418959  1
  Cu  Cu105  1  0.00028943  0.66925666  0.50283600  1
  Cu  Cu106  1  0.49846588  0.83320940  0.24706695  1
  Cu  Cu107  1  0.49655532  0.50262802  0.75319386  1
  Cu  Cu108  1  0.15809772  0.50658573  0.76109978  1
  Cu  Cu109  1  0.16296543  0.82772947  0.23439936  1
  Cu  Cu110  1  0.84017500  0.82548388  0.75857257  1
  Cu  Cu111  1  0.49628524  0.16100560  0.24930527  1
  Cu  Cu112  1  0.02110468  0.32572096  0.49081747  1
  Cu  Cu113  1  0.50450478  0.49874861  0.24262762  1
  Cu  Cu114  1  0.33126970  0.66865665  0.49672889  1
  Se  Se115  1  0.07017234  0.08063575  0.04156206  1
  Se  Se116  1  0.09317017  0.08624025  0.56091363  1
  Se  Se117  1  0.08661122  0.41807268  0.05973941  1
  Se  Se118  1  0.08604533  0.41399743  0.55571890  1
  Se  Se119  1  0.10799163  0.77342645  0.04342080  1
  Se  Se120  1  0.08197050  0.74836174  0.56102208  1
  Se  Se121  1  0.41480107  0.08944415  0.05100622  1
  Se  Se122  1  0.42345827  0.08707744  0.55452825  1
  Se  Se123  1  0.40250170  0.40905033  0.07144137  1
  Se  Se124  1  0.40465331  0.40482470  0.56100420  1
  Se  Se125  1  0.42413893  0.75053223  0.04731431  1
  Se  Se126  1  0.41137113  0.75148437  0.55198924  1
  Se  Se127  1  0.74438884  0.07880655  0.06529941  1
  Se  Se128  1  0.74822769  0.07063483  0.56157865  1
  Se  Se129  1  0.73849353  0.40700805  0.05204871  1
  Se  Se130  1  0.74921151  0.41203869  0.55750804  1
  Se  Se131  1  0.75301297  0.75902833  0.06002617  1
  Se  Se132  1  0.73951052  0.74493788  0.55543031  1
  Se  Se133  1  0.22297377  0.23251087  0.05854090  1
  Se  Se134  1  0.24570028  0.24451798  0.55127479  1
  Se  Se135  1  0.25114456  0.58721299  0.05926128  1
  Se  Se136  1  0.24871497  0.59089979  0.55821166  1
  Se  Se137  1  0.25603589  0.92267334  0.04688359  1
  Se  Se138  1  0.25305134  0.92878756  0.56633786  1
  Se  Se139  1  0.57383412  0.24296822  0.05395441  1
  Se  Se140  1  0.58653182  0.24680019  0.55446551  1
  Se  Se141  1  0.59544601  0.59054612  0.06119802  1
  Se  Se142  1  0.58396901  0.59190414  0.55677830  1
  Se  Se143  1  0.58088061  0.91639051  0.05481256  1
  Se  Se144  1  0.57909308  0.91372182  0.55573345  1
  Se  Se145  1  0.91680290  0.25659001  0.06177688  1
  Se  Se146  1  0.93058950  0.25575556  0.55209571  1
  Se  Se147  1  0.92812824  0.59388585  0.06794666  1
  Se  Se148  1  0.91796450  0.58586532  0.55808854  1
  Se  Se149  1  0.93242796  0.94242907  0.04579888  1
  Se  Se150  1  0.92748209  0.92110783  0.56424778  1
  Se  Se151  1  0.09772722  0.24098824  0.43588106  1
  Se  Se152  1  0.08301039  0.25184299  0.95332626  1
  Se  Se153  1  0.07683512  0.59259616  0.43636490  1
  Se  Se154  1  0.08727117  0.58158306  0.95665016  1
  Se  Se155  1  0.08092698  0.92058325  0.44291126  1
  Se  Se156  1  0.10630976  0.90031112  0.95343472  1
  Se  Se157  1  0.42675803  0.24203067  0.44803860  1
  Se  Se158  1  0.39861810  0.26319169  0.95350714  1
  Se  Se159  1  0.40342185  0.58124492  0.43573966  1
  Se  Se160  1  0.41847947  0.58722931  0.94158497  1
  Se  Se161  1  0.40879967  0.91302941  0.45013535  1
  Se  Se162  1  0.42245496  0.91543056  0.94500733  1
  Se  Se163  1  0.74642819  0.25531355  0.43354386  1
  Se  Se164  1  0.73955850  0.25195634  0.93875645  1
  Se  Se165  1  0.73853587  0.59617266  0.43635856  1
  Se  Se166  1  0.74942116  0.59252109  0.94293326  1
  Se  Se167  1  0.73753818  0.92333013  0.43532533  1
  Se  Se168  1  0.75191152  0.91727226  0.95490638  1
  Se  Se169  1  0.24993431  0.08180083  0.44735951  1
  Se  Se170  1  0.24925987  0.08532846  0.94304732  1
  Se  Se171  1  0.25984692  0.39932661  0.43125365  1
  Se  Se172  1  0.25331105  0.42766872  0.96382342  1
  Se  Se173  1  0.25034417  0.73934618  0.42941992  1
  Se  Se174  1  0.25768848  0.74859849  0.94469566  1
  Se  Se175  1  0.58203693  0.08548532  0.44676548  1
  Se  Se176  1  0.58116655  0.08585987  0.94823100  1
  Se  Se177  1  0.59052226  0.41221809  0.43899250  1
  Se  Se178  1  0.57952342  0.41516708  0.94223559  1
  Se  Se179  1  0.56893670  0.75586801  0.43758760  1
  Se  Se180  1  0.58525147  0.75321027  0.95309182  1
  Se  Se181  1  0.93044278  0.07588338  0.44437601  1
  Se  Se182  1  0.91725043  0.07914178  0.93526514  1
  Se  Se183  1  0.93497484  0.40649231  0.43415411  1
  Se  Se184  1  0.92033057  0.41330624  0.94489511  1
  Se  Se185  1  0.92133691  0.74803407  0.44092893  1
  Se  Se186  1  0.92336914  0.75402944  0.95678831  1
  Se  Se187  1  0.26283393  0.23876006  0.29829096  1
  Se  Se188  1  0.24115007  0.24858732  0.81319770  1
  Se  Se189  1  0.26111880  0.59242402  0.29017932  1
  Se  Se190  1  0.24582767  0.58905975  0.81018911  1
  Se  Se191  1  0.24073469  0.90808143  0.29765377  1
  Se  Se192  1  0.25330224  0.91767538  0.80674955  1
  Se  Se193  1  0.58042470  0.24779962  0.30119010  1
  Se  Se194  1  0.58330439  0.25024432  0.80416396  1
  Se  Se195  1  0.58228791  0.58665531  0.29840805  1
  Se  Se196  1  0.57970733  0.57996098  0.81363546  1
  Se  Se197  1  0.57447346  0.92138505  0.30286994  1
  Se  Se198  1  0.58553713  0.91983417  0.80530736  1
  Se  Se199  1  0.91914086  0.24565165  0.29644569  1
  Se  Se200  1  0.91014850  0.24167865  0.81719397  1
  Se  Se201  1  0.92117863  0.58654771  0.30118810  1
  Se  Se202  1  0.91617243  0.57625998  0.80897229  1
  Se  Se203  1  0.90442205  0.91121377  0.30834459  1
  Se  Se204  1  0.92110339  0.91196810  0.81071823  1
  Se  Se205  1  0.08827725  0.07823999  0.30343981  1
  Se  Se206  1  0.08760286  0.07864420  0.80477232  1
  Se  Se207  1  0.10233619  0.42566923  0.29093769  1
  Se  Se208  1  0.09382651  0.41259401  0.82076490  1
  Se  Se209  1  0.07612337  0.75263794  0.29235886  1
  Se  Se210  1  0.08114560  0.75037821  0.81240732  1
  Se  Se211  1  0.41931611  0.07923412  0.31125719  1
  Se  Se212  1  0.41791735  0.08669946  0.80795814  1
  Se  Se213  1  0.42315251  0.41413985  0.29837246  1
  Se  Se214  1  0.42278537  0.42442069  0.81987006  1
  Se  Se215  1  0.41104100  0.75160883  0.29790996  1
  Se  Se216  1  0.41722425  0.75047615  0.80318888  1
  Se  Se217  1  0.75028835  0.08363378  0.29826004  1
  Se  Se218  1  0.74939914  0.07587595  0.80363915  1
  Se  Se219  1  0.75175852  0.41883620  0.29767112  1
  Se  Se220  1  0.74378560  0.41376498  0.80057528  1
  Se  Se221  1  0.75238001  0.75563280  0.29398139  1
  Se  Se222  1  0.75366453  0.75411274  0.82152133  1
  Se  Se223  1  0.23237381  0.08788252  0.18823785  1
  Se  Se224  1  0.25813434  0.09260904  0.70359155  1
  Se  Se225  1  0.24766004  0.40490053  0.20237384  1
  Se  Se226  1  0.24135884  0.42908062  0.69909266  1
  Se  Se227  1  0.25668539  0.74829619  0.18912111  1
  Se  Se228  1  0.25064688  0.75196918  0.70047071  1
  Se  Se229  1  0.58146497  0.07972880  0.19670905  1
  Se  Se230  1  0.58637932  0.08034327  0.69660808  1
  Se  Se231  1  0.58787403  0.41222426  0.19334245  1
  Se  Se232  1  0.57946870  0.41686679  0.70312672  1
  Se  Se233  1  0.58306647  0.74835358  0.19569330  1
  Se  Se234  1  0.57474220  0.75317498  0.69168774  1
  Se  Se235  1  0.90744658  0.08706023  0.17981315  1
  Se  Se236  1  0.91820053  0.08367399  0.70166581  1
  Se  Se237  1  0.91793060  0.41928804  0.19584505  1
  Se  Se238  1  0.90840495  0.42166074  0.68741188  1
  Se  Se239  1  0.92747344  0.77175610  0.18518236  1
  Se  Se240  1  0.92168720  0.74053336  0.70573730  1
  Se  Se241  1  0.06507049  0.25665088  0.19966351  1
  Se  Se242  1  0.08741261  0.25188689  0.69466429  1
  Se  Se243  1  0.08515872  0.59754436  0.19679747  1
  Se  Se244  1  0.07351683  0.58794361  0.70676399  1
  Se  Se245  1  0.08616543  0.91218015  0.17689220  1
  Se  Se246  1  0.08469013  0.91525440  0.70566036  1
  Se  Se247  1  0.41165403  0.24053378  0.19492543  1
  Se  Se248  1  0.42273740  0.24617259  0.69110954  1
  Se  Se249  1  0.41874960  0.58148167  0.19276232  1
  Se  Se250  1  0.41071233  0.58556931  0.70381188  1
  Se  Se251  1  0.42125446  0.90883210  0.18077396  1
  Se  Se252  1  0.41638045  0.91942995  0.69595063  1
  Se  Se253  1  0.74611746  0.25383420  0.19512654  1
  Se  Se254  1  0.74850073  0.24941061  0.70122116  1
  Se  Se255  1  0.75128068  0.58872099  0.19522299  1
  Se  Se256  1  0.75414416  0.57660140  0.68808181  1
  Se  Se257  1  0.73831553  0.92779875  0.19907636  1
  Se  Se258  1  0.75340362  0.90646030  0.70445838  1
