# generated using pymatgen
data_In86Cu29Se144
_symmetry_space_group_name_H-M   'P 1'
_cell_length_a   17.59082090
_cell_length_b   17.58943210
_cell_length_c   23.45136337
_cell_angle_alpha   90.00957083
_cell_angle_beta   90.00485161
_cell_angle_gamma   90.00275978
_symmetry_Int_Tables_number   1
_chemical_formula_structural   In86Cu29Se144
_chemical_formula_sum   'In86 Cu29 Se144'
_cell_volume   7256.14600380
_cell_formula_units_Z   1
loop_
 _symmetry_equiv_pos_site_id
 _symmetry_equiv_pos_as_xyz
  1  'x, y, z'
loop_
 _atom_site_type_symbol
 _atom_site_label
 _atom_site_symmetry_multiplicity
 _atom_site_fract_x
 _atom_site_fract_y
 _atom_site_fract_z
 _atom_site_occupancy
  In  In0  1  -0.01794542  0.14590998  0.11251046  1
  In  In1  1  -0.01388863  0.17362889  0.63316937  1
  In  In2  1  0.00919541  0.51239188  0.11678058  1
  In  In3  1  -0.00219778  0.49599614  0.62558343  1
  In  In4  1  -0.00012005  0.83558126  0.12831535  1
  In  In5  1  -0.00145704  0.84902976  0.62767167  1
  In  In6  1  0.33540922  0.16952177  0.11691933  1
  In  In7  1  0.32835089  0.16755556  0.62976422  1
  In  In8  1  0.32692675  0.51785620  0.12595502  1
  In  In9  1  0.33278260  0.50605324  0.62135590  1
  In  In10  1  0.32402098  0.82351002  0.11715519  1
  In  In11  1  0.33968696  0.82318611  0.61974794  1
  In  In12  1  0.66030747  0.14956731  0.10594747  1
  In  In13  1  0.68927257  0.14669883  0.64500021  1
  In  In14  1  0.67984054  0.50233078  0.12113401  1
  In  In15  1  0.66167567  0.50469735  0.64485148  1
  In  In16  1  0.66520574  0.83562174  0.11909816  1
  In  In17  1  0.66975897  0.83439531  0.62440381  1
  In  In18  1  0.15467486  -0.00326335  0.36353641  1
  In  In19  1  0.15525197  0.01123136  0.88552931  1
  In  In20  1  0.17159308  0.34600938  0.37866754  1
  In  In21  1  0.15165783  0.34186776  0.87887028  1
  In  In22  1  0.14995413  0.66086320  0.35715077  1
  In  In23  1  0.16534008  0.66545476  0.88269570  1
  In  In24  1  0.50207720  -0.01524391  0.37606331  1
  In  In25  1  0.52977164  -0.02103248  0.89848244  1
  In  In26  1  0.50062466  0.32744465  0.37756443  1
  In  In27  1  0.49982833  0.32427535  0.87237772  1
  In  In28  1  0.51392693  0.68036728  0.36342084  1
  In  In29  1  0.51415761  0.66657810  0.87333888  1
  In  In30  1  0.83003730  -0.00410954  0.37392620  1
  In  In31  1  0.82719462  -0.00429377  0.88061180  1
  In  In32  1  0.82249455  0.32752833  0.38036921  1
  In  In33  1  0.83622601  0.33314577  0.87507309  1
  In  In34  1  0.84218441  0.68226448  0.36580840  1
  In  In35  1  0.82717771  0.67536571  0.88387280  1
  In  In36  1  -0.00527149  0.15112761  0.36936024  1
  In  In37  1  -0.00609105  0.16585331  0.87680098  1
  In  In38  1  0.00019694  0.52532644  0.37972740  1
  In  In39  1  0.01036888  0.48681631  0.87804343  1
  In  In40  1  -0.01816429  0.81913446  0.36168459  1
  In  In41  1  -0.01354675  0.84381524  0.88687272  1
  In  In42  1  0.33572769  0.16719906  0.37333130  1
  In  In43  1  0.33988101  0.16254176  0.88341291  1
  In  In44  1  0.31109118  0.50592103  0.38290202  1
  In  In45  1  0.32264129  0.49265663  0.87464575  1
  In  In46  1  0.34775847  0.83427390  0.37208915  1
  In  In47  1  0.33307011  0.83435670  0.88495686  1
  In  In48  1  0.68079806  0.16066578  0.38177129  1
  In  In49  1  0.66807798  0.16227815  0.87807750  1
  In  In50  1  0.65659217  0.50255738  0.37467427  1
  In  In51  1  0.67305667  0.51575709  0.86402228  1
  In  In52  1  0.67223055  0.83803085  0.37244535  1
  In  In53  1  0.67200899  0.83084640  0.87858726  1
  In  In54  1  0.15126876  -0.01498993  0.11793315  1
  In  In55  1  0.15242676  -0.00954339  0.62989798  1
  In  In56  1  0.16304567  0.33311545  0.11587720  1
  In  In57  1  0.15461413  0.33481575  0.62823074  1
  In  In58  1  0.16534727  0.67230583  0.12728047  1
  In  In59  1  0.17424004  0.66591200  0.62165556  1
  In  In60  1  0.51443670  0.00075142  0.11300978  1
  In  In61  1  0.52468898  0.00205429  0.62118565  1
  In  In62  1  0.50898616  0.32928450  0.11848128  1
  In  In63  1  0.50976008  0.34183497  0.63199510  1
  In  In64  1  0.49148552  0.67847576  0.12893967  1
  In  In65  1  0.50436475  0.67816028  0.62435284  1
  In  In66  1  0.82954912  -0.00256939  0.12136701  1
  In  In67  1  0.82916775  0.00195413  0.62542413  1
  In  In68  1  0.83130990  0.32891309  0.11406622  1
  In  In69  1  0.84034715  0.32629427  0.63494949  1
  In  In70  1  0.83384088  0.66995657  0.12423955  1
  In  In71  1  0.82559241  0.66133367  0.62330697  1
  In  In72  1  0.33994021  0.00019374  0.75285403  1
  In  In73  1  0.16217817  0.16897511  0.49666780  1
  In  In74  1  0.16358089  0.82885447  0.49361018  1
  In  In75  1  0.49878448  0.50226699  0.50787051  1
  In  In76  1  0.83501726  0.50060994  0.50395289  1
  In  In77  1  -0.00217490  0.33425010  0.24284384  1
  In  In78  1  0.66940383  0.33526043  0.24710390  1
  In  In79  1  0.33549071  0.33213318  0.75194377  1
  In  In80  1  0.50250788  0.16798912  0.49941498  1
  In  In81  1  0.33455141  0.33692632  0.25989194  1
  In  In82  1  -0.00219836  0.66539821  0.74793605  1
  In  In83  1  0.49412807  0.49982000  -0.00582664  1
  In  In84  1  0.33794422  0.66569047  0.74869010  1
  In  In85  1  0.33393424  -0.00687897  0.24354636  1
  Cu  Cu86  1  -0.00361595  0.66514276  0.00290182  1
  Cu  Cu87  1  0.66581522  0.66681255  -0.00033701  1
  Cu  Cu88  1  0.67293032  0.32696801  0.51142537  1
  Cu  Cu89  1  0.67041244  0.33132223  -0.00559622  1
  Cu  Cu90  1  0.33702802  0.00114013  0.00417283  1
  Cu  Cu91  1  0.82491631  0.83415517  0.75680143  1
  Cu  Cu92  1  -0.01268552  0.00364034  0.49961912  1
  Cu  Cu93  1  0.15764308  0.16802027  0.75900313  1
  Cu  Cu94  1  0.32495346  0.66948819  0.00429383  1
  Cu  Cu95  1  0.33683206  0.66419317  0.49560474  1
  Cu  Cu96  1  0.33562946  -0.00182916  0.49792958  1
  Cu  Cu97  1  0.16426276  0.50579242  0.24744264  1
  Cu  Cu98  1  0.82828542  0.83738006  0.24481152  1
  Cu  Cu99  1  0.50863799  0.16001866  0.24065281  1
  Cu  Cu100  1  -0.00019808  -0.00455468  0.00032239  1
  Cu  Cu101  1  0.50734465  0.83427443  0.24573999  1
  Cu  Cu102  1  -0.00061185  0.33112654  -0.00385450  1
  Cu  Cu103  1  0.83720564  0.51129654  0.24598361  1
  Cu  Cu104  1  0.83554897  0.16586409  0.75818246  1
  Cu  Cu105  1  0.15818994  0.16007099  0.24252996  1
  Cu  Cu106  1  0.32551156  0.33502441  -0.00340693  1
  Cu  Cu107  1  0.67482217  0.67521289  0.49555683  1
  Cu  Cu108  1  0.83988941  0.49832452  0.75339855  1
  Cu  Cu109  1  0.49842409  0.51114983  0.25072371  1
  Cu  Cu110  1  -0.00167733  0.33356203  0.50602858  1
  Cu  Cu111  1  0.82839300  0.15710278  0.24563825  1
  Cu  Cu112  1  0.51236607  0.83726032  0.74998247  1
  Cu  Cu113  1  0.51125197  0.15918907  0.75854781  1
  Cu  Cu114  1  0.15860005  0.83851167  0.75708951  1
  Se  Se115  1  0.08635210  0.08243545  0.04974674  1
  Se  Se116  1  0.07422891  0.07986506  0.55913953  1
  Se  Se117  1  0.08063991  0.41740772  0.05027137  1
  Se  Se118  1  0.08231274  0.41853268  0.55415046  1
  Se  Se119  1  0.07893449  0.74926142  0.05734020  1
  Se  Se120  1  0.07652299  0.74884018  0.56274147  1
  Se  Se121  1  0.42203152  0.08647573  0.05311176  1
  Se  Se122  1  0.40934954  0.07804446  0.56177538  1
  Se  Se123  1  0.40525630  0.41326180  0.06133771  1
  Se  Se124  1  0.41042916  0.40317992  0.56035127  1
  Se  Se125  1  0.41840950  0.75029908  0.04952133  1
  Se  Se126  1  0.42102782  0.74662551  0.54803648  1
  Se  Se127  1  0.77414280  0.09836545  0.05081622  1
  Se  Se128  1  0.74489585  0.08412933  0.55713474  1
  Se  Se129  1  0.74984620  0.41694677  0.04862298  1
  Se  Se130  1  0.74436212  0.41744780  0.56887873  1
  Se  Se131  1  0.75003621  0.74862445  0.05335894  1
  Se  Se132  1  0.75597021  0.75245187  0.55453630  1
  Se  Se133  1  0.24670909  0.24809845  0.05076356  1
  Se  Se134  1  0.25128346  0.25482200  0.56006172  1
  Se  Se135  1  0.24022977  0.58376206  0.05306049  1
  Se  Se136  1  0.25223455  0.58445133  0.54975301  1
  Se  Se137  1  0.24940124  0.91686892  0.05221330  1
  Se  Se138  1  0.25243694  0.92234383  0.55987610  1
  Se  Se139  1  0.58346406  0.24982614  0.04630972  1
  Se  Se140  1  0.59031427  0.24693024  0.56864156  1
  Se  Se141  1  0.58195444  0.58652219  0.05897608  1
  Se  Se142  1  0.59988749  0.59043013  0.55871125  1
  Se  Se143  1  0.59993556  0.92390310  0.04367680  1
  Se  Se144  1  0.57552930  0.90136346  0.55394553  1
  Se  Se145  1  0.91635955  0.24710762  0.04830997  1
  Se  Se146  1  0.91293926  0.25072819  0.55573295  1
  Se  Se147  1  0.90981121  0.58122343  0.05331818  1
  Se  Se148  1  0.92884059  0.59416587  0.55616123  1
  Se  Se149  1  0.91725888  0.91324563  0.05574461  1
  Se  Se150  1  0.91152532  0.91696857  0.55507406  1
  Se  Se151  1  0.06973988  0.25691983  0.43491408  1
  Se  Se152  1  0.08356407  0.24527097  0.94503708  1
  Se  Se153  1  0.10024597  0.58561837  0.44420072  1
  Se  Se154  1  0.07900897  0.58249453  0.94711488  1
  Se  Se155  1  0.07352709  0.92627906  0.44148494  1
  Se  Se156  1  0.08787316  0.91143533  0.95024393  1
  Se  Se157  1  0.40261517  0.25938526  0.44691291  1
  Se  Se158  1  0.41642759  0.25631196  0.94802398  1
  Se  Se159  1  0.42198741  0.58766063  0.43511724  1
  Se  Se160  1  0.40360900  0.59450344  0.93682815  1
  Se  Se161  1  0.41922876  0.91212223  0.44957226  1
  Se  Se162  1  0.41843117  0.91363752  0.95282915  1
  Se  Se163  1  0.75324921  0.24537470  0.45522841  1
  Se  Se164  1  0.75534292  0.24775433  0.94358435  1
  Se  Se165  1  0.74872440  0.58706593  0.43739553  1
  Se  Se166  1  0.74690102  0.58063919  0.94676270  1
  Se  Se167  1  0.76010674  0.90700256  0.44470134  1
  Se  Se168  1  0.74326275  0.91745943  0.95098473  1
  Se  Se169  1  0.25264728  0.07238848  0.43735803  1
  Se  Se170  1  0.25268818  0.08288940  0.94962490  1
  Se  Se171  1  0.25530924  0.40986653  0.45328776  1
  Se  Se172  1  0.24119929  0.42031343  0.94780258  1
  Se  Se173  1  0.25709260  0.74377070  0.43434474  1
  Se  Se174  1  0.24356815  0.75379796  0.94933624  1
  Se  Se175  1  0.58880380  0.07246942  0.44388381  1
  Se  Se176  1  0.57267005  0.10021150  0.94923834  1
  Se  Se177  1  0.59253019  0.40487551  0.44919868  1
  Se  Se178  1  0.58985870  0.41521830  0.93643700  1
  Se  Se179  1  0.58716012  0.75261870  0.44165090  1
  Se  Se180  1  0.58186387  0.75002999  0.94730879  1
  Se  Se181  1  0.90857305  0.08747850  0.44360585  1
  Se  Se182  1  0.91703936  0.07834380  0.94582517  1
  Se  Se183  1  0.92401852  0.41246272  0.43796883  1
  Se  Se184  1  0.91582647  0.41793080  0.94603455  1
  Se  Se185  1  0.92340079  0.74419283  0.44431106  1
  Se  Se186  1  0.91204244  0.75227838  0.95367349  1
  Se  Se187  1  0.23393746  0.23935656  0.30664766  1
  Se  Se188  1  0.24683655  0.24312759  0.81394403  1
  Se  Se189  1  0.25334502  0.58400902  0.30053366  1
  Se  Se190  1  0.24033318  0.58068608  0.80505553  1
  Se  Se191  1  0.24570215  0.90589478  0.30547414  1
  Se  Se192  1  0.24491340  0.91612787  0.81350969  1
  Se  Se193  1  0.58097716  0.24085951  0.30776145  1
  Se  Se194  1  0.59095778  0.25037624  0.80594418  1
  Se  Se195  1  0.59228096  0.58704704  0.29917163  1
  Se  Se196  1  0.57707641  0.58406877  0.79766234  1
  Se  Se197  1  0.58622674  0.91881568  0.30125612  1
  Se  Se198  1  0.59036631  0.91796288  0.80892321  1
  Se  Se199  1  0.90370472  0.24613021  0.30393324  1
  Se  Se200  1  0.92134662  0.25334797  0.80460256  1
  Se  Se201  1  0.92213265  0.59030495  0.30026798  1
  Se  Se202  1  0.91400140  0.58147344  0.81609921  1
  Se  Se203  1  0.91217254  0.91995267  0.30017666  1
  Se  Se204  1  0.91176740  0.91554666  0.80853105  1
  Se  Se205  1  0.07335901  0.07785828  0.29392033  1
  Se  Se206  1  0.07646811  0.07930263  0.80749470  1
  Se  Se207  1  0.08405484  0.42394151  0.30732155  1
  Se  Se208  1  0.08643309  0.41810170  0.79943259  1
  Se  Se209  1  0.08751577  0.76474514  0.29745997  1
  Se  Se210  1  0.08047243  0.75522173  0.81449845  1
  Se  Se211  1  0.42466782  0.08691939  0.30478083  1
  Se  Se212  1  0.43032167  0.07952810  0.81771588  1
  Se  Se213  1  0.42587040  0.43052732  0.31620439  1
  Se  Se214  1  0.42455404  0.42732776  0.80864002  1
  Se  Se215  1  0.41968495  0.75262576  0.29685417  1
  Se  Se216  1  0.42262944  0.76278822  0.80771424  1
  Se  Se217  1  0.74532193  0.08014237  0.30406268  1
  Se  Se218  1  0.75056441  0.08091153  0.80786249  1
  Se  Se219  1  0.76082168  0.42783453  0.30763047  1
  Se  Se220  1  0.75334787  0.41791218  0.80600137  1
  Se  Se221  1  0.74703032  0.75179793  0.29966805  1
  Se  Se222  1  0.74639130  0.74377724  0.80626508  1
  Se  Se223  1  0.24603798  0.08676792  0.18501858  1
  Se  Se224  1  0.23687445  0.08741923  0.69638506  1
  Se  Se225  1  0.24373314  0.41826171  0.19255523  1
  Se  Se226  1  0.24730063  0.42303550  0.69165875  1
  Se  Se227  1  0.26392709  0.73886451  0.19355522  1
  Se  Se228  1  0.24133156  0.76323211  0.69568909  1
  Se  Se229  1  0.59171375  0.07912969  0.18887146  1
  Se  Se230  1  0.58924386  0.07178914  0.70513933  1
  Se  Se231  1  0.57415627  0.42710426  0.19023878  1
  Se  Se232  1  0.58757201  0.41081182  0.70729194  1
  Se  Se233  1  0.58942193  0.74946754  0.19210536  1
  Se  Se234  1  0.58992244  0.74875281  0.69658903  1
  Se  Se235  1  0.91548994  0.07574886  0.19496594  1
  Se  Se236  1  0.91270893  0.08098192  0.69857743  1
  Se  Se237  1  0.90780661  0.42462112  0.18445668  1
  Se  Se238  1  0.92244408  0.41650634  0.69893722  1
  Se  Se239  1  0.91387407  0.75141629  0.19543126  1
  Se  Se240  1  0.90659997  0.75909832  0.69205368  1
  Se  Se241  1  0.08042123  0.23991349  0.18185097  1
  Se  Se242  1  0.08097737  0.24852162  0.69797185  1
  Se  Se243  1  0.07905351  0.58762670  0.19566649  1
  Se  Se244  1  0.09384608  0.57872393  0.69138246  1
  Se  Se245  1  0.08625529  0.91332493  0.19848525  1
  Se  Se246  1  0.07324412  0.92182984  0.70676032  1
  Se  Se247  1  0.42377904  0.24847136  0.19346473  1
  Se  Se248  1  0.42887332  0.23566934  0.69659731  1
  Se  Se249  1  0.41312054  0.58930992  0.19674654  1
  Se  Se250  1  0.42942577  0.57586093  0.68959444  1
  Se  Se251  1  0.42722439  0.91101251  0.18150021  1
  Se  Se252  1  0.42488897  0.90988036  0.68856592  1
  Se  Se253  1  0.75099954  0.24135401  0.18578661  1
  Se  Se254  1  0.75221437  0.25285867  0.70523192  1
  Se  Se255  1  0.74704704  0.58833109  0.19457747  1
  Se  Se256  1  0.75735509  0.58646061  0.70293929  1
  Se  Se257  1  0.74453880  0.91910327  0.19138523  1
  Se  Se258  1  0.74889890  0.91700717  0.69591369  1
