# generated using pymatgen
data_In86Cu29Se144
_symmetry_space_group_name_H-M   'P 1'
_cell_length_a   17.56735132
_cell_length_b   17.56668857
_cell_length_c   23.42133961
_cell_angle_alpha   90.00882982
_cell_angle_beta   89.98333076
_cell_angle_gamma   89.98649412
_symmetry_Int_Tables_number   1
_chemical_formula_structural   In86Cu29Se144
_chemical_formula_sum   'In86 Cu29 Se144'
_cell_volume   7227.82925145
_cell_formula_units_Z   1
loop_
 _symmetry_equiv_pos_site_id
 _symmetry_equiv_pos_as_xyz
  1  'x, y, z'
loop_
 _atom_site_type_symbol
 _atom_site_label
 _atom_site_symmetry_multiplicity
 _atom_site_fract_x
 _atom_site_fract_y
 _atom_site_fract_z
 _atom_site_occupancy
  In  In0  1  0.02087447  0.17535809  0.10794466  1
  In  In1  1  -0.01648806  0.17896525  0.65734400  1
  In  In2  1  -0.00274045  0.48286488  0.12282804  1
  In  In3  1  -0.00824758  0.51353953  0.63965659  1
  In  In4  1  -0.00332854  0.84787169  0.11660429  1
  In  In5  1  -0.01969724  0.84346535  0.63216416  1
  In  In6  1  0.33123078  0.16907083  0.12052025  1
  In  In7  1  0.33033986  0.16747056  0.63832314  1
  In  In8  1  0.33626602  0.49639366  0.12247838  1
  In  In9  1  0.34227830  0.48979395  0.62522959  1
  In  In10  1  0.34170612  0.83058765  0.14667209  1
  In  In11  1  0.34795129  0.83368145  0.62243113  1
  In  In12  1  0.66693515  0.18298310  0.11773003  1
  In  In13  1  0.67274750  0.17198896  0.64511003  1
  In  In14  1  0.66477764  0.51813872  0.12596716  1
  In  In15  1  0.67170855  0.49469442  0.61765477  1
  In  In16  1  0.66201877  0.82227656  0.12546236  1
  In  In17  1  0.66581376  0.82802059  0.61967572  1
  In  In18  1  0.18003742  -0.00841501  0.37214265  1
  In  In19  1  0.18512793  0.02312544  0.85260065  1
  In  In20  1  0.16670369  0.33446029  0.36353075  1
  In  In21  1  0.16807830  0.32488910  0.87902011  1
  In  In22  1  0.16797861  0.66042352  0.36963617  1
  In  In23  1  0.14963643  0.66502211  0.87694172  1
  In  In24  1  0.48529826  0.00008730  0.37725412  1
  In  In25  1  0.51239156  0.00980568  0.86654902  1
  In  In26  1  0.49442457  0.35013972  0.37611910  1
  In  In27  1  0.49275774  0.33815212  0.87153379  1
  In  In28  1  0.50027752  0.66757532  0.37576177  1
  In  In29  1  0.50309711  0.65348314  0.87439925  1
  In  In30  1  0.82220749  -0.00775862  0.37887510  1
  In  In31  1  0.82683962  -0.00149006  0.86143290  1
  In  In32  1  0.84239268  0.34061195  0.37653726  1
  In  In33  1  0.84072413  0.33905699  0.86344934  1
  In  In34  1  0.81208355  0.67239684  0.39807619  1
  In  In35  1  0.83594403  0.67394798  0.86875067  1
  In  In36  1  -0.00385045  0.18196770  0.37725581  1
  In  In37  1  0.02356200  0.18709458  0.84359415  1
  In  In38  1  0.00344678  0.49754575  0.37600970  1
  In  In39  1  0.00046263  0.49753130  0.87677204  1
  In  In40  1  -0.00790166  0.82472185  0.37949057  1
  In  In41  1  -0.00569856  0.82468387  0.87248249  1
  In  In42  1  0.33057399  0.16288790  0.36439684  1
  In  In43  1  0.33170925  0.17266995  0.87595608  1
  In  In44  1  0.34472788  0.51138373  0.35877109  1
  In  In45  1  0.34246517  0.48699097  0.88192218  1
  In  In46  1  0.35217582  0.84481419  0.35627089  1
  In  In47  1  0.32349166  0.83861903  0.87584161  1
  In  In48  1  0.66953810  0.16458519  0.37747873  1
  In  In49  1  0.66197415  0.16501250  0.86529122  1
  In  In50  1  0.63339721  0.52529030  0.41742219  1
  In  In51  1  0.65901599  0.49359066  0.86227337  1
  In  In52  1  0.67052956  0.82332947  0.38669017  1
  In  In53  1  0.67741722  0.84274030  0.86529908  1
  In  In54  1  0.17154010  0.00528878  0.12032189  1
  In  In55  1  0.15681290  0.01077843  0.64320364  1
  In  In56  1  0.16698663  0.33564293  0.11846065  1
  In  In57  1  0.16698925  0.32864669  0.64443022  1
  In  In58  1  0.18312779  0.66860857  0.12480988  1
  In  In59  1  0.16393263  0.65279897  0.62950410  1
  In  In60  1  0.48305987  0.00113166  0.12432750  1
  In  In61  1  0.50848478  -0.00426125  0.63533741  1
  In  In62  1  0.49086859  0.32314480  0.11379492  1
  In  In63  1  0.50227958  0.33772055  0.62464531  1
  In  In64  1  0.50959547  0.66741931  0.13200296  1
  In  In65  1  0.52540830  0.67623609  0.59892172  1
  In  In66  1  0.85051002  -0.00227161  0.11634224  1
  In  In67  1  0.83516851  -0.00380690  0.63458829  1
  In  In68  1  0.83411148  0.34899842  0.12672158  1
  In  In69  1  0.82379671  0.35134457  0.64841534  1
  In  In70  1  0.81684577  0.67285429  0.12738438  1
  In  In71  1  0.82351986  0.66605257  0.61836502  1
  In  In72  1  0.66675729  -0.00305533  0.25167761  1
  In  In73  1  0.83428303  0.16195671  -0.01603206  1
  In  In74  1  0.66215144  0.34509687  0.26196088  1
  In  In75  1  0.16830188  0.49631954  0.49945326  1
  In  In76  1  0.83096976  0.50183054  -0.00865361  1
  In  In77  1  0.16384565  0.83537344  0.00203330  1
  In  In78  1  0.16441137  0.16484459  0.52091645  1
  In  In79  1  0.83439988  0.17045773  0.51611695  1
  In  In80  1  0.00352360  0.66628443  0.25413890  1
  In  In81  1  0.49899134  0.83541521  0.00650349  1
  In  In82  1  0.33817063  0.66414840  0.74826063  1
  In  In83  1  0.16592888  0.83125091  0.49865865  1
  In  In84  1  0.50108120  0.16745945  0.51457650  1
  In  In85  1  0.01337446  0.00736793  0.24189540  1
  Cu  Cu86  1  0.66347246  0.67245389  -0.00004907  1
  Cu  Cu87  1  0.17013183  0.16982071  0.24080852  1
  Cu  Cu88  1  0.34217148  0.33885514  0.49628319  1
  Cu  Cu89  1  0.32872320  -0.00805145  0.50023163  1
  Cu  Cu90  1  -0.00863039  0.67437631  0.50945031  1
  Cu  Cu91  1  -0.00028688  -0.00671233  -0.01578961  1
  Cu  Cu92  1  0.33261740  0.00585982  -0.00281402  1
  Cu  Cu93  1  0.34104404  0.66559129  0.49018893  1
  Cu  Cu94  1  -0.01188395  -0.00258317  0.50732129  1
  Cu  Cu95  1  -0.00767066  0.66028617  -0.00206646  1
  Cu  Cu96  1  0.50040393  0.83236701  0.74420116  1
  Cu  Cu97  1  0.66897495  0.00268975  -0.01002095  1
  Cu  Cu98  1  0.50455017  0.50404313  0.74350203  1
  Cu  Cu99  1  0.66095166  -0.00947811  0.50622468  1
  Cu  Cu100  1  0.82314734  0.82103209  0.74376561  1
  Cu  Cu101  1  0.49178190  0.17786238  0.75392527  1
  Cu  Cu102  1  0.00561580  0.34043179  0.50668467  1
  Cu  Cu103  1  0.49627299  0.16453755  0.24455611  1
  Cu  Cu104  1  0.83698297  0.50549939  0.74858132  1
  Cu  Cu105  1  0.83094542  0.50776958  0.25313979  1
  Cu  Cu106  1  0.16807922  0.49807538  0.75836406  1
  Cu  Cu107  1  0.33538306  0.65675435  0.00247360  1
  Cu  Cu108  1  0.16281790  0.83072568  0.75227041  1
  Cu  Cu109  1  0.83328224  0.83195064  0.25526542  1
  Cu  Cu110  1  0.84606525  0.18050408  0.24844798  1
  Cu  Cu111  1  0.65584380  0.33937184  -0.00840049  1
  Cu  Cu112  1  0.16496077  0.49099770  0.24239319  1
  Cu  Cu113  1  0.32989108  0.33070429  -0.00172003  1
  Cu  Cu114  1  0.50328911  0.49885126  0.25098808  1
  Se  Se115  1  0.08185355  0.06913109  0.04598090  1
  Se  Se116  1  0.06066079  0.07940235  0.57029989  1
  Se  Se117  1  0.07359679  0.40728897  0.05027862  1
  Se  Se118  1  0.08458514  0.41617105  0.57134835  1
  Se  Se119  1  0.07343108  0.73932146  0.06050667  1
  Se  Se120  1  0.07899931  0.74794444  0.56718040  1
  Se  Se121  1  0.41790964  0.08794968  0.05033000  1
  Se  Se122  1  0.40411006  0.07389828  0.56480933  1
  Se  Se123  1  0.41613561  0.41633478  0.04869782  1
  Se  Se124  1  0.42537404  0.42010053  0.55006454  1
  Se  Se125  1  0.40700351  0.74412392  0.06296601  1
  Se  Se126  1  0.41698789  0.75132400  0.54692338  1
  Se  Se127  1  0.74698429  0.07940533  0.05734142  1
  Se  Se128  1  0.73715808  0.07623820  0.56584950  1
  Se  Se129  1  0.73626101  0.41593698  0.05507307  1
  Se  Se130  1  0.76402822  0.40681488  0.55924736  1
  Se  Se131  1  0.74951455  0.75590442  0.05058227  1
  Se  Se132  1  0.73298847  0.73613798  0.54849162  1
  Se  Se133  1  0.24589798  0.24589575  0.05014211  1
  Se  Se134  1  0.26187563  0.26559629  0.56300215  1
  Se  Se135  1  0.24743728  0.57699632  0.05369975  1
  Se  Se136  1  0.26146600  0.59029990  0.55544508  1
  Se  Se137  1  0.26662516  0.91423926  0.05990948  1
  Se  Se138  1  0.24474833  0.92363799  0.56564956  1
  Se  Se139  1  0.58060242  0.24837330  0.04400759  1
  Se  Se140  1  0.60268664  0.25262337  0.56431844  1
  Se  Se141  1  0.57993751  0.58916669  0.05247132  1
  Se  Se142  1  0.58089549  0.56209238  0.54397019  1
  Se  Se143  1  0.59379530  0.92974952  0.06042243  1
  Se  Se144  1  0.57135334  0.91243640  0.55692126  1
  Se  Se145  1  0.90670785  0.25162038  0.05852311  1
  Se  Se146  1  0.93002810  0.25930684  0.57038774  1
  Se  Se147  1  0.91196519  0.58745479  0.06364310  1
  Se  Se148  1  0.91795961  0.57872262  0.55821390  1
  Se  Se149  1  0.91491885  0.91354939  0.03895694  1
  Se  Se150  1  0.90111257  0.91377331  0.55449894  1
  Se  Se151  1  0.08690236  0.25785202  0.44945524  1
  Se  Se152  1  0.07515066  0.23777360  0.93721156  1
  Se  Se153  1  0.07491138  0.59714888  0.44797099  1
  Se  Se154  1  0.08045507  0.57855434  0.95001587  1
  Se  Se155  1  0.07378022  0.92884684  0.44215146  1
  Se  Se156  1  0.09053716  0.91791324  0.92810174  1
  Se  Se157  1  0.41251260  0.24483211  0.44049404  1
  Se  Se158  1  0.41898401  0.25217704  0.94437586  1
  Se  Se159  1  0.41809743  0.57289694  0.44172061  1
  Se  Se160  1  0.42106137  0.57968378  0.94713772  1
  Se  Se161  1  0.41154647  0.91029867  0.44619010  1
  Se  Se162  1  0.41475233  0.92374464  0.93928247  1
  Se  Se163  1  0.75203909  0.25187020  0.44329657  1
  Se  Se164  1  0.74279115  0.26308139  0.93426635  1
  Se  Se165  1  0.77025778  0.55279956  0.45186791  1
  Se  Se166  1  0.73767323  0.59095175  0.93534879  1
  Se  Se167  1  0.75090880  0.91318962  0.45358699  1
  Se  Se168  1  0.75408541  0.91886063  0.94081749  1
  Se  Se169  1  0.25167893  0.08355926  0.44688141  1
  Se  Se170  1  0.24669392  0.08385248  0.94207842  1
  Se  Se171  1  0.25796278  0.41291890  0.43393733  1
  Se  Se172  1  0.24642026  0.41652118  0.94705951  1
  Se  Se173  1  0.25552854  0.74629063  0.43524652  1
  Se  Se174  1  0.25483957  0.73835472  0.94384535  1
  Se  Se175  1  0.58628737  0.07550195  0.44561273  1
  Se  Se176  1  0.58445207  0.08920251  0.94324242  1
  Se  Se177  1  0.59411462  0.38979813  0.44860262  1
  Se  Se178  1  0.57637526  0.42641344  0.93928838  1
  Se  Se179  1  0.58392664  0.73998688  0.44974117  1
  Se  Se180  1  0.58532511  0.75380175  0.93743681  1
  Se  Se181  1  0.91769984  0.08243559  0.44171727  1
  Se  Se182  1  0.92627507  0.07780325  0.92440570  1
  Se  Se183  1  0.92463738  0.41903164  0.44928165  1
  Se  Se184  1  0.92245957  0.40182125  0.94590610  1
  Se  Se185  1  0.90988255  0.75669068  0.45447445  1
  Se  Se186  1  0.91267033  0.74756897  0.94651898  1
  Se  Se187  1  0.25239640  0.25165043  0.29855256  1
  Se  Se188  1  0.25787880  0.25991229  0.80576776  1
  Se  Se189  1  0.24286924  0.57941949  0.29671279  1
  Se  Se190  1  0.24985063  0.58160631  0.81586363  1
  Se  Se191  1  0.25642828  0.92254263  0.29606767  1
  Se  Se192  1  0.25432627  0.91363017  0.79742811  1
  Se  Se193  1  0.57286505  0.24040392  0.31089192  1
  Se  Se194  1  0.58158492  0.25937579  0.80321470  1
  Se  Se195  1  0.58419755  0.56926058  0.31755988  1
  Se  Se196  1  0.58555522  0.58978898  0.79636637  1
  Se  Se197  1  0.58320631  0.91299192  0.31855281  1
  Se  Se198  1  0.58286021  0.91580528  0.79952048  1
  Se  Se199  1  0.92597645  0.26413444  0.30255048  1
  Se  Se200  1  0.89673095  0.23361012  0.79842399  1
  Se  Se201  1  0.90907848  0.58746122  0.31670824  1
  Se  Se202  1  0.91949947  0.58236611  0.80814084  1
  Se  Se203  1  0.91744097  0.91997532  0.30614071  1
  Se  Se204  1  0.90641934  0.89960599  0.80199945  1
  Se  Se205  1  0.09356393  0.09635919  0.31278959  1
  Se  Se206  1  0.06016294  0.05621912  0.80073556  1
  Se  Se207  1  0.07818881  0.41810146  0.30074716  1
  Se  Se208  1  0.08502250  0.41403723  0.81054831  1
  Se  Se209  1  0.09172267  0.76560434  0.30892298  1
  Se  Se210  1  0.07921662  0.74486311  0.80156779  1
  Se  Se211  1  0.41605551  0.07860020  0.29899297  1
  Se  Se212  1  0.41504738  0.08684776  0.80647649  1
  Se  Se213  1  0.41459618  0.41025655  0.29530477  1
  Se  Se214  1  0.41812488  0.42586220  0.79871861  1
  Se  Se215  1  0.40260238  0.72674846  0.30542438  1
  Se  Se216  1  0.42359093  0.75799350  0.81195859  1
  Se  Se217  1  0.76506982  0.09445223  0.30423232  1
  Se  Se218  1  0.73172429  0.07186796  0.79858345  1
  Se  Se219  1  0.75275014  0.43248416  0.31848451  1
  Se  Se220  1  0.75166585  0.41791614  0.79731218  1
  Se  Se221  1  0.75532422  0.74960780  0.31245344  1
  Se  Se222  1  0.73991049  0.74019525  0.80010992  1
  Se  Se223  1  0.25318056  0.08209673  0.19228102  1
  Se  Se224  1  0.24944605  0.08549296  0.70594512  1
  Se  Se225  1  0.25206256  0.41142050  0.19034083  1
  Se  Se226  1  0.25350975  0.42496110  0.69905123  1
  Se  Se227  1  0.24656594  0.74856914  0.20204339  1
  Se  Se228  1  0.24552789  0.75543281  0.68843950  1
  Se  Se229  1  0.58537240  0.09178805  0.18677674  1
  Se  Se230  1  0.57621126  0.09136304  0.70271942  1
  Se  Se231  1  0.57862057  0.41918368  0.18504431  1
  Se  Se232  1  0.58911714  0.41689643  0.69297514  1
  Se  Se233  1  0.58722054  0.75139261  0.20173343  1
  Se  Se234  1  0.57734323  0.74668184  0.68850856  1
  Se  Se235  1  0.91895501  0.09750186  0.18489169  1
  Se  Se236  1  0.92303714  0.06403072  0.70711051  1
  Se  Se237  1  0.91266949  0.42199685  0.20208719  1
  Se  Se238  1  0.93026817  0.41529130  0.70847566  1
  Se  Se239  1  0.91524648  0.75886593  0.19022519  1
  Se  Se240  1  0.91109193  0.74008563  0.69134632  1
  Se  Se241  1  0.08311651  0.25093329  0.19005646  1
  Se  Se242  1  0.09883754  0.23477155  0.71099603  1
  Se  Se243  1  0.08528835  0.57721677  0.18581868  1
  Se  Se244  1  0.08596617  0.58568234  0.70741078  1
  Se  Se245  1  0.09677166  0.90572507  0.18816171  1
  Se  Se246  1  0.07722557  0.91115127  0.69890677  1
  Se  Se247  1  0.41577137  0.24975382  0.19169539  1
  Se  Se248  1  0.41534238  0.26121713  0.69510864  1
  Se  Se249  1  0.42104862  0.57824822  0.19165224  1
  Se  Se250  1  0.42997381  0.58844480  0.68106514  1
  Se  Se251  1  0.44720144  0.90310531  0.20002753  1
  Se  Se252  1  0.41236630  0.91867160  0.69873436  1
  Se  Se253  1  0.75264786  0.25419894  0.19574212  1
  Se  Se254  1  0.77567370  0.23565746  0.70669281  1
  Se  Se255  1  0.74575332  0.59000163  0.20189183  1
  Se  Se256  1  0.74976541  0.57856951  0.69077940  1
  Se  Se257  1  0.76284515  0.91493457  0.18876781  1
  Se  Se258  1  0.74217600  0.91031483  0.69303355  1
