# generated using pymatgen
data_In86Cu29Se144
_symmetry_space_group_name_H-M   'P 1'
_cell_length_a   17.58830943
_cell_length_b   17.59549046
_cell_length_c   23.44788631
_cell_angle_alpha   89.98807671
_cell_angle_beta   90.01415557
_cell_angle_gamma   90.02447782
_symmetry_Int_Tables_number   1
_chemical_formula_structural   In86Cu29Se144
_chemical_formula_sum   'In86 Cu29 Se144'
_cell_volume   7256.53194916
_cell_formula_units_Z   1
loop_
 _symmetry_equiv_pos_site_id
 _symmetry_equiv_pos_as_xyz
  1  'x, y, z'
loop_
 _atom_site_type_symbol
 _atom_site_label
 _atom_site_symmetry_multiplicity
 _atom_site_fract_x
 _atom_site_fract_y
 _atom_site_fract_z
 _atom_site_occupancy
  In  In0  1  0.00607214  0.16327740  0.13412385  1
  In  In1  1  -0.00012267  0.15420296  0.62321217  1
  In  In2  1  -0.00104830  0.50419971  0.12252908  1
  In  In3  1  0.01094441  0.51430474  0.61227249  1
  In  In4  1  0.04263647  0.80093375  0.15974141  1
  In  In5  1  0.02066981  0.81536035  0.63639730  1
  In  In6  1  0.33285002  0.15246194  0.12388186  1
  In  In7  1  0.33631917  0.16543132  0.62953806  1
  In  In8  1  0.34579705  0.51451098  0.11935957  1
  In  In9  1  0.33722345  0.50769531  0.63237228  1
  In  In10  1  0.32388869  0.83440353  0.12916164  1
  In  In11  1  0.32489775  0.82722550  0.64480097  1
  In  In12  1  0.65886026  0.17672323  0.12968497  1
  In  In13  1  0.66971952  0.16501898  0.62422024  1
  In  In14  1  0.65442609  0.48795979  0.12018331  1
  In  In15  1  0.66939375  0.50434626  0.62088984  1
  In  In16  1  0.67697775  0.83538487  0.12964255  1
  In  In17  1  0.64765948  0.82828451  0.62466523  1
  In  In18  1  0.16879707  -0.00682346  0.37070325  1
  In  In19  1  0.16529137  -0.01554253  0.86618047  1
  In  In20  1  0.16754775  0.35636302  0.37429999  1
  In  In21  1  0.18217664  0.33624154  0.87664155  1
  In  In22  1  0.16426460  0.66989022  0.37001044  1
  In  In23  1  0.16438800  0.66626378  0.87371391  1
  In  In24  1  0.49884974  -0.00062952  0.36655159  1
  In  In25  1  0.49032751  0.00748295  0.88225879  1
  In  In26  1  0.51135298  0.33728498  0.37394163  1
  In  In27  1  0.48255890  0.34850440  0.88718647  1
  In  In28  1  0.48232872  0.66744600  0.37522441  1
  In  In29  1  0.46409667  0.62983908  0.83284545  1
  In  In30  1  0.83103846  0.00173002  0.37341692  1
  In  In31  1  0.83921438  -0.01599057  0.87665509  1
  In  In32  1  0.84040874  0.34433580  0.36531034  1
  In  In33  1  0.84372623  0.34362709  0.87682343  1
  In  In34  1  0.83668316  0.65201943  0.37625631  1
  In  In35  1  0.82715343  0.65935870  0.86794460  1
  In  In36  1  -0.01012910  0.16256800  0.36804235  1
  In  In37  1  0.01382312  0.15313499  0.87904507  1
  In  In38  1  0.00043148  0.50690855  0.36963743  1
  In  In39  1  -0.00604404  0.51276570  0.88482006  1
  In  In40  1  0.02074340  0.84277338  0.36277406  1
  In  In41  1  0.01605366  0.83272893  0.86507302  1
  In  In42  1  0.34374888  0.16120790  0.37403625  1
  In  In43  1  0.33604668  0.17610272  0.86993516  1
  In  In44  1  0.32479388  0.51073559  0.38355916  1
  In  In45  1  0.33159463  0.49321778  0.87756682  1
  In  In46  1  0.31910506  0.82818170  0.36282777  1
  In  In47  1  0.31570321  0.81008835  0.85040290  1
  In  In48  1  0.66197179  0.16843832  0.36806591  1
  In  In49  1  0.65628800  0.15381561  0.87877924  1
  In  In50  1  0.67194219  0.49784597  0.37873783  1
  In  In51  1  0.65558433  0.51054264  0.88175042  1
  In  In52  1  0.65415626  0.84053567  0.37246289  1
  In  In53  1  0.67129869  0.82210849  0.87402309  1
  In  In54  1  0.17963574  -0.01623858  0.14124920  1
  In  In55  1  0.19123347  -0.02811379  0.64039031  1
  In  In56  1  0.15159748  0.33822666  0.12991727  1
  In  In57  1  0.16845919  0.34990202  0.62326624  1
  In  In58  1  0.17709227  0.66280568  0.12318696  1
  In  In59  1  0.16994346  0.66630620  0.62978571  1
  In  In60  1  0.49143454  0.00599878  0.12658757  1
  In  In61  1  0.47733532  -0.01697161  0.62421098  1
  In  In62  1  0.51211689  0.34698940  0.12080362  1
  In  In63  1  0.48675726  0.34051827  0.63081232  1
  In  In64  1  0.49070825  0.64870053  0.12413066  1
  In  In65  1  0.50597189  0.66043096  0.64342290  1
  In  In66  1  0.84390525  -0.01173463  0.13102221  1
  In  In67  1  0.84229790  0.00333537  0.62057995  1
  In  In68  1  0.82609058  0.33932052  0.13011371  1
  In  In69  1  0.82513316  0.34170033  0.62216257  1
  In  In70  1  0.84570061  0.67150950  0.12339557  1
  In  In71  1  0.84418043  0.66227279  0.62659080  1
  In  In72  1  0.50026098  0.16978859  0.50505795  1
  In  In73  1  0.83300607  0.17052977  0.50237191  1
  In  In74  1  0.16281587  0.16680804  0.48837079  1
  In  In75  1  0.66357836  0.33563921  0.74715413  1
  In  In76  1  0.16972178  0.17066192  -0.00001944  1
  In  In77  1  0.66578569  -0.00374849  0.74181440  1
  In  In78  1  0.84037624  0.82945946  -0.00308526  1
  In  In79  1  0.66607117  0.66725927  0.25260727  1
  In  In80  1  0.33376784  0.33396143  0.25165022  1
  In  In81  1  0.48753913  0.82954478  0.50274277  1
  In  In82  1  0.83628772  0.82803669  0.49060423  1
  In  In83  1  0.49613169  0.82477428  -0.01229227  1
  In  In84  1  0.82522977  0.17078474  0.00538438  1
  In  In85  1  0.00535881  0.33484052  0.74894723  1
  Cu  Cu86  1  0.33381146  0.66580859  -0.01125316  1
  Cu  Cu87  1  0.49643464  0.83635542  0.24819614  1
  Cu  Cu88  1  0.16946761  0.50200855  0.74911483  1
  Cu  Cu89  1  0.32917844  0.66525266  0.50342541  1
  Cu  Cu90  1  0.66488367  0.65476235  -0.00449847  1
  Cu  Cu91  1  0.84040666  0.83007777  0.74951872  1
  Cu  Cu92  1  0.49760480  0.16864348  0.75172206  1
  Cu  Cu93  1  0.83627720  0.83973285  0.25349900  1
  Cu  Cu94  1  0.83721045  0.50652185  0.74808674  1
  Cu  Cu95  1  0.33748957  0.33507917  0.00178449  1
  Cu  Cu96  1  0.16291987  0.16615665  0.25308506  1
  Cu  Cu97  1  0.65533855  0.00319005  0.00697597  1
  Cu  Cu98  1  0.16407327  0.50536333  0.24914594  1
  Cu  Cu99  1  0.82765299  0.16774373  0.24843116  1
  Cu  Cu100  1  0.66323531  0.66255191  0.50450290  1
  Cu  Cu101  1  0.66913849  0.34370027  0.49725515  1
  Cu  Cu102  1  0.01182750  -0.01343920  0.50061130  1
  Cu  Cu103  1  0.84303297  0.15809131  0.75313171  1
  Cu  Cu104  1  0.33098981  0.34242069  0.50542173  1
  Cu  Cu105  1  0.66530475  0.33425481  0.00479315  1
  Cu  Cu106  1  0.16709774  0.16022218  0.75211446  1
  Cu  Cu107  1  0.32531459  -0.00607803  0.00180749  1
  Cu  Cu108  1  0.00814557  0.67022394  0.00387367  1
  Cu  Cu109  1  0.00890604  0.66699838  0.49937420  1
  Cu  Cu110  1  -0.00229523  0.34445314  0.00443792  1
  Cu  Cu111  1  0.00671536  -0.00750517  0.00337771  1
  Cu  Cu112  1  0.50023909  0.16620218  0.24716591  1
  Cu  Cu113  1  -0.00521119  0.34687326  0.49309584  1
  Cu  Cu114  1  0.83275175  0.50170615  0.24724953  1
  Se  Se115  1  0.08374478  0.07864564  0.06036450  1
  Se  Se116  1  0.08903528  0.07426655  0.55703178  1
  Se  Se117  1  0.08736101  0.42338335  0.05386076  1
  Se  Se118  1  0.08538308  0.41911008  0.54828770  1
  Se  Se119  1  0.08757229  0.75264401  0.06058805  1
  Se  Se120  1  0.09140035  0.74812101  0.55481891  1
  Se  Se121  1  0.41256327  0.07845728  0.04904097  1
  Se  Se122  1  0.40347994  0.07448620  0.55294814  1
  Se  Se123  1  0.42047519  0.42096647  0.05340480  1
  Se  Se124  1  0.41589449  0.42410658  0.55805356  1
  Se  Se125  1  0.40813687  0.74328908  0.05720647  1
  Se  Se126  1  0.40960425  0.73852770  0.56912382  1
  Se  Se127  1  0.74507333  0.07347982  0.06555384  1
  Se  Se128  1  0.73980573  0.07243910  0.55335131  1
  Se  Se129  1  0.75193987  0.41760069  0.05401679  1
  Se  Se130  1  0.75439788  0.42539619  0.54973956  1
  Se  Se131  1  0.74110628  0.74119780  0.05405443  1
  Se  Se132  1  0.74439519  0.74768407  0.55953317  1
  Se  Se133  1  0.25530228  0.25952566  0.06493029  1
  Se  Se134  1  0.25144738  0.25245605  0.55763780  1
  Se  Se135  1  0.25477591  0.58367690  0.04856599  1
  Se  Se136  1  0.24943300  0.58132682  0.56058531  1
  Se  Se137  1  0.24263608  0.91362740  0.05634451  1
  Se  Se138  1  0.26282624  0.90270870  0.56133017  1
  Se  Se139  1  0.58005625  0.24880149  0.05320552  1
  Se  Se140  1  0.59309168  0.26484932  0.56186901  1
  Se  Se141  1  0.57888273  0.57915445  0.05254201  1
  Se  Se142  1  0.57585262  0.58813870  0.56095058  1
  Se  Se143  1  0.58144871  0.91017929  0.05984599  1
  Se  Se144  1  0.58318305  0.92645946  0.55444706  1
  Se  Se145  1  0.92473575  0.25374043  0.06160754  1
  Se  Se146  1  0.92794915  0.26213601  0.55966164  1
  Se  Se147  1  0.91782642  0.58791118  0.05093726  1
  Se  Se148  1  0.91542628  0.58736635  0.54702391  1
  Se  Se149  1  0.92987320  0.90883968  0.06198870  1
  Se  Se150  1  0.92526971  0.90963923  0.55793917  1
  Se  Se151  1  0.06968899  0.26113597  0.43428970  1
  Se  Se152  1  0.07412521  0.26233138  0.94221956  1
  Se  Se153  1  0.08664018  0.58276142  0.44073632  1
  Se  Se154  1  0.08950182  0.58495542  0.94929529  1
  Se  Se155  1  0.09531936  0.90864663  0.44488732  1
  Se  Se156  1  0.08561698  0.91326849  0.94331346  1
  Se  Se157  1  0.40997141  0.26213100  0.44402285  1
  Se  Se158  1  0.41449274  0.24526281  0.94899204  1
  Se  Se159  1  0.41716186  0.58422531  0.45240370  1
  Se  Se160  1  0.42122346  0.58709981  0.93459101  1
  Se  Se161  1  0.40939622  0.91612493  0.43329158  1
  Se  Se162  1  0.39723890  0.91312755  0.93610211  1
  Se  Se163  1  0.74548995  0.25776474  0.43886406  1
  Se  Se164  1  0.74148744  0.25806261  0.93706448  1
  Se  Se165  1  0.74882513  0.58483367  0.44904877  1
  Se  Se166  1  0.75782574  0.57835970  0.94516998  1
  Se  Se167  1  0.73898990  0.92355445  0.44368204  1
  Se  Se168  1  0.73783805  0.92320419  0.94757124  1
  Se  Se169  1  0.26103237  0.07412917  0.44138602  1
  Se  Se170  1  0.25185094  0.07843913  0.93716981  1
  Se  Se171  1  0.24539560  0.42357481  0.45269083  1
  Se  Se172  1  0.24926472  0.41757509  0.95301773  1
  Se  Se173  1  0.25362467  0.74533036  0.44115223  1
  Se  Se174  1  0.25075275  0.75288441  0.93967664  1
  Se  Se175  1  0.58474569  0.08035560  0.44078689  1
  Se  Se176  1  0.57354645  0.08639070  0.95424751  1
  Se  Se177  1  0.57966458  0.42333088  0.44774051  1
  Se  Se178  1  0.58358269  0.41760680  0.94892444  1
  Se  Se179  1  0.58622554  0.74307850  0.44253771  1
  Se  Se180  1  0.58528563  0.73078812  0.93388062  1
  Se  Se181  1  0.92645358  0.07237815  0.44854777  1
  Se  Se182  1  0.91957189  0.07423157  0.94882482  1
  Se  Se183  1  0.91131709  0.42754427  0.43964039  1
  Se  Se184  1  0.91228078  0.42508386  0.95182266  1
  Se  Se185  1  0.93282494  0.74414967  0.43290859  1
  Se  Se186  1  0.92923475  0.74236103  0.93463418  1
  Se  Se187  1  0.24209082  0.24586512  0.31512714  1
  Se  Se188  1  0.24653048  0.25108774  0.80088994  1
  Se  Se189  1  0.25042146  0.58281125  0.30453556  1
  Se  Se190  1  0.24999316  0.57951102  0.80907236  1
  Se  Se191  1  0.24707777  0.91944097  0.29515441  1
  Se  Se192  1  0.26168661  0.92583157  0.79667717  1
  Se  Se193  1  0.58099382  0.25250247  0.30012907  1
  Se  Se194  1  0.57900602  0.24584820  0.81168832  1
  Se  Se195  1  0.57646130  0.58069073  0.31296643  1
  Se  Se196  1  0.59511607  0.58096792  0.79847495  1
  Se  Se197  1  0.58390631  0.92006552  0.29661638  1
  Se  Se198  1  0.58634257  0.92273359  0.81766269  1
  Se  Se199  1  0.91420634  0.25081110  0.30022483  1
  Se  Se200  1  0.91850386  0.24065762  0.81301059  1
  Se  Se201  1  0.91666796  0.58702825  0.29779200  1
  Se  Se202  1  0.92335283  0.58427263  0.80353222  1
  Se  Se203  1  0.91856076  0.92232957  0.30749253  1
  Se  Se204  1  0.92128804  0.91465110  0.80325809  1
  Se  Se205  1  0.08223513  0.08157253  0.30746137  1
  Se  Se206  1  0.08222782  0.07653526  0.80209209  1
  Se  Se207  1  0.08015351  0.41950546  0.29965876  1
  Se  Se208  1  0.08845428  0.42407322  0.81313634  1
  Se  Se209  1  0.08338795  0.74611009  0.29491013  1
  Se  Se210  1  0.10177468  0.75469092  0.79584598  1
  Se  Se211  1  0.41531679  0.08271239  0.29837342  1
  Se  Se212  1  0.41605124  0.08445409  0.80549609  1
  Se  Se213  1  0.41618327  0.42364606  0.31509680  1
  Se  Se214  1  0.41205516  0.41167914  0.80597612  1
  Se  Se215  1  0.41479522  0.75010149  0.29969509  1
  Se  Se216  1  0.44350303  0.77021341  0.80593081  1
  Se  Se217  1  0.74825180  0.08365137  0.30477949  1
  Se  Se218  1  0.75669319  0.08243563  0.81039796  1
  Se  Se219  1  0.74655291  0.42151417  0.30134839  1
  Se  Se220  1  0.75792727  0.42320660  0.80669943  1
  Se  Se221  1  0.75702097  0.75806966  0.31445268  1
  Se  Se222  1  0.75223813  0.74954674  0.79994937  1
  Se  Se223  1  0.25079687  0.08671011  0.20085335  1
  Se  Se224  1  0.25446334  0.08225553  0.69749562  1
  Se  Se225  1  0.24710338  0.42459060  0.18949776  1
  Se  Se226  1  0.25264751  0.41700685  0.69754852  1
  Se  Se227  1  0.23706975  0.75732232  0.19663735  1
  Se  Se228  1  0.22706344  0.75537339  0.70920157  1
  Se  Se229  1  0.58315394  0.08138235  0.19351244  1
  Se  Se230  1  0.56972143  0.08824558  0.68589504  1
  Se  Se231  1  0.58218550  0.41907624  0.20014769  1
  Se  Se232  1  0.57451094  0.43038763  0.69386508  1
  Se  Se233  1  0.57526232  0.75344332  0.18747734  1
  Se  Se234  1  0.58432145  0.75578032  0.70505756  1
  Se  Se235  1  0.91336187  0.08510050  0.19709599  1
  Se  Se236  1  0.92114465  0.07633718  0.69682031  1
  Se  Se237  1  0.91788993  0.41966868  0.19295840  1
  Se  Se238  1  0.91605068  0.42421063  0.68771284  1
  Se  Se239  1  0.91311451  0.75106648  0.20043637  1
  Se  Se240  1  0.92265994  0.74275420  0.69865213  1
  Se  Se241  1  0.08073365  0.25295317  0.20274533  1
  Se  Se242  1  0.09213628  0.24178061  0.68735637  1
  Se  Se243  1  0.08368400  0.58560277  0.19063360  1
  Se  Se244  1  0.08162479  0.57933839  0.69513854  1
  Se  Se245  1  0.05840778  0.93966124  0.19218071  1
  Se  Se246  1  0.06272549  0.93852671  0.68621141  1
  Se  Se247  1  0.42014449  0.24670608  0.18633642  1
  Se  Se248  1  0.41332513  0.25176139  0.69887228  1
  Se  Se249  1  0.41115352  0.58532049  0.20208808  1
  Se  Se250  1  0.40443045  0.59552714  0.70773606  1
  Se  Se251  1  0.41262246  0.91807558  0.19307038  1
  Se  Se252  1  0.42573868  0.90217162  0.70493632  1
  Se  Se253  1  0.74539518  0.25444852  0.19773094  1
  Se  Se254  1  0.76349409  0.23993612  0.69511588  1
  Se  Se255  1  0.75251184  0.58213307  0.18593265  1
  Se  Se256  1  0.75205789  0.58401928  0.69167827  1
  Se  Se257  1  0.74951717  0.92010879  0.20100026  1
  Se  Se258  1  0.76059234  0.90580769  0.68467584  1
