# generated using pymatgen
data_In86Cu29Se144
_symmetry_space_group_name_H-M   'P 1'
_cell_length_a   17.56719935
_cell_length_b   17.56995618
_cell_length_c   23.41693635
_cell_angle_alpha   90.00396547
_cell_angle_beta   89.99068145
_cell_angle_gamma   89.98780533
_symmetry_Int_Tables_number   1
_chemical_formula_structural   In86Cu29Se144
_chemical_formula_sum   'In86 Cu29 Se144'
_cell_volume   7227.75240532
_cell_formula_units_Z   1
loop_
 _symmetry_equiv_pos_site_id
 _symmetry_equiv_pos_as_xyz
  1  'x, y, z'
loop_
 _atom_site_type_symbol
 _atom_site_label
 _atom_site_symmetry_multiplicity
 _atom_site_fract_x
 _atom_site_fract_y
 _atom_site_fract_z
 _atom_site_occupancy
  In  In0  1  0.01118951  0.15833179  0.12947807  1
  In  In1  1  0.00086103  0.16276023  0.62031866  1
  In  In2  1  -0.00575241  0.48855287  0.12731677  1
  In  In3  1  -0.01040741  0.49216159  0.61184429  1
  In  In4  1  0.00935981  0.84007864  0.13477004  1
  In  In5  1  -0.00336878  0.84464108  0.60475674  1
  In  In6  1  0.33956724  0.17664000  0.11977890  1
  In  In7  1  0.32467856  0.17459030  0.62287742  1
  In  In8  1  0.31698322  0.49985501  0.12320433  1
  In  In9  1  0.33631130  0.50247967  0.61885150  1
  In  In10  1  0.33992193  0.82058330  0.12926515  1
  In  In11  1  0.33227448  0.84178462  0.61055187  1
  In  In12  1  0.65849435  0.16041264  0.12618153  1
  In  In13  1  0.67614206  0.15561199  0.63305488  1
  In  In14  1  0.67818197  0.50081686  0.12733197  1
  In  In15  1  0.66541930  0.50186732  0.61606447  1
  In  In16  1  0.66235088  0.83910632  0.13698762  1
  In  In17  1  0.69929119  0.85759601  0.58537447  1
  In  In18  1  0.13824304  0.03495406  0.40979935  1
  In  In19  1  0.16848097  0.00663394  0.87174068  1
  In  In20  1  0.16197113  0.33852758  0.37076526  1
  In  In21  1  0.16154416  0.33708551  0.88229654  1
  In  In22  1  0.14559723  0.67272519  0.39018566  1
  In  In23  1  0.15486519  0.65672924  0.87279189  1
  In  In24  1  0.50246259  -0.01562062  0.38286265  1
  In  In25  1  0.50501768  -0.00449744  0.87859229  1
  In  In26  1  0.50022835  0.34804417  0.36995047  1
  In  In27  1  0.49386804  0.32078677  0.87397301  1
  In  In28  1  0.51492084  0.66580158  0.38601022  1
  In  In29  1  0.51763136  0.67961653  0.88098710  1
  In  In30  1  0.83416586  0.00532568  0.37960296  1
  In  In31  1  0.83652520  -0.00061159  0.85906364  1
  In  In32  1  0.84373242  0.32147423  0.38281218  1
  In  In33  1  0.84288420  0.33992556  0.86678407  1
  In  In34  1  0.81143267  0.68541821  0.40239677  1
  In  In35  1  0.82134165  0.65695560  0.87503759  1
  In  In36  1  -0.00497490  0.17016316  0.37535776  1
  In  In37  1  0.00249081  0.17076859  0.86416866  1
  In  In38  1  0.00083910  0.49862722  0.38300330  1
  In  In39  1  0.00751522  0.48814412  0.87996592  1
  In  In40  1  -0.02626200  0.85768927  0.40483396  1
  In  In41  1  -0.01127288  0.83701475  0.86670012  1
  In  In42  1  0.31236336  0.16765556  0.37632519  1
  In  In43  1  0.32659234  0.17957556  0.89091159  1
  In  In44  1  0.33339692  0.49864763  0.37270872  1
  In  In45  1  0.32226866  0.48352528  0.87808368  1
  In  In46  1  0.33393329  0.84222351  0.38682984  1
  In  In47  1  0.34118637  0.84845212  0.87382967  1
  In  In48  1  0.68266122  0.16177059  0.38036866  1
  In  In49  1  0.66144569  0.15604126  0.86728957  1
  In  In50  1  0.65980190  0.50835919  0.38856686  1
  In  In51  1  0.68611107  0.50792572  0.87544535  1
  In  In52  1  0.66903767  0.83880354  0.37919550  1
  In  In53  1  0.65917339  0.83152647  0.87454761  1
  In  In54  1  0.15523050  0.00562557  0.13046897  1
  In  In55  1  0.14640293  -0.01651588  0.59700972  1
  In  In56  1  0.16460316  0.33024599  0.12934685  1
  In  In57  1  0.15613578  0.31808122  0.61734608  1
  In  In58  1  0.17759934  0.66804327  0.12781544  1
  In  In59  1  0.15100746  0.66381300  0.60425226  1
  In  In60  1  0.50473057  0.00291702  0.12631546  1
  In  In61  1  0.51914465  -0.00601249  0.61886312  1
  In  In62  1  0.50248131  0.31969282  0.12545044  1
  In  In63  1  0.50479598  0.34881089  0.62110661  1
  In  In64  1  0.50172375  0.68009501  0.12452972  1
  In  In65  1  0.53417713  0.68456818  0.60228684  1
  In  In66  1  0.83745138  -0.00683772  0.13619908  1
  In  In67  1  0.83327290  0.00958462  0.61338471  1
  In  In68  1  0.83264453  0.34861054  0.12843928  1
  In  In69  1  0.83552025  0.33122939  0.62619997  1
  In  In70  1  0.83386058  0.65155433  0.13209477  1
  In  In71  1  0.83373556  0.66528648  0.59709021  1
  In  In72  1  0.33364269  0.00951185  0.74816683  1
  In  In73  1  0.50028739  0.16308323  0.49616657  1
  In  In74  1  -0.00775826  0.66753863  0.26352012  1
  In  In75  1  0.17437924  0.83029744  0.00885753  1
  In  In76  1  0.33209086  0.32600650  0.75316591  1
  In  In77  1  0.67370263  0.67234207  0.74149607  1
  In  In78  1  0.67022248  0.32961203  0.24999289  1
  In  In79  1  0.82825796  0.82540120  -0.00151165  1
  In  In80  1  0.33160629  0.66394650  0.25538251  1
  In  In81  1  0.49800063  0.50147675  -0.00017140  1
  In  In82  1  0.83509407  0.17104447  -0.00497739  1
  In  In83  1  0.33124367  0.00057706  0.26053602  1
  In  In84  1  0.33698491  0.66761521  0.73682205  1
  In  In85  1  -0.00236851  0.66781680  0.73537456  1
  Cu  Cu86  1  0.84183011  0.16108575  0.25385222  1
  Cu  Cu87  1  0.83156751  0.16777383  0.74117507  1
  Cu  Cu88  1  0.83192887  0.84451769  0.73406760  1
  Cu  Cu89  1  0.66638135  0.33389353  -0.00021001  1
  Cu  Cu90  1  0.00084332  0.32975921  0.49903860  1
  Cu  Cu91  1  0.66447182  0.00068902  0.00226985  1
  Cu  Cu92  1  0.00385422  -0.00075660  -0.00108633  1
  Cu  Cu93  1  0.82821698  0.50125887  0.26114967  1
  Cu  Cu94  1  0.50162587  0.50600079  0.25560591  1
  Cu  Cu95  1  0.15677548  0.49905195  0.25209748  1
  Cu  Cu96  1  0.00051829  0.33411756  0.00139374  1
  Cu  Cu97  1  0.84050352  0.49973110  0.74500046  1
  Cu  Cu98  1  -0.00114352  0.64967817  0.00132660  1
  Cu  Cu99  1  0.34158137  0.00149228  0.00125009  1
  Cu  Cu100  1  0.32878419  0.33706491  0.49578383  1
  Cu  Cu101  1  0.50828477  0.50143933  0.74201385  1
  Cu  Cu102  1  0.33532629  0.65355522  0.49671355  1
  Cu  Cu103  1  0.15646369  0.83985413  0.72986629  1
  Cu  Cu104  1  0.16034892  0.84666707  0.26683272  1
  Cu  Cu105  1  0.50809128  0.82912361  0.25773431  1
  Cu  Cu106  1  0.16433824  0.48705786  0.74989478  1
  Cu  Cu107  1  0.83230934  0.83357176  0.26599856  1
  Cu  Cu108  1  0.33541748  0.66678340  0.00136120  1
  Cu  Cu109  1  0.67076186  0.33348273  0.50186954  1
  Cu  Cu110  1  0.15425679  0.15647975  0.74524073  1
  Cu  Cu111  1  0.16172840  0.17028777  0.25554246  1
  Cu  Cu112  1  0.50542751  0.16211117  0.75142246  1
  Cu  Cu113  1  0.50134604  0.16144400  0.25061084  1
  Cu  Cu114  1  0.50849488  0.83853243  0.74807168  1
  Se  Se115  1  0.08653208  0.08293743  0.05124037  1
  Se  Se116  1  0.09006838  0.09817414  0.54483475  1
  Se  Se117  1  0.08286312  0.41525437  0.05829302  1
  Se  Se118  1  0.08629937  0.41344476  0.55083379  1
  Se  Se119  1  0.07232758  0.73935059  0.06137644  1
  Se  Se120  1  0.09086304  0.76765336  0.54209087  1
  Se  Se121  1  0.42208008  0.08444457  0.05783879  1
  Se  Se122  1  0.41546609  0.08027629  0.56558688  1
  Se  Se123  1  0.41290688  0.41264280  0.06303029  1
  Se  Se124  1  0.41486149  0.41616846  0.54962873  1
  Se  Se125  1  0.41752246  0.75300049  0.05047093  1
  Se  Se126  1  0.40897793  0.73686473  0.55796507  1
  Se  Se127  1  0.75340256  0.07501867  0.05940027  1
  Se  Se128  1  0.74043183  0.08898850  0.54931437  1
  Se  Se129  1  0.74928546  0.41664102  0.05280809  1
  Se  Se130  1  0.75592020  0.41621055  0.55529463  1
  Se  Se131  1  0.74754007  0.74583199  0.06961088  1
  Se  Se132  1  0.71683251  0.72040656  0.54723353  1
  Se  Se133  1  0.23275014  0.23615923  0.06077068  1
  Se  Se134  1  0.24896139  0.24907176  0.54685650  1
  Se  Se135  1  0.24642060  0.58797611  0.05076716  1
  Se  Se136  1  0.24670920  0.57623482  0.54998013  1
  Se  Se137  1  0.26244452  0.92534550  0.06846002  1
  Se  Se138  1  0.25070064  0.91634924  0.53910243  1
  Se  Se139  1  0.58882388  0.24720546  0.05337834  1
  Se  Se140  1  0.58734166  0.25210643  0.56065254  1
  Se  Se141  1  0.58819061  0.58775315  0.06136038  1
  Se  Se142  1  0.57147126  0.56570499  0.54561164  1
  Se  Se143  1  0.58749331  0.91652924  0.05978673  1
  Se  Se144  1  0.56677525  0.89641401  0.54392242  1
  Se  Se145  1  0.92053173  0.25436002  0.06344092  1
  Se  Se146  1  0.91648332  0.24993252  0.55500125  1
  Se  Se147  1  0.91372423  0.57505562  0.05864179  1
  Se  Se148  1  0.94510344  0.60201546  0.54532225  1
  Se  Se149  1  0.92398344  0.91664642  0.05736186  1
  Se  Se150  1  0.88740641  0.90350715  0.54470228  1
  Se  Se151  1  0.08499446  0.25253686  0.44121211  1
  Se  Se152  1  0.07385511  0.24690791  0.94261137  1
  Se  Se153  1  0.09162660  0.56741218  0.45393224  1
  Se  Se154  1  0.08913043  0.57322429  0.94887084  1
  Se  Se155  1  0.09298004  0.90953364  0.45723504  1
  Se  Se156  1  0.08133442  0.91150305  0.94119221  1
  Se  Se157  1  0.41220527  0.25801270  0.43640649  1
  Se  Se158  1  0.41806663  0.25622688  0.95360473  1
  Se  Se159  1  0.42123345  0.57686536  0.44078754  1
  Se  Se160  1  0.41023131  0.59097262  0.93306039  1
  Se  Se161  1  0.41422327  0.92315257  0.45696544  1
  Se  Se162  1  0.42286624  0.91453602  0.95054674  1
  Se  Se163  1  0.75378437  0.24704073  0.45237417  1
  Se  Se164  1  0.74383905  0.25704962  0.93454621  1
  Se  Se165  1  0.75818810  0.56877925  0.45587179  1
  Se  Se166  1  0.74345738  0.59338606  0.95346947  1
  Se  Se167  1  0.76695142  0.90516413  0.44690600  1
  Se  Se168  1  0.74981325  0.92797946  0.93903939  1
  Se  Se169  1  0.26538144  0.07837087  0.45457347  1
  Se  Se170  1  0.25151514  0.07529213  0.94683720  1
  Se  Se171  1  0.24674202  0.41971210  0.44071890  1
  Se  Se172  1  0.25309447  0.40505678  0.95239668  1
  Se  Se173  1  0.25712609  0.73987928  0.44237760  1
  Se  Se174  1  0.25408584  0.74612040  0.93439327  1
  Se  Se175  1  0.59698170  0.07127672  0.44583385  1
  Se  Se176  1  0.58474907  0.08435983  0.94581851  1
  Se  Se177  1  0.58130329  0.41016026  0.44883774  1
  Se  Se178  1  0.58970555  0.41540102  0.93647223  1
  Se  Se179  1  0.56562687  0.77754872  0.44665767  1
  Se  Se180  1  0.59562064  0.75409131  0.95394497  1
  Se  Se181  1  0.91927560  0.08665462  0.44659370  1
  Se  Se182  1  0.92143247  0.07335688  0.93733054  1
  Se  Se183  1  0.91439921  0.41566504  0.45007106  1
  Se  Se184  1  0.91401679  0.41458029  0.94685707  1
  Se  Se185  1  0.93829515  0.72704125  0.44793569  1
  Se  Se186  1  0.92732288  0.73724046  0.93972136  1
  Se  Se187  1  0.24928664  0.25614940  0.30186238  1
  Se  Se188  1  0.23678936  0.23540875  0.80764635  1
  Se  Se189  1  0.23109679  0.58460431  0.31247578  1
  Se  Se190  1  0.24697483  0.57558772  0.80262057  1
  Se  Se191  1  0.23777423  0.92656756  0.32649574  1
  Se  Se192  1  0.24072022  0.90669874  0.79939449  1
  Se  Se193  1  0.58155993  0.24149963  0.31280867  1
  Se  Se194  1  0.58408392  0.25189347  0.80361728  1
  Se  Se195  1  0.58718210  0.58451943  0.30961105  1
  Se  Se196  1  0.58235639  0.58492691  0.80577286  1
  Se  Se197  1  0.58748247  0.91993275  0.30597438  1
  Se  Se198  1  0.58845501  0.92151543  0.80437002  1
  Se  Se199  1  0.91859748  0.25406978  0.30171791  1
  Se  Se200  1  0.91478514  0.24951863  0.79794327  1
  Se  Se201  1  0.89986265  0.58437248  0.32465780  1
  Se  Se202  1  0.91730501  0.58172205  0.80768475  1
  Se  Se203  1  0.92000273  0.91768575  0.31273540  1
  Se  Se204  1  0.92142796  0.91861404  0.79032079  1
  Se  Se205  1  0.08678031  0.08327996  0.31282992  1
  Se  Se206  1  0.07574271  0.07127407  0.80130235  1
  Se  Se207  1  0.07116931  0.41852217  0.30451801  1
  Se  Se208  1  0.08110747  0.40739626  0.80454788  1
  Se  Se209  1  0.07294371  0.76764333  0.32113512  1
  Se  Se210  1  0.08898319  0.75698155  0.79978906  1
  Se  Se211  1  0.42457110  0.09023424  0.31929536  1
  Se  Se212  1  0.41810717  0.09521096  0.81537790  1
  Se  Se213  1  0.41277709  0.41934903  0.29829296  1
  Se  Se214  1  0.42445386  0.42727186  0.80418338  1
  Se  Se215  1  0.41930853  0.75483181  0.31525478  1
  Se  Se216  1  0.42546406  0.75579070  0.80508051  1
  Se  Se217  1  0.75250808  0.08159568  0.30376630  1
  Se  Se218  1  0.74943687  0.08316260  0.79648305  1
  Se  Se219  1  0.74948389  0.41537819  0.31867256  1
  Se  Se220  1  0.75380209  0.42261875  0.80119301  1
  Se  Se221  1  0.74860202  0.74598517  0.31324652  1
  Se  Se222  1  0.76445737  0.76368512  0.80436609  1
  Se  Se223  1  0.24663154  0.09023888  0.19569573  1
  Se  Se224  1  0.23648571  0.08150515  0.68309082  1
  Se  Se225  1  0.24423369  0.42038292  0.19801323  1
  Se  Se226  1  0.24786315  0.41378893  0.68707671  1
  Se  Se227  1  0.23710959  0.76581286  0.20439181  1
  Se  Se228  1  0.23938603  0.75371715  0.67840676  1
  Se  Se229  1  0.58652825  0.07828265  0.20060890  1
  Se  Se230  1  0.58355528  0.07545998  0.69757862  1
  Se  Se231  1  0.57729006  0.42242295  0.19187109  1
  Se  Se232  1  0.59429411  0.41822794  0.69281767  1
  Se  Se233  1  0.58554311  0.74369859  0.20187042  1
  Se  Se234  1  0.59272365  0.77024570  0.68382010  1
  Se  Se235  1  0.92472360  0.07817161  0.19795385  1
  Se  Se236  1  0.91445636  0.08248289  0.68935895  1
  Se  Se237  1  0.91142055  0.42119904  0.20472818  1
  Se  Se238  1  0.92376315  0.41551876  0.69298391  1
  Se  Se239  1  0.90809620  0.75931377  0.19520888  1
  Se  Se240  1  0.90569638  0.75564947  0.67645955  1
  Se  Se241  1  0.07791832  0.25159541  0.19978383  1
  Se  Se242  1  0.07753343  0.24811171  0.69461186  1
  Se  Se243  1  0.08356775  0.58775362  0.19289339  1
  Se  Se244  1  0.09180834  0.57160592  0.68554676  1
  Se  Se245  1  0.08122253  0.92541281  0.20624891  1
  Se  Se246  1  0.07180036  0.92291038  0.68175485  1
  Se  Se247  1  0.41885638  0.24636470  0.19868767  1
  Se  Se248  1  0.42725296  0.24415343  0.68996391  1
  Se  Se249  1  0.41998372  0.57923340  0.18883276  1
  Se  Se250  1  0.43531335  0.58465737  0.68036972  1
  Se  Se251  1  0.42142560  0.90705068  0.19843936  1
  Se  Se252  1  0.42016643  0.91271397  0.68982093  1
  Se  Se253  1  0.76138738  0.23860500  0.18947907  1
  Se  Se254  1  0.74544479  0.25563305  0.69586771  1
  Se  Se255  1  0.74609736  0.58229842  0.20522409  1
  Se  Se256  1  0.76609905  0.58270958  0.68313600  1
  Se  Se257  1  0.75259669  0.91495419  0.20446180  1
  Se  Se258  1  0.74504227  0.92064953  0.67922250  1
