# generated using pymatgen
data_In86Cu29Se144
_symmetry_space_group_name_H-M   'P 1'
_cell_length_a   17.52772679
_cell_length_b   17.52739369
_cell_length_c   23.38172884
_cell_angle_alpha   89.99587562
_cell_angle_beta   90.01239304
_cell_angle_gamma   89.99970493
_symmetry_Int_Tables_number   1
_chemical_formula_structural   In86Cu29Se144
_chemical_formula_sum   'In86 Cu29 Se144'
_cell_volume   7183.22623701
_cell_formula_units_Z   1
loop_
 _symmetry_equiv_pos_site_id
 _symmetry_equiv_pos_as_xyz
  1  'x, y, z'
loop_
 _atom_site_type_symbol
 _atom_site_label
 _atom_site_symmetry_multiplicity
 _atom_site_fract_x
 _atom_site_fract_y
 _atom_site_fract_z
 _atom_site_occupancy
  In  In0  1  -0.01419701  0.17874453  0.12079928  1
  In  In1  1  0.00545045  0.18178497  0.62643758  1
  In  In2  1  0.01918715  0.52680310  0.09515132  1
  In  In3  1  -0.00223461  0.48562675  0.62419041  1
  In  In4  1  -0.02373328  0.80151980  0.10262627  1
  In  In5  1  0.00699307  0.82119322  0.62634167  1
  In  In6  1  0.34682548  0.17424649  0.12945869  1
  In  In7  1  0.34980821  0.17071797  0.62302838  1
  In  In8  1  0.32881660  0.51128923  0.13264152  1
  In  In9  1  0.33464824  0.50642620  0.62516421  1
  In  In10  1  0.32466457  0.81997982  0.11989336  1
  In  In11  1  0.33529544  0.82990696  0.62049335  1
  In  In12  1  0.67486454  0.16017948  0.12807815  1
  In  In13  1  0.66532796  0.16631308  0.61985301  1
  In  In14  1  0.68367599  0.50821259  0.12142154  1
  In  In15  1  0.64669933  0.49680977  0.61586556  1
  In  In16  1  0.67103168  0.83345125  0.13145222  1
  In  In17  1  0.66519905  0.84023965  0.62175453  1
  In  In18  1  0.15510293  -0.01269357  0.37720963  1
  In  In19  1  0.16138976  -0.00350793  0.87448751  1
  In  In20  1  0.18733244  0.33647660  0.37767942  1
  In  In21  1  0.16873980  0.34783411  0.86795118  1
  In  In22  1  0.17135387  0.66160285  0.37341118  1
  In  In23  1  0.16982895  0.65588821  0.88543724  1
  In  In24  1  0.52274021  -0.02155732  0.39291622  1
  In  In25  1  0.50530006  -0.02041845  0.87272765  1
  In  In26  1  0.50127578  0.34852339  0.39174643  1
  In  In27  1  0.49419783  0.32955893  0.86245008  1
  In  In28  1  0.50005826  0.67380127  0.37009485  1
  In  In29  1  0.50316507  0.68325278  0.87373053  1
  In  In30  1  0.82332045  0.01579402  0.37687793  1
  In  In31  1  0.82221533  0.00602181  0.87802413  1
  In  In32  1  0.81444360  0.32408169  0.37810284  1
  In  In33  1  0.83278051  0.33120331  0.87060396  1
  In  In34  1  0.83503807  0.66870808  0.36163495  1
  In  In35  1  0.83475492  0.65214393  0.90259409  1
  In  In36  1  -0.01579746  0.15612444  0.37736791  1
  In  In37  1  -0.01774401  0.17252089  0.87745765  1
  In  In38  1  -0.00342450  0.51727008  0.37192102  1
  In  In39  1  0.00759437  0.48968757  0.89313385  1
  In  In40  1  0.01050748  0.82598941  0.37368713  1
  In  In41  1  0.00523842  0.81641304  0.89807034  1
  In  In42  1  0.33871950  0.18537287  0.37351889  1
  In  In43  1  0.32509168  0.17453980  0.87021456  1
  In  In44  1  0.33754819  0.49966045  0.37366974  1
  In  In45  1  0.32377497  0.49560645  0.86964342  1
  In  In46  1  0.35118813  0.80774427  0.37771208  1
  In  In47  1  0.34542120  0.81997752  0.88028147  1
  In  In48  1  0.67099694  0.16128470  0.39084850  1
  In  In49  1  0.67232750  0.17129397  0.86271689  1
  In  In50  1  0.64921633  0.50988270  0.38793099  1
  In  In51  1  0.68125345  0.49657567  0.87810033  1
  In  In52  1  0.64487976  0.82587433  0.35548317  1
  In  In53  1  0.65781516  0.82946304  0.87974295  1
  In  In54  1  0.17175084  -0.01925029  0.12781678  1
  In  In55  1  0.17940321  -0.00511980  0.62237823  1
  In  In56  1  0.16325150  0.36484735  0.11998223  1
  In  In57  1  0.15970720  0.35097125  0.62829668  1
  In  In58  1  0.16740370  0.66528550  0.12341647  1
  In  In59  1  0.18326871  0.67795826  0.61771735  1
  In  In60  1  0.52435643  -0.00912475  0.13741123  1
  In  In61  1  0.52652586  0.01834018  0.59808143  1
  In  In62  1  0.49536828  0.32522003  0.13220419  1
  In  In63  1  0.50169543  0.33397104  0.62679593  1
  In  In64  1  0.49547969  0.68168336  0.13911362  1
  In  In65  1  0.49504092  0.65041682  0.60883339  1
  In  In66  1  0.82009172  -0.01079714  0.11650645  1
  In  In67  1  0.80462161  0.00260555  0.62772249  1
  In  In68  1  0.85248285  0.34296307  0.10178267  1
  In  In69  1  0.84327923  0.32281585  0.63067342  1
  In  In70  1  0.83482155  0.66656901  0.13006378  1
  In  In71  1  0.83298473  0.67150366  0.62960840  1
  In  In72  1  0.33922131  -0.00597716  0.25643466  1
  In  In73  1  -0.00397296  -0.00668049  0.25062046  1
  In  In74  1  0.50445179  0.15999378  0.00575893  1
  In  In75  1  0.66366615  0.34209146  0.25273766  1
  In  In76  1  0.16547574  0.16222459  -0.00404492  1
  In  In77  1  0.16896267  0.16395650  0.50034743  1
  In  In78  1  0.82444357  0.83551049  0.49820560  1
  In  In79  1  0.34490953  0.00748039  0.74377255  1
  In  In80  1  0.00548037  0.65316407  0.76823207  1
  In  In81  1  0.83330072  0.49788499  0.49699321  1
  In  In82  1  0.66455500  0.66101597  0.75304076  1
  In  In83  1  0.50303025  0.50788613  0.00624288  1
  In  In84  1  -0.00698130  0.00452335  0.76216891  1
  In  In85  1  0.00304535  0.34342703  0.24244875  1
  Cu  Cu86  1  0.34299742  -0.01558339  0.00291436  1
  Cu  Cu87  1  0.16769429  0.18872396  0.74866873  1
  Cu  Cu88  1  0.33617716  0.34297324  0.50410891  1
  Cu  Cu89  1  0.33152409  0.66051796  0.00242643  1
  Cu  Cu90  1  0.67169053  0.32983218  -0.01097887  1
  Cu  Cu91  1  0.33422781  0.66377895  0.49461369  1
  Cu  Cu92  1  0.49375851  0.50255183  0.74509166  1
  Cu  Cu93  1  0.82757972  0.83218319  0.75925285  1
  Cu  Cu94  1  0.49659066  0.17355261  0.25900956  1
  Cu  Cu95  1  0.50126071  0.83558031  0.74491394  1
  Cu  Cu96  1  0.82902369  0.48622116  0.75157705  1
  Cu  Cu97  1  0.16517365  0.51014597  0.74842042  1
  Cu  Cu98  1  0.00209086  0.33385236  0.50089163  1
  Cu  Cu99  1  0.17117921  0.17276617  0.24985741  1
  Cu  Cu100  1  0.82768622  0.16424846  0.74952748  1
  Cu  Cu101  1  0.00915419  0.00012366  -0.00196425  1
  Cu  Cu102  1  0.83721915  0.50558911  0.24569623  1
  Cu  Cu103  1  0.17047309  0.50193433  0.24543289  1
  Cu  Cu104  1  0.17528553  0.83571321  0.74757336  1
  Cu  Cu105  1  0.32682077  -0.01047829  0.49698687  1
  Cu  Cu106  1  -0.01043689  -0.00850872  0.49980442  1
  Cu  Cu107  1  0.32389802  0.33929865  -0.00233503  1
  Cu  Cu108  1  0.67022840  -0.00442497  0.00348209  1
  Cu  Cu109  1  0.16501847  0.81884473  0.24886653  1
  Cu  Cu110  1  0.50774638  0.16595243  0.74010969  1
  Cu  Cu111  1  0.49808947  0.50206123  0.25906148  1
  Cu  Cu112  1  0.82944306  0.83803055  0.24276275  1
  Cu  Cu113  1  0.82239632  0.17140079  0.24815840  1
  Cu  Cu114  1  0.01300951  0.66673641  0.49966169  1
  Se  Se115  1  0.08092846  0.07677620  0.06643118  1
  Se  Se116  1  0.07458179  0.07309944  0.56009738  1
  Se  Se117  1  0.05920072  0.39822765  0.04920012  1
  Se  Se118  1  0.08532596  0.42259210  0.54768608  1
  Se  Se119  1  0.09955833  0.75883193  0.05378521  1
  Se  Se120  1  0.09154415  0.75606116  0.55066089  1
  Se  Se121  1  0.41514461  0.06813569  0.06660324  1
  Se  Se122  1  0.40648911  0.07744296  0.54913550  1
  Se  Se123  1  0.41020595  0.41030537  0.06063838  1
  Se  Se124  1  0.42173485  0.42324477  0.55842255  1
  Se  Se125  1  0.41769111  0.74269469  0.05465457  1
  Se  Se126  1  0.41641976  0.74855099  0.54953710  1
  Se  Se127  1  0.75184708  0.08866245  0.05003129  1
  Se  Se128  1  0.74214733  0.07898780  0.54869152  1
  Se  Se129  1  0.74527873  0.41592697  0.04789091  1
  Se  Se130  1  0.75228137  0.41064679  0.56428761  1
  Se  Se131  1  0.77345477  0.77206900  0.06572283  1
  Se  Se132  1  0.74096595  0.73679603  0.55720725  1
  Se  Se133  1  0.25192035  0.25351998  0.06104382  1
  Se  Se134  1  0.25246420  0.25927839  0.56142528  1
  Se  Se135  1  0.24692092  0.57472411  0.05340713  1
  Se  Se136  1  0.25057399  0.58174714  0.55053963  1
  Se  Se137  1  0.24775697  0.90868390  0.05032778  1
  Se  Se138  1  0.24457307  0.90598198  0.54994623  1
  Se  Se139  1  0.59402608  0.26001443  0.05949682  1
  Se  Se140  1  0.56061059  0.23341747  0.55842714  1
  Se  Se141  1  0.58761185  0.59925361  0.06678606  1
  Se  Se142  1  0.58876932  0.58354353  0.54003837  1
  Se  Se143  1  0.58669866  0.91289153  0.05660323  1
  Se  Se144  1  0.58165703  0.90263443  0.54405687  1
  Se  Se145  1  0.91264980  0.23881786  0.03844621  1
  Se  Se146  1  0.91929260  0.24803273  0.55141296  1
  Se  Se147  1  0.89050605  0.56948869  0.05564551  1
  Se  Se148  1  0.92519756  0.59223451  0.55982431  1
  Se  Se149  1  0.92149075  0.92256737  0.05343514  1
  Se  Se150  1  0.91502989  0.91654635  0.56863848  1
  Se  Se151  1  0.07911554  0.25201986  0.43595163  1
  Se  Se152  1  0.08177423  0.25612956  0.93605749  1
  Se  Se153  1  0.08790312  0.57846819  0.44512016  1
  Se  Se154  1  0.06545979  0.59975212  0.95130349  1
  Se  Se155  1  0.07833125  0.90929079  0.45120769  1
  Se  Se156  1  0.09467970  0.91394540  0.95042572  1
  Se  Se157  1  0.41529485  0.25458578  0.45212498  1
  Se  Se158  1  0.41062030  0.25396138  0.94568926  1
  Se  Se159  1  0.42164208  0.58431799  0.44031907  1
  Se  Se160  1  0.41194182  0.58648716  0.93754346  1
  Se  Se161  1  0.41286054  0.90775114  0.44530137  1
  Se  Se162  1  0.42847283  0.90489392  0.94879769  1
  Se  Se163  1  0.75828869  0.24261442  0.45734139  1
  Se  Se164  1  0.75226368  0.24123404  0.93942714  1
  Se  Se165  1  0.75087304  0.59885162  0.44081060  1
  Se  Se166  1  0.71404035  0.59877510  0.95209163  1
  Se  Se167  1  0.73809915  0.91713843  0.43249691  1
  Se  Se168  1  0.74850580  0.91274141  0.94431589  1
  Se  Se169  1  0.25434719  0.07579305  0.43450311  1
  Se  Se170  1  0.26642193  0.07042351  0.94204770  1
  Se  Se171  1  0.25236947  0.42506617  0.45026876  1
  Se  Se172  1  0.24157392  0.42493207  0.94676002  1
  Se  Se173  1  0.24739991  0.74898386  0.44415089  1
  Se  Se174  1  0.25196424  0.74869011  0.94810985  1
  Se  Se175  1  0.56152115  0.09957826  0.44854337  1
  Se  Se176  1  0.59035421  0.07482632  0.93884780  1
  Se  Se177  1  0.60954641  0.40217286  0.45494929  1
  Se  Se178  1  0.57768894  0.40808566  0.93953385  1
  Se  Se179  1  0.58037002  0.75823157  0.43980664  1
  Se  Se180  1  0.58350334  0.74444569  0.95201494  1
  Se  Se181  1  0.90791924  0.08305619  0.45417349  1
  Se  Se182  1  0.91791715  0.07751252  0.94592005  1
  Se  Se183  1  0.92355857  0.40811548  0.43381329  1
  Se  Se184  1  0.88909871  0.43172507  0.94077319  1
  Se  Se185  1  0.92071346  0.74143729  0.44341214  1
  Se  Se186  1  0.91081885  0.74846839  0.96446429  1
  Se  Se187  1  0.25511149  0.25767951  0.29908097  1
  Se  Se188  1  0.25667696  0.26604245  0.80072589  1
  Se  Se189  1  0.25439216  0.58100896  0.30283606  1
  Se  Se190  1  0.24840302  0.59121624  0.80411959  1
  Se  Se191  1  0.24056531  0.90344746  0.30936912  1
  Se  Se192  1  0.25653397  0.91734713  0.80790589  1
  Se  Se193  1  0.58197373  0.25205202  0.31810870  1
  Se  Se194  1  0.58542363  0.25251947  0.79688784  1
  Se  Se195  1  0.58830520  0.58498950  0.30521116  1
  Se  Se196  1  0.57308119  0.57148194  0.81452004  1
  Se  Se197  1  0.57938953  0.93389594  0.29804562  1
  Se  Se198  1  0.59125221  0.91057032  0.79900076  1
  Se  Se199  1  0.91105811  0.24998904  0.30356898  1
  Se  Se200  1  0.91477025  0.24956460  0.79798353  1
  Se  Se201  1  0.92445996  0.59090161  0.29382924  1
  Se  Se202  1  0.89856005  0.57212365  0.81651383  1
  Se  Se203  1  0.90478475  0.90931948  0.31507854  1
  Se  Se204  1  0.91648536  0.90158876  0.82140575  1
  Se  Se205  1  0.08887325  0.09178362  0.30694058  1
  Se  Se206  1  0.09341940  0.10142344  0.81002153  1
  Se  Se207  1  0.09292343  0.42359386  0.31085631  1
  Se  Se208  1  0.07741489  0.43119588  0.80484187  1
  Se  Se209  1  0.08011568  0.73740559  0.30264791  1
  Se  Se210  1  0.09355883  0.75988114  0.81291545  1
  Se  Se211  1  0.42500955  0.08429962  0.31927054  1
  Se  Se212  1  0.43197399  0.09305866  0.81213022  1
  Se  Se213  1  0.42202201  0.41016991  0.30890823  1
  Se  Se214  1  0.41044796  0.41842103  0.80018561  1
  Se  Se215  1  0.41707759  0.74528948  0.29329318  1
  Se  Se216  1  0.41859774  0.75152301  0.79794631  1
  Se  Se217  1  0.73997530  0.09296483  0.30518560  1
  Se  Se218  1  0.74527480  0.07409210  0.79717671  1
  Se  Se219  1  0.75604701  0.43206554  0.31215018  1
  Se  Se220  1  0.73908994  0.40708395  0.80164248  1
  Se  Se221  1  0.74872408  0.75256571  0.29730317  1
  Se  Se222  1  0.75838835  0.74050433  0.81857300  1
  Se  Se223  1  0.24829977  0.08537844  0.19159209  1
  Se  Se224  1  0.24275675  0.09869915  0.69123511  1
  Se  Se225  1  0.25532285  0.41313004  0.19779734  1
  Se  Se226  1  0.24984337  0.42525107  0.69642563  1
  Se  Se227  1  0.25387625  0.73984343  0.19684702  1
  Se  Se228  1  0.25801348  0.75101224  0.69649936  1
  Se  Se229  1  0.58272687  0.09687932  0.20148475  1
  Se  Se230  1  0.58631864  0.07528795  0.69013618  1
  Se  Se231  1  0.57551508  0.43093786  0.18791846  1
  Se  Se232  1  0.58245509  0.41994663  0.69693103  1
  Se  Se233  1  0.58988209  0.75436625  0.20385646  1
  Se  Se234  1  0.57845022  0.74678772  0.68669948  1
  Se  Se235  1  0.90684585  0.08820033  0.19162152  1
  Se  Se236  1  0.91240131  0.08579106  0.68817378  1
  Se  Se237  1  0.91560328  0.43094949  0.18104085  1
  Se  Se238  1  0.92123959  0.41143399  0.70016268  1
  Se  Se239  1  0.92026153  0.75226811  0.19840238  1
  Se  Se240  1  0.91619988  0.75170174  0.70406229  1
  Se  Se241  1  0.09242683  0.24788833  0.18460703  1
  Se  Se242  1  0.07795591  0.26649044  0.69852483  1
  Se  Se243  1  0.08134930  0.57726109  0.18839582  1
  Se  Se244  1  0.08497129  0.58667509  0.68489213  1
  Se  Se245  1  0.08035335  0.89797289  0.19109417  1
  Se  Se246  1  0.08735238  0.91758002  0.69619841  1
  Se  Se247  1  0.41224348  0.25657410  0.20770963  1
  Se  Se248  1  0.41651798  0.25302959  0.69957126  1
  Se  Se249  1  0.41762944  0.58491824  0.20119416  1
  Se  Se250  1  0.41741957  0.59296974  0.69358261  1
  Se  Se251  1  0.41820434  0.90725288  0.18804605  1
  Se  Se252  1  0.43103000  0.92056307  0.68012389  1
  Se  Se253  1  0.75821394  0.26375780  0.18583981  1
  Se  Se254  1  0.74669287  0.24691404  0.69303020  1
  Se  Se255  1  0.74626053  0.58932140  0.20121694  1
  Se  Se256  1  0.75417283  0.57055831  0.68970768  1
  Se  Se257  1  0.74524164  0.93029012  0.20063778  1
  Se  Se258  1  0.74523240  0.90904133  0.70117010  1
