# generated using pymatgen
data_In86Cu29Se144
_symmetry_space_group_name_H-M   'P 1'
_cell_length_a   17.58662636
_cell_length_b   17.58109644
_cell_length_c   23.43628087
_cell_angle_alpha   89.98848203
_cell_angle_beta   89.98676616
_cell_angle_gamma   89.99298635
_symmetry_Int_Tables_number   1
_chemical_formula_structural   In86Cu29Se144
_chemical_formula_sum   'In86 Cu29 Se144'
_cell_volume   7246.31423786
_cell_formula_units_Z   1
loop_
 _symmetry_equiv_pos_site_id
 _symmetry_equiv_pos_as_xyz
  1  'x, y, z'
loop_
 _atom_site_type_symbol
 _atom_site_label
 _atom_site_symmetry_multiplicity
 _atom_site_fract_x
 _atom_site_fract_y
 _atom_site_fract_z
 _atom_site_occupancy
  In  In0  1  -0.01033471  0.17224369  0.14220726  1
  In  In1  1  -0.00180740  0.15991468  0.61167733  1
  In  In2  1  0.00312076  0.48791034  0.12419666  1
  In  In3  1  0.00333595  0.49582878  0.62379424  1
  In  In4  1  0.01303079  0.83470102  0.12762176  1
  In  In5  1  0.01742312  0.83849337  0.62255130  1
  In  In6  1  0.32146463  0.15900830  0.13107668  1
  In  In7  1  0.33753295  0.17455662  0.60657131  1
  In  In8  1  0.33967148  0.50488015  0.11585730  1
  In  In9  1  0.34346360  0.49911486  0.61491402  1
  In  In10  1  0.33751641  0.83863120  0.12249217  1
  In  In11  1  0.33493075  0.82561778  0.62583883  1
  In  In12  1  0.67558719  0.15490640  0.13800542  1
  In  In13  1  0.67236414  0.16879948  0.61754485  1
  In  In14  1  0.65922176  0.50779813  0.13417887  1
  In  In15  1  0.65178581  0.50960749  0.63262521  1
  In  In16  1  0.65098548  0.83776968  0.13472035  1
  In  In17  1  0.65381627  0.83159770  0.62313549  1
  In  In18  1  0.16810626  -0.00448461  0.38154577  1
  In  In19  1  0.15456404  0.00523406  0.87266528  1
  In  In20  1  0.15959897  0.33754986  0.38061886  1
  In  In21  1  0.17660515  0.34221266  0.87004512  1
  In  In22  1  0.17362553  0.66309491  0.38396330  1
  In  In23  1  0.18364543  0.65937503  0.87620383  1
  In  In24  1  0.50185567  -0.00200971  0.37379591  1
  In  In25  1  0.49046058  -0.00363007  0.87548312  1
  In  In26  1  0.50627342  0.32690854  0.39133647  1
  In  In27  1  0.52039387  0.33520486  0.86998098  1
  In  In28  1  0.50012481  0.66650471  0.38011309  1
  In  In29  1  0.49415819  0.66964066  0.87319115  1
  In  In30  1  0.84215616  0.02606695  0.35263231  1
  In  In31  1  0.84599349  -0.00152145  0.87800613  1
  In  In32  1  0.82031333  0.30564412  0.35429257  1
  In  In33  1  0.81574539  0.33681376  0.87880033  1
  In  In34  1  0.82644498  0.67761992  0.37335280  1
  In  In35  1  0.82567677  0.67720030  0.87109275  1
  In  In36  1  -0.00737161  0.16002595  0.37452536  1
  In  In37  1  0.00046852  0.15374617  0.87487772  1
  In  In38  1  0.01282460  0.49176288  0.37714094  1
  In  In39  1  0.01093315  0.50481174  0.87441306  1
  In  In40  1  0.00370974  0.86041166  0.37841666  1
  In  In41  1  0.00083719  0.85338938  0.87376443  1
  In  In42  1  0.34965799  0.16425494  0.39273334  1
  In  In43  1  0.33024575  0.16145645  0.86751058  1
  In  In44  1  0.33282162  0.49248521  0.39076138  1
  In  In45  1  0.32361408  0.51639663  0.87542183  1
  In  In46  1  0.33556173  0.83432418  0.37937221  1
  In  In47  1  0.34835443  0.82084021  0.88354514  1
  In  In48  1  0.66332140  0.16547852  0.37262402  1
  In  In49  1  0.66748166  0.18024969  0.87923684  1
  In  In50  1  0.66294403  0.48943322  0.37150042  1
  In  In51  1  0.65352030  0.49480209  0.87273042  1
  In  In52  1  0.65463228  0.83605222  0.36606618  1
  In  In53  1  0.66320114  0.82221583  0.87346263  1
  In  In54  1  0.17373439  -0.00824182  0.13865241  1
  In  In55  1  0.16109878  -0.00491167  0.61615553  1
  In  In56  1  0.16088577  0.33106875  0.12418674  1
  In  In57  1  0.17698469  0.34133544  0.60112265  1
  In  In58  1  0.17413739  0.67049314  0.11705786  1
  In  In59  1  0.18187154  0.66983908  0.62530484  1
  In  In60  1  0.50278728  -0.01433854  0.13756036  1
  In  In61  1  0.49858907  -0.00526282  0.61298561  1
  In  In62  1  0.50226457  0.34701927  0.12604322  1
  In  In63  1  0.50612974  0.33696142  0.61821869  1
  In  In64  1  0.50598517  0.67225071  0.11784065  1
  In  In65  1  0.50086338  0.66697084  0.62565406  1
  In  In66  1  0.82525635  0.01187737  0.13831860  1
  In  In67  1  0.83822518  0.01704387  0.61735512  1
  In  In68  1  0.84085076  0.31824805  0.13905909  1
  In  In69  1  0.83289634  0.31655840  0.62309090  1
  In  In70  1  0.82348120  0.65593830  0.12578580  1
  In  In71  1  0.82183201  0.66007850  0.62975669  1
  In  In72  1  -0.00171770  0.67239323  0.75043185  1
  In  In73  1  0.83373063  0.83481949  0.00008835  1
  In  In74  1  -0.00420513  0.66777951  0.24869200  1
  In  In75  1  0.83609106  0.49485523  0.50208474  1
  In  In76  1  0.16076136  0.16601635  0.00525506  1
  In  In77  1  0.66567774  -0.00010740  0.74642508  1
  In  In78  1  0.33899473  0.67055044  0.25869800  1
  In  In79  1  0.33816354  0.33934884  0.73407498  1
  In  In80  1  0.83396710  0.84491597  0.49119445  1
  In  In81  1  -0.00220206  0.32811818  0.74710719  1
  In  In82  1  0.33424452  -0.00535034  0.74328896  1
  In  In83  1  0.33459597  0.32675300  0.25900038  1
  In  In84  1  0.49805958  0.16783333  -0.00106871  1
  In  In85  1  0.83360620  0.49466344  0.00509264  1
  Cu  Cu86  1  -0.00915778  0.32731438  0.49428577  1
  Cu  Cu87  1  0.65973280  0.66769903  0.50013781  1
  Cu  Cu88  1  0.33106653  -0.00755120  0.00534190  1
  Cu  Cu89  1  0.83323524  0.49718522  0.24949088  1
  Cu  Cu90  1  0.33957788  0.66850086  0.50272273  1
  Cu  Cu91  1  0.33765923  -0.00547567  0.49960106  1
  Cu  Cu92  1  0.66497581  -0.00105593  0.01266796  1
  Cu  Cu93  1  0.16488370  0.15885074  0.25794518  1
  Cu  Cu94  1  0.83053747  0.16545298  0.74484788  1
  Cu  Cu95  1  0.16552286  0.83510110  0.25850095  1
  Cu  Cu96  1  0.65904585  0.66400812  -0.00064159  1
  Cu  Cu97  1  0.66922203  0.33299788  0.49623217  1
  Cu  Cu98  1  0.33904276  0.34270071  -0.00566197  1
  Cu  Cu99  1  0.16171132  0.16599402  0.73705098  1
  Cu  Cu100  1  0.66587308  0.00422011  0.49292591  1
  Cu  Cu101  1  0.16754045  0.49224460  0.25001906  1
  Cu  Cu102  1  0.00332337  0.33124917  0.00632336  1
  Cu  Cu103  1  0.49875801  0.16798163  0.25865718  1
  Cu  Cu104  1  0.49421461  0.50193811  0.75015357  1
  Cu  Cu105  1  0.00033604  0.00336950  0.00395448  1
  Cu  Cu106  1  0.33202780  0.66561938  -0.00204556  1
  Cu  Cu107  1  0.01288884  0.66882208  -0.00240076  1
  Cu  Cu108  1  0.50497956  0.50155648  0.25477355  1
  Cu  Cu109  1  0.16949748  0.83872775  0.74797746  1
  Cu  Cu110  1  0.67007949  0.33063172  0.00420670  1
  Cu  Cu111  1  0.81985130  0.49596099  0.75263352  1
  Cu  Cu112  1  0.83218298  0.84089870  0.75094294  1
  Cu  Cu113  1  0.82161286  0.83492503  0.25131833  1
  Cu  Cu114  1  0.01086630  0.67178811  0.50084845  1
  Se  Se115  1  0.07843986  0.07817226  0.07003608  1
  Se  Se116  1  0.09446593  0.08983720  0.54812418  1
  Se  Se117  1  0.09020173  0.41811885  0.05111126  1
  Se  Se118  1  0.07027779  0.41600382  0.54693137  1
  Se  Se119  1  0.08799504  0.75599752  0.05292705  1
  Se  Se120  1  0.09411967  0.74994342  0.55691875  1
  Se  Se121  1  0.41055525  0.07824860  0.06210944  1
  Se  Se122  1  0.42282410  0.08454890  0.54565978  1
  Se  Se123  1  0.42389388  0.42012988  0.04991915  1
  Se  Se124  1  0.40262123  0.39357452  0.55060755  1
  Se  Se125  1  0.41256344  0.74883685  0.05457330  1
  Se  Se126  1  0.42330583  0.75285155  0.55468609  1
  Se  Se127  1  0.75133452  0.08423244  0.05832354  1
  Se  Se128  1  0.75108582  0.08629601  0.54556289  1
  Se  Se129  1  0.74691734  0.40922345  0.06927647  1
  Se  Se130  1  0.74181853  0.41281902  0.56423002  1
  Se  Se131  1  0.74142755  0.74488443  0.05832432  1
  Se  Se132  1  0.74967531  0.74692472  0.55354303  1
  Se  Se133  1  0.26246162  0.25844014  0.05527539  1
  Se  Se134  1  0.22638231  0.22633408  0.54590375  1
  Se  Se135  1  0.24821836  0.58003043  0.04978375  1
  Se  Se136  1  0.25295954  0.58346618  0.55259749  1
  Se  Se137  1  0.24182075  0.91521240  0.05815872  1
  Se  Se138  1  0.25666104  0.91325760  0.55765187  1
  Se  Se139  1  0.58811872  0.25031141  0.06427338  1
  Se  Se140  1  0.58530088  0.24937914  0.55017222  1
  Se  Se141  1  0.58241895  0.57592848  0.05410686  1
  Se  Se142  1  0.57956697  0.58128884  0.55308667  1
  Se  Se143  1  0.57723603  0.91429018  0.05727593  1
  Se  Se144  1  0.58846750  0.91561087  0.54658056  1
  Se  Se145  1  0.92213421  0.24934722  0.06126703  1
  Se  Se146  1  0.90859830  0.24349728  0.54725364  1
  Se  Se147  1  0.92857358  0.59227441  0.05761427  1
  Se  Se148  1  0.92364314  0.59620071  0.55886226  1
  Se  Se149  1  0.91909450  0.92257941  0.06443192  1
  Se  Se150  1  0.92711426  0.92413025  0.55609943  1
  Se  Se151  1  0.07679885  0.24617513  0.44251696  1
  Se  Se152  1  0.08033293  0.25764509  0.93693721  1
  Se  Se153  1  0.08426400  0.58042170  0.44761763  1
  Se  Se154  1  0.09164609  0.58234375  0.94446408  1
  Se  Se155  1  0.09739015  0.90568251  0.45348040  1
  Se  Se156  1  0.08429847  0.92284853  0.94910437  1
  Se  Se157  1  0.39577353  0.27866096  0.45461123  1
  Se  Se158  1  0.40951523  0.25572368  0.93384192  1
  Se  Se159  1  0.42023555  0.58217126  0.44950820  1
  Se  Se160  1  0.41741225  0.58346147  0.94467144  1
  Se  Se161  1  0.42385955  0.91379905  0.44630991  1
  Se  Se162  1  0.41963273  0.91653689  0.95088740  1
  Se  Se163  1  0.74974876  0.24888321  0.44165630  1
  Se  Se164  1  0.75517805  0.24680676  0.95396818  1
  Se  Se165  1  0.74656435  0.58870567  0.44362594  1
  Se  Se166  1  0.74706901  0.58734399  0.94209285  1
  Se  Se167  1  0.74550111  0.92900368  0.42834948  1
  Se  Se168  1  0.74024662  0.92419534  0.94168896  1
  Se  Se169  1  0.25426001  0.07932056  0.44881455  1
  Se  Se170  1  0.25560459  0.07777854  0.94470627  1
  Se  Se171  1  0.22868516  0.42931801  0.45003701  1
  Se  Se172  1  0.24947715  0.42182473  0.94374763  1
  Se  Se173  1  0.25475825  0.75008599  0.44859843  1
  Se  Se174  1  0.24811074  0.75305736  0.94767869  1
  Se  Se175  1  0.57831318  0.08835447  0.44354964  1
  Se  Se176  1  0.59064653  0.07461602  0.94232659  1
  Se  Se177  1  0.58541844  0.42415867  0.45194744  1
  Se  Se178  1  0.58610149  0.41272996  0.95045642  1
  Se  Se179  1  0.58496214  0.75531260  0.44428235  1
  Se  Se180  1  0.57931803  0.74980525  0.94560845  1
  Se  Se181  1  0.91288844  0.07189006  0.44156479  1
  Se  Se182  1  0.91659172  0.08579956  0.95091584  1
  Se  Se183  1  0.91052883  0.40629662  0.43227241  1
  Se  Se184  1  0.92579211  0.40955380  0.94040412  1
  Se  Se185  1  0.92886925  0.74647257  0.43891225  1
  Se  Se186  1  0.92745066  0.74504710  0.93883601  1
  Se  Se187  1  0.24527583  0.23888001  0.31893659  1
  Se  Se188  1  0.24304345  0.24453121  0.79750598  1
  Se  Se189  1  0.24749662  0.57104181  0.30991460  1
  Se  Se190  1  0.24732852  0.58281321  0.79620114  1
  Se  Se191  1  0.25257376  0.91519535  0.30993160  1
  Se  Se192  1  0.24798677  0.91524111  0.81395550  1
  Se  Se193  1  0.57673420  0.25741937  0.31007349  1
  Se  Se194  1  0.58182104  0.23877028  0.80283933  1
  Se  Se195  1  0.58414366  0.58546440  0.31029933  1
  Se  Se196  1  0.57875045  0.58388511  0.80539405  1
  Se  Se197  1  0.58827955  0.93168614  0.29851882  1
  Se  Se198  1  0.57625520  0.91074274  0.80722043  1
  Se  Se199  1  0.93171810  0.24991334  0.29809325  1
  Se  Se200  1  0.90631981  0.24467494  0.81176346  1
  Se  Se201  1  0.91138384  0.57636634  0.31300097  1
  Se  Se202  1  0.90607614  0.57512550  0.80931357  1
  Se  Se203  1  0.91166568  0.91283840  0.30205521  1
  Se  Se204  1  0.91864068  0.92471899  0.79882867  1
  Se  Se205  1  0.08352926  0.07449009  0.31068106  1
  Se  Se206  1  0.08245431  0.08705952  0.79744747  1
  Se  Se207  1  0.08240753  0.41024547  0.30076735  1
  Se  Se208  1  0.09046730  0.42438178  0.79927602  1
  Se  Se209  1  0.08494537  0.75022969  0.31489067  1
  Se  Se210  1  0.08867647  0.76007448  0.81187312  1
  Se  Se211  1  0.41314456  0.08765621  0.31121743  1
  Se  Se212  1  0.42661075  0.09051315  0.80098590  1
  Se  Se213  1  0.42256132  0.42250151  0.31465773  1
  Se  Se214  1  0.41729553  0.41839319  0.81103474  1
  Se  Se215  1  0.43288639  0.76422859  0.30727902  1
  Se  Se216  1  0.41197077  0.74938337  0.80249263  1
  Se  Se217  1  0.74767193  0.10340023  0.29340635  1
  Se  Se218  1  0.75582761  0.08612105  0.81092808  1
  Se  Se219  1  0.74823297  0.41399235  0.30107974  1
  Se  Se220  1  0.73801490  0.41108963  0.80443756  1
  Se  Se221  1  0.74115189  0.74743137  0.30175689  1
  Se  Se222  1  0.74780223  0.75379099  0.79766340  1
  Se  Se223  1  0.25303769  0.07854661  0.20695642  1
  Se  Se224  1  0.25139880  0.09003542  0.68282601  1
  Se  Se225  1  0.25434550  0.41898517  0.19004080  1
  Se  Se226  1  0.23890652  0.42547374  0.68274220  1
  Se  Se227  1  0.24253815  0.75273617  0.19678059  1
  Se  Se228  1  0.25326560  0.75152075  0.70100884  1
  Se  Se229  1  0.57547956  0.08393007  0.19970458  1
  Se  Se230  1  0.57814252  0.08514451  0.68322618  1
  Se  Se231  1  0.58504032  0.41457714  0.20188253  1
  Se  Se232  1  0.57615616  0.41496688  0.69710509  1
  Se  Se233  1  0.58735635  0.73392821  0.19591819  1
  Se  Se234  1  0.59183832  0.74122376  0.69406287  1
  Se  Se235  1  0.92596966  0.07067796  0.20457047  1
  Se  Se236  1  0.91996221  0.08954427  0.69228229  1
  Se  Se237  1  0.92087266  0.41730718  0.19768106  1
  Se  Se238  1  0.90324747  0.42301418  0.69081900  1
  Se  Se239  1  0.90377647  0.75808957  0.18810208  1
  Se  Se240  1  0.91003224  0.76112679  0.68627522  1
  Se  Se241  1  0.09370408  0.24722353  0.19881578  1
  Se  Se242  1  0.08757695  0.25251012  0.67866418  1
  Se  Se243  1  0.09285405  0.57960162  0.19084414  1
  Se  Se244  1  0.08589007  0.58228473  0.69091726  1
  Se  Se245  1  0.07981902  0.91583711  0.20482861  1
  Se  Se246  1  0.08625031  0.92322396  0.69738227  1
  Se  Se247  1  0.42280146  0.24350995  0.19016298  1
  Se  Se248  1  0.42521190  0.23882102  0.68582235  1
  Se  Se249  1  0.42135532  0.57754140  0.19398956  1
  Se  Se250  1  0.41390762  0.58037692  0.69085719  1
  Se  Se251  1  0.39766327  0.92402727  0.19888764  1
  Se  Se252  1  0.43207679  0.90648407  0.69134206  1
  Se  Se253  1  0.74282193  0.25222615  0.20337976  1
  Se  Se254  1  0.74455443  0.24915730  0.69595433  1
  Se  Se255  1  0.74815959  0.58479661  0.20304022  1
  Se  Se256  1  0.74091703  0.58561646  0.70210927  1
  Se  Se257  1  0.74041480  0.92002793  0.19811598  1
  Se  Se258  1  0.75830202  0.91611386  0.68237450  1
