# generated using pymatgen
data_In86Cu29Se144
_symmetry_space_group_name_H-M   'P 1'
_cell_length_a   17.55463151
_cell_length_b   17.55362873
_cell_length_c   23.41535122
_cell_angle_alpha   90.02234336
_cell_angle_beta   90.03276913
_cell_angle_gamma   90.00931675
_symmetry_Int_Tables_number   1
_chemical_formula_structural   In86Cu29Se144
_chemical_formula_sum   'In86 Cu29 Se144'
_cell_volume   7215.37974049
_cell_formula_units_Z   1
loop_
 _symmetry_equiv_pos_site_id
 _symmetry_equiv_pos_as_xyz
  1  'x, y, z'
loop_
 _atom_site_type_symbol
 _atom_site_label
 _atom_site_symmetry_multiplicity
 _atom_site_fract_x
 _atom_site_fract_y
 _atom_site_fract_z
 _atom_site_occupancy
  In  In0  1  -0.01468503  0.17540080  0.12918853  1
  In  In1  1  0.01143956  0.17634576  0.61518856  1
  In  In2  1  0.00309389  0.49932868  0.13107738  1
  In  In3  1  -0.00476740  0.49787772  0.62215899  1
  In  In4  1  -0.00299488  0.83445666  0.13468438  1
  In  In5  1  -0.00123449  0.81977079  0.62538796  1
  In  In6  1  0.33732753  0.14691331  0.11603166  1
  In  In7  1  0.32142100  0.17605963  0.63956798  1
  In  In8  1  0.35022033  0.50827496  0.11746576  1
  In  In9  1  0.32262383  0.50659715  0.63715309  1
  In  In10  1  0.31859108  0.82776414  0.10822757  1
  In  In11  1  0.33248551  0.82915671  0.63962959  1
  In  In12  1  0.67142358  0.16540013  0.12401539  1
  In  In13  1  0.68325560  0.17657422  0.61879189  1
  In  In14  1  0.65584542  0.50592767  0.12200592  1
  In  In15  1  0.66758280  0.48412362  0.62805374  1
  In  In16  1  0.68564076  0.84367096  0.11151374  1
  In  In17  1  0.66641241  0.83952549  0.62701359  1
  In  In18  1  0.16282202  0.01012266  0.37890896  1
  In  In19  1  0.16563282  -0.01749984  0.88105035  1
  In  In20  1  0.15151317  0.34707705  0.38690043  1
  In  In21  1  0.16395182  0.33132954  0.86742781  1
  In  In22  1  0.14619720  0.64797982  0.35388405  1
  In  In23  1  0.16670295  0.66751147  0.87145064  1
  In  In24  1  0.49817580  -0.01125907  0.36424641  1
  In  In25  1  0.48598745  0.00832851  0.89278693  1
  In  In26  1  0.50329688  0.32234157  0.36972931  1
  In  In27  1  0.50340499  0.33379997  0.87549582  1
  In  In28  1  0.50240971  0.68098776  0.36783946  1
  In  In29  1  0.48778376  0.67798727  0.89357993  1
  In  In30  1  0.84883101  0.01179846  0.35635111  1
  In  In31  1  0.82735856  0.00717700  0.88896853  1
  In  In32  1  0.83378716  0.33426378  0.37220416  1
  In  In33  1  0.82939742  0.33643213  0.86955170  1
  In  In34  1  0.84163781  0.65277785  0.37671948  1
  In  In35  1  0.84472929  0.66623851  0.87755631  1
  In  In36  1  -0.00455247  0.17013708  0.37551851  1
  In  In37  1  -0.01120782  0.17324330  0.88188586  1
  In  In38  1  0.00442449  0.49522862  0.37354195  1
  In  In39  1  -0.01365992  0.50349536  0.86108799  1
  In  In40  1  -0.00810244  0.82408939  0.34756602  1
  In  In41  1  0.00885937  0.82752940  0.88972596  1
  In  In42  1  0.32122251  0.15653846  0.37574047  1
  In  In43  1  0.34303063  0.17406174  0.86826167  1
  In  In44  1  0.31792104  0.49789143  0.37900054  1
  In  In45  1  0.33480281  0.50500496  0.86875035  1
  In  In46  1  0.34082423  0.82724870  0.36626420  1
  In  In47  1  0.32938072  0.83244021  0.88060534  1
  In  In48  1  0.67923760  0.18321030  0.35938546  1
  In  In49  1  0.66392212  0.17586241  0.88056824  1
  In  In50  1  0.68906180  0.50469545  0.37485919  1
  In  In51  1  0.67295737  0.48390839  0.87268859  1
  In  In52  1  0.66258309  0.84026443  0.36036121  1
  In  In53  1  0.65747090  0.83702313  0.89739401  1
  In  In54  1  0.16299601  -0.02938495  0.12665643  1
  In  In55  1  0.16274531  0.01175411  0.62798585  1
  In  In56  1  0.15497774  0.32756252  0.12494012  1
  In  In57  1  0.15680798  0.33367277  0.62913820  1
  In  In58  1  0.14988877  0.69438954  0.14588832  1
  In  In59  1  0.16795586  0.66140799  0.62601467  1
  In  In60  1  0.50463184  0.01187298  0.11058159  1
  In  In61  1  0.49538234  -0.01264331  0.63199020  1
  In  In62  1  0.51359546  0.34052042  0.11701422  1
  In  In63  1  0.50302501  0.33132036  0.63741748  1
  In  In64  1  0.49980926  0.65742759  0.11324774  1
  In  In65  1  0.49290506  0.65503041  0.63240376  1
  In  In66  1  0.82982749  -0.00302377  0.13309500  1
  In  In67  1  0.82222772  0.01153589  0.62120456  1
  In  In68  1  0.84328681  0.31934285  0.12722409  1
  In  In69  1  0.83736432  0.33686761  0.62392026  1
  In  In70  1  0.83831149  0.69492964  0.12776969  1
  In  In71  1  0.85679197  0.65226210  0.63622988  1
  In  In72  1  0.16716660  0.50559021  0.00102814  1
  In  In73  1  0.16715432  0.83149382  0.49058679  1
  In  In74  1  0.50029691  0.49818674  0.50888864  1
  In  In75  1  0.82933497  0.50196506  -0.00200706  1
  In  In76  1  0.66047317  0.66610242  0.75921917  1
  In  In77  1  0.84122355  0.83392321  0.48713263  1
  In  In78  1  0.50162233  0.83538381  0.49256479  1
  In  In79  1  0.65798075  0.00759075  0.75826753  1
  In  In80  1  0.16699752  0.15923251  -0.00207902  1
  In  In81  1  0.33287239  -0.00229182  0.24233071  1
  In  In82  1  0.00448525  0.00271582  0.75421029  1
  In  In83  1  0.33114366  0.33508484  0.24612634  1
  In  In84  1  0.49274344  0.16548378  0.49588326  1
  In  In85  1  0.67136759  0.66588363  0.24309856  1
  Cu  Cu86  1  0.67814240  -0.00095368  0.00527396  1
  Cu  Cu87  1  0.50210260  0.83401269  0.23785093  1
  Cu  Cu88  1  0.33929540  0.32907126  -0.00382271  1
  Cu  Cu89  1  0.50024961  0.50196763  0.24291588  1
  Cu  Cu90  1  0.67261779  0.32517817  -0.00117887  1
  Cu  Cu91  1  0.68873889  0.66875022  0.50455092  1
  Cu  Cu92  1  0.50849635  0.16891594  0.23866133  1
  Cu  Cu93  1  -0.00635432  -0.00224724  0.49278643  1
  Cu  Cu94  1  0.83747407  0.83377437  0.75983430  1
  Cu  Cu95  1  0.50593000  0.16643142  0.75782199  1
  Cu  Cu96  1  0.16557237  0.82311665  0.75725676  1
  Cu  Cu97  1  0.31729512  0.32927062  0.51065422  1
  Cu  Cu98  1  0.83843548  0.17919272  0.74669895  1
  Cu  Cu99  1  -0.00541076  -0.00239184  0.01108104  1
  Cu  Cu100  1  0.33218216  0.66300241  0.50043759  1
  Cu  Cu101  1  0.82700089  0.16472763  0.24921864  1
  Cu  Cu102  1  0.00038231  0.67087013  0.00488126  1
  Cu  Cu103  1  0.83585444  0.49244514  0.24811568  1
  Cu  Cu104  1  0.15592705  0.17004066  0.25067389  1
  Cu  Cu105  1  0.49473044  0.50051250  0.75534557  1
  Cu  Cu106  1  0.67253621  0.01503124  0.48817628  1
  Cu  Cu107  1  0.32088607  0.00880017  0.50711017  1
  Cu  Cu108  1  0.48668737  0.83110038  0.76362678  1
  Cu  Cu109  1  0.17210762  0.50114236  0.25256002  1
  Cu  Cu110  1  -0.00477286  0.33076415  0.50070295  1
  Cu  Cu111  1  0.32195714  0.66728072  -0.00044412  1
  Cu  Cu112  1  0.17156953  0.16359885  0.75230475  1
  Cu  Cu113  1  0.67440036  0.33663274  0.49569848  1
  Cu  Cu114  1  0.16014958  0.49672273  0.74669896  1
  Se  Se115  1  0.08012414  0.07854980  0.06751909  1
  Se  Se116  1  0.07949111  0.07558391  0.55064119  1
  Se  Se117  1  0.07338722  0.41108401  0.05378990  1
  Se  Se118  1  0.08127108  0.41305335  0.55432717  1
  Se  Se119  1  0.08172581  0.75535215  0.05997617  1
  Se  Se120  1  0.07929789  0.74120294  0.55192789  1
  Se  Se121  1  0.42126961  0.08814843  0.03910635  1
  Se  Se122  1  0.41047319  0.07974935  0.56577025  1
  Se  Se123  1  0.42012869  0.41493707  0.05048485  1
  Se  Se124  1  0.40829691  0.40640077  0.56607418  1
  Se  Se125  1  0.41408862  0.74642616  0.04987663  1
  Se  Se126  1  0.41335307  0.74586724  0.55926045  1
  Se  Se127  1  0.75993223  0.08407754  0.05816960  1
  Se  Se128  1  0.75552646  0.09434776  0.54404650  1
  Se  Se129  1  0.74676052  0.40852445  0.06171614  1
  Se  Se130  1  0.75326800  0.41955074  0.55300108  1
  Se  Se131  1  0.73556511  0.72745708  0.05411411  1
  Se  Se132  1  0.76011034  0.75546503  0.56475921  1
  Se  Se133  1  0.25759581  0.25594321  0.05871417  1
  Se  Se134  1  0.23889966  0.24161355  0.56221718  1
  Se  Se135  1  0.24499529  0.59590614  0.06832560  1
  Se  Se136  1  0.25272135  0.58032307  0.55645394  1
  Se  Se137  1  0.26483818  0.94253175  0.05212436  1
  Se  Se138  1  0.25174219  0.91469148  0.56313473  1
  Se  Se139  1  0.58598465  0.24458813  0.05274702  1
  Se  Se140  1  0.58458489  0.25966274  0.55316798  1
  Se  Se141  1  0.57361251  0.56689880  0.04475292  1
  Se  Se142  1  0.59589840  0.59540190  0.56105056  1
  Se  Se143  1  0.58580059  0.91581846  0.05016827  1
  Se  Se144  1  0.59353788  0.93209261  0.55134837  1
  Se  Se145  1  0.91725612  0.24822675  0.04828992  1
  Se  Se146  1  0.91143054  0.24683566  0.55298062  1
  Se  Se147  1  0.91964852  0.58895406  0.06251703  1
  Se  Se148  1  0.91935695  0.58631077  0.55214075  1
  Se  Se149  1  0.91271969  0.91204047  0.06333531  1
  Se  Se150  1  0.92068939  0.92293051  0.56153100  1
  Se  Se151  1  0.08070281  0.24649889  0.44787817  1
  Se  Se152  1  0.08037384  0.26040958  0.94605252  1
  Se  Se153  1  0.09728476  0.57224383  0.43909324  1
  Se  Se154  1  0.06896314  0.58685787  0.94041511  1
  Se  Se155  1  0.06720629  0.91398309  0.43235280  1
  Se  Se156  1  0.08333684  0.91706239  0.95866689  1
  Se  Se157  1  0.39850849  0.26125753  0.44122361  1
  Se  Se158  1  0.42372763  0.24615808  0.94443372  1
  Se  Se159  1  0.42062364  0.59018785  0.43959485  1
  Se  Se160  1  0.40405174  0.57854785  0.94944752  1
  Se  Se161  1  0.40111499  0.92993902  0.44226116  1
  Se  Se162  1  0.43190653  0.89337924  0.94624291  1
  Se  Se163  1  0.75099264  0.24839877  0.44181393  1
  Se  Se164  1  0.76118606  0.24945457  0.94415888  1
  Se  Se165  1  0.76334954  0.57776487  0.45301749  1
  Se  Se166  1  0.74054583  0.59041965  0.93728462  1
  Se  Se167  1  0.74635818  0.92494386  0.43140531  1
  Se  Se168  1  0.76097806  0.90950122  0.95556187  1
  Se  Se169  1  0.23878451  0.09147348  0.45349166  1
  Se  Se170  1  0.25911054  0.07885022  0.93442527  1
  Se  Se171  1  0.24509676  0.42009657  0.45459298  1
  Se  Se172  1  0.25375052  0.40952837  0.94106467  1
  Se  Se173  1  0.25854154  0.73962540  0.43394266  1
  Se  Se174  1  0.23768011  0.75011386  0.94619799  1
  Se  Se175  1  0.58193124  0.08386675  0.42827877  1
  Se  Se176  1  0.59558579  0.07844954  0.94604686  1
  Se  Se177  1  0.58681179  0.41454904  0.43810967  1
  Se  Se178  1  0.59007945  0.41090330  0.94646070  1
  Se  Se179  1  0.60361891  0.74344224  0.44107413  1
  Se  Se180  1  0.58680781  0.74020989  0.96015649  1
  Se  Se181  1  0.91019809  0.08263207  0.44176462  1
  Se  Se182  1  0.91988870  0.08449186  0.95382548  1
  Se  Se183  1  0.91729733  0.41491823  0.44197770  1
  Se  Se184  1  0.92382801  0.41542797  0.94014125  1
  Se  Se185  1  0.93740495  0.74257452  0.43573512  1
  Se  Se186  1  0.91281062  0.75156502  0.95286382  1
  Se  Se187  1  0.24041858  0.24882840  0.31025086  1
  Se  Se188  1  0.25340377  0.25211467  0.80195804  1
  Se  Se189  1  0.26148646  0.58385174  0.30046630  1
  Se  Se190  1  0.24234155  0.57980554  0.80308662  1
  Se  Se191  1  0.24569895  0.91746707  0.31131726  1
  Se  Se192  1  0.24805832  0.91137850  0.80651833  1
  Se  Se193  1  0.58525426  0.25772690  0.29272835  1
  Se  Se194  1  0.59038674  0.25423869  0.80471729  1
  Se  Se195  1  0.58205386  0.57712946  0.30910278  1
  Se  Se196  1  0.57020875  0.57909690  0.82064836  1
  Se  Se197  1  0.58304647  0.92150167  0.28900005  1
  Se  Se198  1  0.57596305  0.91077652  0.81733566  1
  Se  Se199  1  0.91275342  0.24800422  0.30306979  1
  Se  Se200  1  0.92317399  0.25534546  0.80458690  1
  Se  Se201  1  0.91869094  0.57541123  0.30256459  1
  Se  Se202  1  0.90966336  0.59428825  0.79635175  1
  Se  Se203  1  0.90735375  0.91258710  0.28837904  1
  Se  Se204  1  0.91392567  0.91931163  0.81918782  1
  Se  Se205  1  0.07875276  0.08425330  0.30699319  1
  Se  Se206  1  0.09155095  0.09065546  0.81862131  1
  Se  Se207  1  0.08774295  0.41342351  0.30153805  1
  Se  Se208  1  0.07812621  0.41609833  0.80304451  1
  Se  Se209  1  0.10481974  0.76339096  0.29465594  1
  Se  Se210  1  0.07284720  0.74907564  0.80881191  1
  Se  Se211  1  0.42261642  0.09559566  0.30250646  1
  Se  Se212  1  0.42373788  0.07809970  0.80641035  1
  Se  Se213  1  0.42190256  0.42391437  0.30864286  1
  Se  Se214  1  0.41399927  0.41110208  0.80657020  1
  Se  Se215  1  0.42009569  0.74991650  0.29208893  1
  Se  Se216  1  0.40753118  0.74035199  0.81231451  1
  Se  Se217  1  0.74019407  0.07729924  0.29760175  1
  Se  Se218  1  0.76122362  0.09458017  0.80837955  1
  Se  Se219  1  0.74768483  0.41406884  0.30077283  1
  Se  Se220  1  0.76156202  0.42625050  0.79791603  1
  Se  Se221  1  0.76019617  0.74880325  0.30972137  1
  Se  Se222  1  0.74655452  0.76306889  0.81750613  1
  Se  Se223  1  0.23687158  0.09084922  0.18933255  1
  Se  Se224  1  0.25211328  0.07395730  0.70258442  1
  Se  Se225  1  0.24528712  0.42595224  0.18283179  1
  Se  Se226  1  0.24660892  0.41033112  0.69849018  1
  Se  Se227  1  0.26113666  0.76106588  0.19647875  1
  Se  Se228  1  0.24739326  0.74153181  0.70019303  1
  Se  Se229  1  0.58615363  0.07759400  0.18929078  1
  Se  Se230  1  0.58033035  0.09419252  0.68460257  1
  Se  Se231  1  0.58610177  0.41738474  0.19537555  1
  Se  Se232  1  0.58274404  0.41899416  0.70407499  1
  Se  Se233  1  0.58274306  0.75164728  0.18038477  1
  Se  Se234  1  0.57122081  0.76071262  0.69599297  1
  Se  Se235  1  0.91549265  0.08391227  0.19853649  1
  Se  Se236  1  0.91441746  0.08977304  0.69013378  1
  Se  Se237  1  0.92026199  0.41037876  0.19470296  1
  Se  Se238  1  0.92671153  0.40781236  0.69359368  1
  Se  Se239  1  0.93533744  0.73268216  0.20264436  1
  Se  Se240  1  0.91863171  0.75303603  0.70364640  1
  Se  Se241  1  0.07370568  0.25520151  0.19849855  1
  Se  Se242  1  0.08225209  0.24160752  0.69884511  1
  Se  Se243  1  0.08485752  0.58257745  0.19981568  1
  Se  Se244  1  0.07967246  0.58232376  0.69205586  1
  Se  Se245  1  0.07387195  0.92424066  0.20410513  1
  Se  Se246  1  0.08954381  0.90631432  0.69304133  1
  Se  Se247  1  0.41807838  0.24454354  0.18292975  1
  Se  Se248  1  0.41908774  0.24799906  0.70338631  1
  Se  Se249  1  0.41982831  0.58944682  0.19390806  1
  Se  Se250  1  0.40926005  0.58638375  0.70641259  1
  Se  Se251  1  0.42205725  0.91468150  0.17808583  1
  Se  Se252  1  0.41097808  0.91901107  0.70639155  1
  Se  Se253  1  0.74717400  0.25206936  0.19556791  1
  Se  Se254  1  0.74842937  0.25809833  0.69540893  1
  Se  Se255  1  0.76376915  0.57623761  0.18405562  1
  Se  Se256  1  0.74704736  0.58125244  0.69337386  1
  Se  Se257  1  0.75509559  0.90029352  0.19737954  1
  Se  Se258  1  0.75784017  0.91710442  0.69939027  1
