# generated using pymatgen
data_In86Cu29Se144
_symmetry_space_group_name_H-M   'P 1'
_cell_length_a   17.58698018
_cell_length_b   17.58092265
_cell_length_c   23.44667432
_cell_angle_alpha   90.00675062
_cell_angle_beta   89.97679132
_cell_angle_gamma   89.97564991
_symmetry_Int_Tables_number   1
_chemical_formula_structural   In86Cu29Se144
_chemical_formula_sum   'In86 Cu29 Se144'
_cell_volume   7249.60109371
_cell_formula_units_Z   1
loop_
 _symmetry_equiv_pos_site_id
 _symmetry_equiv_pos_as_xyz
  1  'x, y, z'
loop_
 _atom_site_type_symbol
 _atom_site_label
 _atom_site_symmetry_multiplicity
 _atom_site_fract_x
 _atom_site_fract_y
 _atom_site_fract_z
 _atom_site_occupancy
  In  In0  1  0.00752982  0.17529994  0.11223822  1
  In  In1  1  0.00590846  0.16644639  0.62938834  1
  In  In2  1  0.00926080  0.52456956  0.10801920  1
  In  In3  1  -0.00634051  0.50506192  0.63758435  1
  In  In4  1  -0.01696918  0.81287898  0.11675370  1
  In  In5  1  -0.01057348  0.81751088  0.60911593  1
  In  In6  1  0.33441670  0.22569066  0.12427477  1
  In  In7  1  0.32521221  0.15827657  0.61771398  1
  In  In8  1  0.33957287  0.49424917  0.12647432  1
  In  In9  1  0.33945280  0.48592522  0.62200472  1
  In  In10  1  0.31840605  0.82643278  0.13222771  1
  In  In11  1  0.33970583  0.83916113  0.61688465  1
  In  In12  1  0.67459925  0.17130396  0.12314144  1
  In  In13  1  0.66779667  0.18318401  0.62480390  1
  In  In14  1  0.66795834  0.50005119  0.11955676  1
  In  In15  1  0.66718711  0.50456902  0.63038595  1
  In  In16  1  0.67856495  0.81687651  0.13592633  1
  In  In17  1  0.65979506  0.82172248  0.61820527  1
  In  In18  1  0.16312211  0.00168845  0.38041115  1
  In  In19  1  0.17778506  0.00001810  0.86837046  1
  In  In20  1  0.16786273  0.32235968  0.37554211  1
  In  In21  1  0.15033674  0.35237929  0.89172018  1
  In  In22  1  0.17168785  0.66813437  0.37149087  1
  In  In23  1  0.15196423  0.66167164  0.88086619  1
  In  In24  1  0.49595703  0.00166199  0.38434460  1
  In  In25  1  0.49145686  0.01140692  0.86811275  1
  In  In26  1  0.50531134  0.33665583  0.37399669  1
  In  In27  1  0.50765865  0.33489220  0.87456610  1
  In  In28  1  0.50124264  0.66292290  0.37554612  1
  In  In29  1  0.50060247  0.65016163  0.87846148  1
  In  In30  1  0.82462313  -0.01003212  0.37873557  1
  In  In31  1  0.83122940  -0.00279496  0.88307596  1
  In  In32  1  0.83503364  0.34618289  0.36885656  1
  In  In33  1  0.82997083  0.33231950  0.87209736  1
  In  In34  1  0.84139954  0.68738563  0.35604310  1
  In  In35  1  0.83680032  0.66948680  0.88111212  1
  In  In36  1  0.01316622  0.17684382  0.37764888  1
  In  In37  1  -0.01955793  0.18345441  0.87914136  1
  In  In38  1  -0.00035166  0.51000150  0.37046442  1
  In  In39  1  -0.00277211  0.50329159  0.88173077  1
  In  In40  1  0.00140613  0.82466517  0.38780890  1
  In  In41  1  -0.00773208  0.81233860  0.87198887  1
  In  In42  1  0.33485837  0.17042034  0.37494109  1
  In  In43  1  0.33563386  0.16298067  0.87053508  1
  In  In44  1  0.34068068  0.51308311  0.36310872  1
  In  In45  1  0.33340597  0.49203689  0.89420326  1
  In  In46  1  0.33974206  0.82687415  0.38212727  1
  In  In47  1  0.32349415  0.84089916  0.87053864  1
  In  In48  1  0.65708082  0.16590312  0.37168466  1
  In  In49  1  0.66374674  0.17935600  0.86968795  1
  In  In50  1  0.66347020  0.49294439  0.36746713  1
  In  In51  1  0.66730024  0.50384783  0.87547551  1
  In  In52  1  0.67551725  0.81637491  0.38349645  1
  In  In53  1  0.68360105  0.83311875  0.87681308  1
  In  In54  1  0.16057358  0.00377198  0.12562173  1
  In  In55  1  0.17054380  0.00622069  0.62191065  1
  In  In56  1  0.19193470  0.35497998  0.09717595  1
  In  In57  1  0.17000328  0.32590424  0.62705627  1
  In  In58  1  0.17788429  0.64119559  0.14910538  1
  In  In59  1  0.15004900  0.66662398  0.62316598  1
  In  In60  1  0.49774482  0.01014152  0.12740691  1
  In  In61  1  0.48867429  -0.00854043  0.61754834  1
  In  In62  1  0.48596706  0.34793731  0.14110129  1
  In  In63  1  0.51325257  0.34204242  0.61381985  1
  In  In64  1  0.51194291  0.65169609  0.13512443  1
  In  In65  1  0.50967626  0.67269690  0.61600652  1
  In  In66  1  0.83764854  0.00208103  0.11582862  1
  In  In67  1  0.84326789  -0.00641033  0.62620686  1
  In  In68  1  0.82865403  0.33281533  0.11708267  1
  In  In69  1  0.82626617  0.33519817  0.64419651  1
  In  In70  1  0.83705642  0.66424015  0.12316877  1
  In  In71  1  0.83220851  0.66583040  0.63014668  1
  In  In72  1  0.00307567  0.34419540  0.24187950  1
  In  In73  1  0.83201565  0.50658844  0.50151366  1
  In  In74  1  0.83503185  0.16220197  0.50626580  1
  In  In75  1  0.15921335  0.83026082  -0.00056527  1
  In  In76  1  0.50458645  0.83282399  0.01119883  1
  In  In77  1  0.00296381  -0.00815466  0.25316860  1
  In  In78  1  0.17291804  0.50287179  0.49357760  1
  In  In79  1  0.33378733  0.66602864  0.75112322  1
  In  In80  1  0.66705192  -0.00446523  0.24802559  1
  In  In81  1  0.00236243  0.00248704  0.74342953  1
  In  In82  1  0.33351857  0.32829087  0.75291965  1
  In  In83  1  0.66242279  -0.00120557  0.75158128  1
  In  In84  1  0.50082772  0.17377376  -0.00296173  1
  In  In85  1  0.32917040  0.00381489  0.25559507  1
  Cu  Cu86  1  0.83388496  0.50215886  0.76036758  1
  Cu  Cu87  1  0.16007988  0.50468451  0.75898243  1
  Cu  Cu88  1  -0.01321279  0.32937866  -0.00328225  1
  Cu  Cu89  1  0.33159357  0.66080442  0.00806705  1
  Cu  Cu90  1  0.66551130  0.33883760  -0.00382065  1
  Cu  Cu91  1  0.66094246  -0.00761395  0.49991828  1
  Cu  Cu92  1  0.49573182  0.83137394  0.25859163  1
  Cu  Cu93  1  0.15730904  0.82200631  0.25388186  1
  Cu  Cu94  1  0.67105920  0.00012389  0.00324427  1
  Cu  Cu95  1  0.83741784  0.16858920  0.24171342  1
  Cu  Cu96  1  0.50169603  0.82875655  0.74165039  1
  Cu  Cu97  1  0.16015500  0.17404691  0.75039880  1
  Cu  Cu98  1  0.50367919  0.50143180  0.25058144  1
  Cu  Cu99  1  0.34277437  0.32782875  0.49774600  1
  Cu  Cu100  1  0.66693738  0.33336739  0.49509239  1
  Cu  Cu101  1  0.66667494  0.65870296  0.49788386  1
  Cu  Cu102  1  0.82292174  0.50292261  0.24192532  1
  Cu  Cu103  1  0.33709152  0.00704116  -0.00195033  1
  Cu  Cu104  1  0.00351615  -0.00004956  -0.00335830  1
  Cu  Cu105  1  0.49162585  0.16493511  0.74344485  1
  Cu  Cu106  1  0.00749423  0.33339774  0.50520100  1
  Cu  Cu107  1  0.83531903  0.82515605  0.74969640  1
  Cu  Cu108  1  0.50830617  0.50016995  0.74881171  1
  Cu  Cu109  1  0.17811900  0.17609244  0.24352348  1
  Cu  Cu110  1  0.00215329  -0.00096524  0.50371244  1
  Cu  Cu111  1  0.16465082  0.83435314  0.74811001  1
  Cu  Cu112  1  0.33395014  0.66488842  0.49411307  1
  Cu  Cu113  1  0.33035442  0.00369620  0.49788846  1
  Cu  Cu114  1  0.66885978  0.66603019  0.00502837  1
  Se  Se115  1  0.08753434  0.08116222  0.04968451  1
  Se  Se116  1  0.08139318  0.08763231  0.55536249  1
  Se  Se117  1  0.06799226  0.40911050  0.05450732  1
  Se  Se118  1  0.08222503  0.42100856  0.56323699  1
  Se  Se119  1  0.09321093  0.73613511  0.06738890  1
  Se  Se120  1  0.09411421  0.75552039  0.54772607  1
  Se  Se121  1  0.40819982  0.09004720  0.06111152  1
  Se  Se122  1  0.41752462  0.08566471  0.55016263  1
  Se  Se123  1  0.41455283  0.40517829  0.05669844  1
  Se  Se124  1  0.42226716  0.41861400  0.54690158  1
  Se  Se125  1  0.41007100  0.74318650  0.06715721  1
  Se  Se126  1  0.41626084  0.74743242  0.55127419  1
  Se  Se127  1  0.75300859  0.08909019  0.05207376  1
  Se  Se128  1  0.73976930  0.07157533  0.56327731  1
  Se  Se129  1  0.75116913  0.42067023  0.04849734  1
  Se  Se130  1  0.74874241  0.40742864  0.55984178  1
  Se  Se131  1  0.75206755  0.75247271  0.05449808  1
  Se  Se132  1  0.75013530  0.73958783  0.55519090  1
  Se  Se133  1  0.23200384  0.22919685  0.04825154  1
  Se  Se134  1  0.25165279  0.25436222  0.55259478  1
  Se  Se135  1  0.24855036  0.58075781  0.06309650  1
  Se  Se136  1  0.25936620  0.58880149  0.56267850  1
  Se  Se137  1  0.25695448  0.92243896  0.05612059  1
  Se  Se138  1  0.24906226  0.92001980  0.55306858  1
  Se  Se139  1  0.58633750  0.26191008  0.06021927  1
  Se  Se140  1  0.58503748  0.24647203  0.54681211  1
  Se  Se141  1  0.57970264  0.58284160  0.05200779  1
  Se  Se142  1  0.58614453  0.57554647  0.55395475  1
  Se  Se143  1  0.59606807  0.92478607  0.06896691  1
  Se  Se144  1  0.57773209  0.90912388  0.55324373  1
  Se  Se145  1  0.90642746  0.24244514  0.04966108  1
  Se  Se146  1  0.91820787  0.26168511  0.56412370  1
  Se  Se147  1  0.89759155  0.57321698  0.04807368  1
  Se  Se148  1  0.92825589  0.59086445  0.55876975  1
  Se  Se149  1  0.92315007  0.91647069  0.05167792  1
  Se  Se150  1  0.91182019  0.91591761  0.54885763  1
  Se  Se151  1  0.09084240  0.24901509  0.45377613  1
  Se  Se152  1  0.07771907  0.24690354  0.94777011  1
  Se  Se153  1  0.07475054  0.59324193  0.44456687  1
  Se  Se154  1  0.08855196  0.57381284  0.95232301  1
  Se  Se155  1  0.08473869  0.91681836  0.44876585  1
  Se  Se156  1  0.07792924  0.91959053  0.93187505  1
  Se  Se157  1  0.42527635  0.24711614  0.44202734  1
  Se  Se158  1  0.40610343  0.26077558  0.93873795  1
  Se  Se159  1  0.41681245  0.57860088  0.44433814  1
  Se  Se160  1  0.41918060  0.58204205  0.95454397  1
  Se  Se161  1  0.41555554  0.91542874  0.45032094  1
  Se  Se162  1  0.41596240  0.92055466  0.94329833  1
  Se  Se163  1  0.75521108  0.25516397  0.43967288  1
  Se  Se164  1  0.74525539  0.25030729  0.94381659  1
  Se  Se165  1  0.74855574  0.58775341  0.43263491  1
  Se  Se166  1  0.74879162  0.58501776  0.94593005  1
  Se  Se167  1  0.74912501  0.90995565  0.45104729  1
  Se  Se168  1  0.75345385  0.91232341  0.95328190  1
  Se  Se169  1  0.24962032  0.08765063  0.44254085  1
  Se  Se170  1  0.25230567  0.08309546  0.94096354  1
  Se  Se171  1  0.26222946  0.40982108  0.43753203  1
  Se  Se172  1  0.24841373  0.41284353  0.95970202  1
  Se  Se173  1  0.24684786  0.74860721  0.44610370  1
  Se  Se174  1  0.26050139  0.74297069  0.94249921  1
  Se  Se175  1  0.58738587  0.08377799  0.44706413  1
  Se  Se176  1  0.59023001  0.07485247  0.93979797  1
  Se  Se177  1  0.58562250  0.42150818  0.44543391  1
  Se  Se178  1  0.58035708  0.42182444  0.94436483  1
  Se  Se179  1  0.57977659  0.74529490  0.44880833  1
  Se  Se180  1  0.58805751  0.74697050  0.94312504  1
  Se  Se181  1  0.92545144  0.07917911  0.43844093  1
  Se  Se182  1  0.91628151  0.08305492  0.94622150  1
  Se  Se183  1  0.92838077  0.41191908  0.44415037  1
  Se  Se184  1  0.90805046  0.41598204  0.94310098  1
  Se  Se185  1  0.90252124  0.74592085  0.44509823  1
  Se  Se186  1  0.91888344  0.74975108  0.95222488  1
  Se  Se187  1  0.25706812  0.25437534  0.30311229  1
  Se  Se188  1  0.23570856  0.25286619  0.81539005  1
  Se  Se189  1  0.23633667  0.57468040  0.30192287  1
  Se  Se190  1  0.25092586  0.57562014  0.81663349  1
  Se  Se191  1  0.23888396  0.90790734  0.31031282  1
  Se  Se192  1  0.25277215  0.91934726  0.79375493  1
  Se  Se193  1  0.59974131  0.26521666  0.30600609  1
  Se  Se194  1  0.57220388  0.24757857  0.79923982  1
  Se  Se195  1  0.58572692  0.58660271  0.30349442  1
  Se  Se196  1  0.58618964  0.58736115  0.80270170  1
  Se  Se197  1  0.57894919  0.91229272  0.31475124  1
  Se  Se198  1  0.57421646  0.90566546  0.81218436  1
  Se  Se199  1  0.91752391  0.24521798  0.30577690  1
  Se  Se200  1  0.91119436  0.25314533  0.79969528  1
  Se  Se201  1  0.90755072  0.57708457  0.30117522  1
  Se  Se202  1  0.91863104  0.58749372  0.80998790  1
  Se  Se203  1  0.91067065  0.90638873  0.31165020  1
  Se  Se204  1  0.91215762  0.91268846  0.80679697  1
  Se  Se205  1  0.09571304  0.09466764  0.30218973  1
  Se  Se206  1  0.08264497  0.09100428  0.81120435  1
  Se  Se207  1  0.09285737  0.42247695  0.31020724  1
  Se  Se208  1  0.07789499  0.41811429  0.80955987  1
  Se  Se209  1  0.07310933  0.74582200  0.31048715  1
  Se  Se210  1  0.08872114  0.74775267  0.80359972  1
  Se  Se211  1  0.42972856  0.08930282  0.30698912  1
  Se  Se212  1  0.40742374  0.08124786  0.79437520  1
  Se  Se213  1  0.42049425  0.41702445  0.30340599  1
  Se  Se214  1  0.41881217  0.42846389  0.80857690  1
  Se  Se215  1  0.41230932  0.74518072  0.30788989  1
  Se  Se216  1  0.42507179  0.75577977  0.81206035  1
  Se  Se217  1  0.76200079  0.08916621  0.30644436  1
  Se  Se218  1  0.75466088  0.08545636  0.81009076  1
  Se  Se219  1  0.74843903  0.41347761  0.29658971  1
  Se  Se220  1  0.74413873  0.41720521  0.80538426  1
  Se  Se221  1  0.73661096  0.75301993  0.29658814  1
  Se  Se222  1  0.75172902  0.74548841  0.80553649  1
  Se  Se223  1  0.25476115  0.09214052  0.18374248  1
  Se  Se224  1  0.24310398  0.09128308  0.69575294  1
  Se  Se225  1  0.25586787  0.40150191  0.18843305  1
  Se  Se226  1  0.24160174  0.42653739  0.69746748  1
  Se  Se227  1  0.25210774  0.74380053  0.20773221  1
  Se  Se228  1  0.24628247  0.75329545  0.68781444  1
  Se  Se229  1  0.58036798  0.09533035  0.19515801  1
  Se  Se230  1  0.57593799  0.08472140  0.68550437  1
  Se  Se231  1  0.59005353  0.42121403  0.19590046  1
  Se  Se232  1  0.58566506  0.41267502  0.69454901  1
  Se  Se233  1  0.57773869  0.75297515  0.19980933  1
  Se  Se234  1  0.58665071  0.74307836  0.69523578  1
  Se  Se235  1  0.92219451  0.08784353  0.18827642  1
  Se  Se236  1  0.90267837  0.09536398  0.69488807  1
  Se  Se237  1  0.90997231  0.42804073  0.18217802  1
  Se  Se238  1  0.91653011  0.41838715  0.70526819  1
  Se  Se239  1  0.91459224  0.74447029  0.19723611  1
  Se  Se240  1  0.92278424  0.74942805  0.69397707  1
  Se  Se241  1  0.09170670  0.25067155  0.18549422  1
  Se  Se242  1  0.07845681  0.25831938  0.69774478  1
  Se  Se243  1  0.06383521  0.58127577  0.20033012  1
  Se  Se244  1  0.08187414  0.58850728  0.70206736  1
  Se  Se245  1  0.08682872  0.90161193  0.18765112  1
  Se  Se246  1  0.08445835  0.90765382  0.68313498  1
  Se  Se247  1  0.43183957  0.23845269  0.20305640  1
  Se  Se248  1  0.41920191  0.25034340  0.68162748  1
  Se  Se249  1  0.41393897  0.58186388  0.19907182  1
  Se  Se250  1  0.42322935  0.57689330  0.68891640  1
  Se  Se251  1  0.42075315  0.91074743  0.19311441  1
  Se  Se252  1  0.41535219  0.91394924  0.69498798  1
  Se  Se253  1  0.75323514  0.25402990  0.19397520  1
  Se  Se254  1  0.74155277  0.24764005  0.70490236  1
  Se  Se255  1  0.74184827  0.58914521  0.18987819  1
  Se  Se256  1  0.75315128  0.58167847  0.69944641  1
  Se  Se257  1  0.76799426  0.91387629  0.19316340  1
  Se  Se258  1  0.75356331  0.90702066  0.69157996  1
