# generated using pymatgen
data_In86Cu29Se144
_symmetry_space_group_name_H-M   'P 1'
_cell_length_a   17.58594939
_cell_length_b   17.58565947
_cell_length_c   23.44004087
_cell_angle_alpha   89.97327082
_cell_angle_beta   89.99920958
_cell_angle_gamma   89.98383141
_symmetry_Int_Tables_number   1
_chemical_formula_structural   In86Cu29Se144
_chemical_formula_sum   'In86 Cu29 Se144'
_cell_volume   7249.07808739
_cell_formula_units_Z   1
loop_
 _symmetry_equiv_pos_site_id
 _symmetry_equiv_pos_as_xyz
  1  'x, y, z'
loop_
 _atom_site_type_symbol
 _atom_site_label
 _atom_site_symmetry_multiplicity
 _atom_site_fract_x
 _atom_site_fract_y
 _atom_site_fract_z
 _atom_site_occupancy
  In  In0  1  -0.00951871  0.17351826  0.11946973  1
  In  In1  1  -0.02328874  0.17601946  0.64133668  1
  In  In2  1  -0.00035135  0.50029527  0.10736020  1
  In  In3  1  -0.00792528  0.50309990  0.61523906  1
  In  In4  1  -0.00489988  0.83791879  0.12394341  1
  In  In5  1  0.00616885  0.83662444  0.61588410  1
  In  In6  1  0.33619457  0.15469799  0.12230186  1
  In  In7  1  0.34070864  0.15832998  0.63848648  1
  In  In8  1  0.34003079  0.50270979  0.11623863  1
  In  In9  1  0.32347486  0.50852916  0.63399113  1
  In  In10  1  0.33248237  0.83457554  0.13188310  1
  In  In11  1  0.32806302  0.83710389  0.62091076  1
  In  In12  1  0.68617996  0.18732619  0.10705738  1
  In  In13  1  0.68242017  0.16900975  0.63522155  1
  In  In14  1  0.65972899  0.49325970  0.11535791  1
  In  In15  1  0.67439335  0.48829900  0.63643736  1
  In  In16  1  0.67224749  0.82623473  0.12294514  1
  In  In17  1  0.65447416  0.82693036  0.62130300  1
  In  In18  1  0.17500666  -0.01298598  0.38330492  1
  In  In19  1  0.17372976  0.01017182  0.86520685  1
  In  In20  1  0.17453430  0.34575715  0.38526443  1
  In  In21  1  0.16787889  0.33799563  0.86977923  1
  In  In22  1  0.17497837  0.65667483  0.38325799  1
  In  In23  1  0.16291259  0.65223619  0.87407036  1
  In  In24  1  0.49137014  -0.00465968  0.37565050  1
  In  In25  1  0.50773490  0.03611096  0.86666669  1
  In  In26  1  0.50728988  0.31959756  0.37505477  1
  In  In27  1  0.50550304  0.33509751  0.87229636  1
  In  In28  1  0.50402604  0.68022824  0.37723609  1
  In  In29  1  0.49022576  0.65713464  0.86758967  1
  In  In30  1  0.83691862  -0.00216205  0.38440016  1
  In  In31  1  0.82633749  -0.00200046  0.88025487  1
  In  In32  1  0.83165335  0.33647271  0.37674314  1
  In  In33  1  0.83605298  0.33219401  0.86817759  1
  In  In34  1  0.84073148  0.66127948  0.39133132  1
  In  In35  1  0.83138394  0.67849750  0.88000001  1
  In  In36  1  -0.00629841  0.15769292  0.37792866  1
  In  In37  1  -0.01580956  0.15597751  0.85678692  1
  In  In38  1  -0.00051193  0.50351203  0.38829006  1
  In  In39  1  0.01003537  0.49980436  0.88227799  1
  In  In40  1  0.00689239  0.82292265  0.39848175  1
  In  In41  1  -0.01702860  0.83259605  0.87136225  1
  In  In42  1  0.34835477  0.16125902  0.37612510  1
  In  In43  1  0.35561111  0.18915426  0.85011123  1
  In  In44  1  0.32053206  0.50152412  0.37985673  1
  In  In45  1  0.33302282  0.49896514  0.87439310  1
  In  In46  1  0.33930117  0.83356638  0.37855976  1
  In  In47  1  0.33510608  0.83661480  0.86498826  1
  In  In48  1  0.67173880  0.17750820  0.37009020  1
  In  In49  1  0.65649819  0.17321865  0.88079366  1
  In  In50  1  0.67836893  0.49539443  0.37254307  1
  In  In51  1  0.66746893  0.50242201  0.87137522  1
  In  In52  1  0.67079285  0.82868628  0.38964198  1
  In  In53  1  0.68083727  0.83886184  0.87191280  1
  In  In54  1  0.17716170  0.00585236  0.12562585  1
  In  In55  1  0.16734902  -0.01308186  0.62620860  1
  In  In56  1  0.15724857  0.33619482  0.12047181  1
  In  In57  1  0.15611556  0.34218678  0.63364872  1
  In  In58  1  0.17927820  0.66827468  0.12550012  1
  In  In59  1  0.16853079  0.67976517  0.61289615  1
  In  In60  1  0.49152181  0.00134348  0.12104653  1
  In  In61  1  0.49989364  -0.00989140  0.62507377  1
  In  In62  1  0.51084228  0.34323059  0.11482635  1
  In  In63  1  0.50618072  0.32049121  0.64608877  1
  In  In64  1  0.49628660  0.65410801  0.12295658  1
  In  In65  1  0.48820829  0.67691626  0.63599985  1
  In  In66  1  0.82982285  0.00539658  0.11174351  1
  In  In67  1  0.83894715  0.01225131  0.62580915  1
  In  In68  1  0.82257864  0.32951325  0.11403124  1
  In  In69  1  0.83385170  0.33999301  0.62949512  1
  In  In70  1  0.83724514  0.66260231  0.11091269  1
  In  In71  1  0.83189230  0.65431205  0.61965503  1
  In  In72  1  0.00049732  0.66593123  0.74591161  1
  In  In73  1  0.16471254  0.16899986  -0.00106423  1
  In  In74  1  0.50590072  0.83648714  -0.00251932  1
  In  In75  1  0.66475602  0.66429395  0.24862715  1
  In  In76  1  0.66529434  0.00316150  0.75117576  1
  In  In77  1  0.00237029  0.66347110  0.25794851  1
  In  In78  1  0.66434117  0.00384250  0.24675451  1
  In  In79  1  -0.00119992  -0.00300863  0.24447332  1
  In  In80  1  0.33531249  0.33194696  0.25396488  1
  In  In81  1  0.16269979  0.16552069  0.50625848  1
  In  In82  1  0.50566492  0.16088062  0.50919704  1
  In  In83  1  0.49877760  0.49936452  0.51237536  1
  In  In84  1  -0.00129715  0.33084210  0.24872866  1
  In  In85  1  0.15790576  0.82842831  0.00116561  1
  Cu  Cu86  1  0.49253223  0.83688128  0.25381736  1
  Cu  Cu87  1  0.49497702  0.49848260  0.24275955  1
  Cu  Cu88  1  0.66702728  0.66460113  -0.00326588  1
  Cu  Cu89  1  0.16921383  0.50459016  0.25181053  1
  Cu  Cu90  1  0.17507008  0.15664887  0.25187291  1
  Cu  Cu91  1  -0.00674243  -0.00374009  -0.00729408  1
  Cu  Cu92  1  0.17009980  0.50101067  0.75060170  1
  Cu  Cu93  1  0.49756185  0.83068013  0.74773423  1
  Cu  Cu94  1  0.33637620  0.67240945  0.50397303  1
  Cu  Cu95  1  -0.00635243  0.00661742  0.50671665  1
  Cu  Cu96  1  0.15943863  0.16282185  0.74458564  1
  Cu  Cu97  1  0.33919930  0.00660841  -0.00663292  1
  Cu  Cu98  1  0.18018090  0.83097450  0.25752479  1
  Cu  Cu99  1  0.67681618  0.33805644  0.50281046  1
  Cu  Cu100  1  0.33631643  0.33421323  -0.01129033  1
  Cu  Cu101  1  0.66819942  0.00181618  0.50586868  1
  Cu  Cu102  1  -0.00432554  0.33191719  -0.00714911  1
  Cu  Cu103  1  0.16608493  0.83184682  0.74102874  1
  Cu  Cu104  1  0.83532857  0.49973351  0.75009345  1
  Cu  Cu105  1  -0.00536363  0.33269967  0.50902692  1
  Cu  Cu106  1  0.66759897  0.66076532  0.50568860  1
  Cu  Cu107  1  0.50064083  0.49982453  0.75317169  1
  Cu  Cu108  1  0.32987932  0.33717469  0.51225724  1
  Cu  Cu109  1  0.83610760  0.83244792  0.25735813  1
  Cu  Cu110  1  0.82764334  0.49012329  0.24723722  1
  Cu  Cu111  1  0.83053163  0.83417108  0.75040562  1
  Cu  Cu112  1  0.66767646  0.34047142  -0.00920799  1
  Cu  Cu113  1  0.33024307  0.66105233  -0.00342456  1
  Cu  Cu114  1  0.50387263  0.16684661  0.24749787  1
  Se  Se115  1  0.07411894  0.07183031  0.05765360  1
  Se  Se116  1  0.07043138  0.08612998  0.57032761  1
  Se  Se117  1  0.08510609  0.41225894  0.04453552  1
  Se  Se118  1  0.08422482  0.41612790  0.55448762  1
  Se  Se119  1  0.07220437  0.73740518  0.06304951  1
  Se  Se120  1  0.07181166  0.74391561  0.54591554  1
  Se  Se121  1  0.42224291  0.08915692  0.04719620  1
  Se  Se122  1  0.40540385  0.07275384  0.55757298  1
  Se  Se123  1  0.41694010  0.41606164  0.04832555  1
  Se  Se124  1  0.41656684  0.40588016  0.57443938  1
  Se  Se125  1  0.40853293  0.74683750  0.05593407  1
  Se  Se126  1  0.42060649  0.75397666  0.55667358  1
  Se  Se127  1  0.74813281  0.08477576  0.04421134  1
  Se  Se128  1  0.74849614  0.08878008  0.55688763  1
  Se  Se129  1  0.75142579  0.42271084  0.04636889  1
  Se  Se130  1  0.75490465  0.42459631  0.55657096  1
  Se  Se131  1  0.74952628  0.74961677  0.04967816  1
  Se  Se132  1  0.74764725  0.74754000  0.55822675  1
  Se  Se133  1  0.26040792  0.25887036  0.05790226  1
  Se  Se134  1  0.25399849  0.25056190  0.56922185  1
  Se  Se135  1  0.24644907  0.58063445  0.05222200  1
  Se  Se136  1  0.25457761  0.58466282  0.55457351  1
  Se  Se137  1  0.25974727  0.92297028  0.05238489  1
  Se  Se138  1  0.23722135  0.90745400  0.55051593  1
  Se  Se139  1  0.58374024  0.25507878  0.04488700  1
  Se  Se140  1  0.59281923  0.25973136  0.56222776  1
  Se  Se141  1  0.58010065  0.58421186  0.04990647  1
  Se  Se142  1  0.58794915  0.58794769  0.57161084  1
  Se  Se143  1  0.59419941  0.92349461  0.06004805  1
  Se  Se144  1  0.58061720  0.91648259  0.55097408  1
  Se  Se145  1  0.91216925  0.24908125  0.04679344  1
  Se  Se146  1  0.90995573  0.24981129  0.55921899  1
  Se  Se147  1  0.91025725  0.57591662  0.04299638  1
  Se  Se148  1  0.92021396  0.59044970  0.54558424  1
  Se  Se149  1  0.91534351  0.91412641  0.05180947  1
  Se  Se150  1  0.91060162  0.92024765  0.55706307  1
  Se  Se151  1  0.07445069  0.25851794  0.44208771  1
  Se  Se152  1  0.07456271  0.24862750  0.93355862  1
  Se  Se153  1  0.07974722  0.59098014  0.45047440  1
  Se  Se154  1  0.08168531  0.59088205  0.95117873  1
  Se  Se155  1  0.08163306  0.92577932  0.45485119  1
  Se  Se156  1  0.08210162  0.92421443  0.93519389  1
  Se  Se157  1  0.41085798  0.25872962  0.45109781  1
  Se  Se158  1  0.41889294  0.24782005  0.93937426  1
  Se  Se159  1  0.41562813  0.58747214  0.44434151  1
  Se  Se160  1  0.41736499  0.58046228  0.94526040  1
  Se  Se161  1  0.42503880  0.91110817  0.44830391  1
  Se  Se162  1  0.41747489  0.92368644  0.93483715  1
  Se  Se163  1  0.75090466  0.25022622  0.44589787  1
  Se  Se164  1  0.75123194  0.25484134  0.94043410  1
  Se  Se165  1  0.74559837  0.57717200  0.44850692  1
  Se  Se166  1  0.75079578  0.58427266  0.94169911  1
  Se  Se167  1  0.75223418  0.91790719  0.45255580  1
  Se  Se168  1  0.75605715  0.90653614  0.94957865  1
  Se  Se169  1  0.25968271  0.08231037  0.44604189  1
  Se  Se170  1  0.25922039  0.08944963  0.93647086  1
  Se  Se171  1  0.25123172  0.42349498  0.45881152  1
  Se  Se172  1  0.24655754  0.41709528  0.94316139  1
  Se  Se173  1  0.25314105  0.75071569  0.44565650  1
  Se  Se174  1  0.25534722  0.74839351  0.93927031  1
  Se  Se175  1  0.59257953  0.07978262  0.43822535  1
  Se  Se176  1  0.59911371  0.06764520  0.94699303  1
  Se  Se177  1  0.58642891  0.41140643  0.44489766  1
  Se  Se178  1  0.58074704  0.42406282  0.94179282  1
  Se  Se179  1  0.58345736  0.74657740  0.45491105  1
  Se  Se180  1  0.58701769  0.74308147  0.93453089  1
  Se  Se181  1  0.91101333  0.08965708  0.45278014  1
  Se  Se182  1  0.91678754  0.08677061  0.94098770  1
  Se  Se183  1  0.91477183  0.41349875  0.44807003  1
  Se  Se184  1  0.91408523  0.41729173  0.94045742  1
  Se  Se185  1  0.89670219  0.76566562  0.45410066  1
  Se  Se186  1  0.92577462  0.74740095  0.94786316  1
  Se  Se187  1  0.24246089  0.24264544  0.31587583  1
  Se  Se188  1  0.23995009  0.24884755  0.79895600  1
  Se  Se189  1  0.25338985  0.58588176  0.30438535  1
  Se  Se190  1  0.25300416  0.58509724  0.80329812  1
  Se  Se191  1  0.25871359  0.92022925  0.30778723  1
  Se  Se192  1  0.24588105  0.91477837  0.79931397  1
  Se  Se193  1  0.58696712  0.25256837  0.29770254  1
  Se  Se194  1  0.56756237  0.23324227  0.80605152  1
  Se  Se195  1  0.57446830  0.57403639  0.30960258  1
  Se  Se196  1  0.58601592  0.58672165  0.80124332  1
  Se  Se197  1  0.58579605  0.90563182  0.31064060  1
  Se  Se198  1  0.57325894  0.91279120  0.81171760  1
  Se  Se199  1  0.91062369  0.23957596  0.30666598  1
  Se  Se200  1  0.92831130  0.26504602  0.79737744  1
  Se  Se201  1  0.90503556  0.57049271  0.30990989  1
  Se  Se202  1  0.91385205  0.58084090  0.81126814  1
  Se  Se203  1  0.92194330  0.90744584  0.31514932  1
  Se  Se204  1  0.90804538  0.92134632  0.80401595  1
  Se  Se205  1  0.09087200  0.08128947  0.31101420  1
  Se  Se206  1  0.07838788  0.07506493  0.79632094  1
  Se  Se207  1  0.08819189  0.42367566  0.31043396  1
  Se  Se208  1  0.08184665  0.42305685  0.80387950  1
  Se  Se209  1  0.09039557  0.75838923  0.31475265  1
  Se  Se210  1  0.08909801  0.75673328  0.80878276  1
  Se  Se211  1  0.42286151  0.08294788  0.30135511  1
  Se  Se212  1  0.39458501  0.06263046  0.80220161  1
  Se  Se213  1  0.42445722  0.42336175  0.31494959  1
  Se  Se214  1  0.41584117  0.41654244  0.80564067  1
  Se  Se215  1  0.41531695  0.74698392  0.30530351  1
  Se  Se216  1  0.41284388  0.74632074  0.79976567  1
  Se  Se217  1  0.76048786  0.08381914  0.30857806  1
  Se  Se218  1  0.75247254  0.09299662  0.81085858  1
  Se  Se219  1  0.74664188  0.40687810  0.30055526  1
  Se  Se220  1  0.74919521  0.41781600  0.80244936  1
  Se  Se221  1  0.75556007  0.74854714  0.31341777  1
  Se  Se222  1  0.74977148  0.74709272  0.80172323  1
  Se  Se223  1  0.26052684  0.07772762  0.19888495  1
  Se  Se224  1  0.24292984  0.07688057  0.69460945  1
  Se  Se225  1  0.24391791  0.41858650  0.19153429  1
  Se  Se226  1  0.25232569  0.41278532  0.70003826  1
  Se  Se227  1  0.25572325  0.74576678  0.19971259  1
  Se  Se228  1  0.24977907  0.74752469  0.69031456  1
  Se  Se229  1  0.58265089  0.09285224  0.18201339  1
  Se  Se230  1  0.57366131  0.09070189  0.68992085  1
  Se  Se231  1  0.58379135  0.41875256  0.19322930  1
  Se  Se232  1  0.58728109  0.41339320  0.70622532  1
  Se  Se233  1  0.57099359  0.75717655  0.19100516  1
  Se  Se234  1  0.58715926  0.74803602  0.70059545  1
  Se  Se235  1  0.90671875  0.08882038  0.19001268  1
  Se  Se236  1  0.90831292  0.07973334  0.70724237  1
  Se  Se237  1  0.91556220  0.42207760  0.18500777  1
  Se  Se238  1  0.92339362  0.42478141  0.69387986  1
  Se  Se239  1  0.91048207  0.74969934  0.19418367  1
  Se  Se240  1  0.90970014  0.75620153  0.68733677  1
  Se  Se241  1  0.09401776  0.23526695  0.19211788  1
  Se  Se242  1  0.07636531  0.25360868  0.69930826  1
  Se  Se243  1  0.08420869  0.57555718  0.18923083  1
  Se  Se244  1  0.09252692  0.57985106  0.68552421  1
  Se  Se245  1  0.09919747  0.90450671  0.19191585  1
  Se  Se246  1  0.07490556  0.91379893  0.69521859  1
  Se  Se247  1  0.42246341  0.24858852  0.18739512  1
  Se  Se248  1  0.41210798  0.24573480  0.70815783  1
  Se  Se249  1  0.40922901  0.58260911  0.19502199  1
  Se  Se250  1  0.41501220  0.58269373  0.70105685  1
  Se  Se251  1  0.41676571  0.92129114  0.19581555  1
  Se  Se252  1  0.41418325  0.91326168  0.69403369  1
  Se  Se253  1  0.75387510  0.25098045  0.19119699  1
  Se  Se254  1  0.74655090  0.26548809  0.70019472  1
  Se  Se255  1  0.75601188  0.57818712  0.18693293  1
  Se  Se256  1  0.75267880  0.58539269  0.69793000  1
  Se  Se257  1  0.76119597  0.90971205  0.19246572  1
  Se  Se258  1  0.74945535  0.91181438  0.68780849  1
