# generated using pymatgen
data_In86Cu29Se144
_symmetry_space_group_name_H-M   'P 1'
_cell_length_a   17.58123511
_cell_length_b   17.58464911
_cell_length_c   23.44126078
_cell_angle_alpha   90.00674290
_cell_angle_beta   89.99977465
_cell_angle_gamma   89.97419505
_symmetry_Int_Tables_number   1
_chemical_formula_structural   In86Cu29Se144
_chemical_formula_sum   'In86 Cu29 Se144'
_cell_volume   7247.09588838
_cell_formula_units_Z   1
loop_
 _symmetry_equiv_pos_site_id
 _symmetry_equiv_pos_as_xyz
  1  'x, y, z'
loop_
 _atom_site_type_symbol
 _atom_site_label
 _atom_site_symmetry_multiplicity
 _atom_site_fract_x
 _atom_site_fract_y
 _atom_site_fract_z
 _atom_site_occupancy
  In  In0  1  -0.02236269  0.17742746  0.14251544  1
  In  In1  1  -0.00947293  0.16476682  0.62227461  1
  In  In2  1  0.00273941  0.50446547  0.12209699  1
  In  In3  1  -0.00221044  0.50122792  0.62684838  1
  In  In4  1  0.00377826  0.83359015  0.13061125  1
  In  In5  1  -0.00532072  0.83421914  0.63456227  1
  In  In6  1  0.34312706  0.17309754  0.13004483  1
  In  In7  1  0.35419485  0.17141298  0.62294856  1
  In  In8  1  0.33638137  0.50127402  0.12721531  1
  In  In9  1  0.32392915  0.49087073  0.62658124  1
  In  In10  1  0.31412890  0.81132750  0.11427962  1
  In  In11  1  0.33903990  0.84434682  0.62665304  1
  In  In12  1  0.69220333  0.15685757  0.14602804  1
  In  In13  1  0.66350604  0.16746882  0.61269140  1
  In  In14  1  0.66002116  0.49464093  0.12282918  1
  In  In15  1  0.67541263  0.50380432  0.61679540  1
  In  In16  1  0.67739020  0.83814617  0.11390416  1
  In  In17  1  0.65782958  0.82796277  0.63153229  1
  In  In18  1  0.15535338  0.00205970  0.36884621  1
  In  In19  1  0.14969347  0.00036761  0.87697114  1
  In  In20  1  0.17080844  0.33819074  0.36096939  1
  In  In21  1  0.18010807  0.33059566  0.87770856  1
  In  In22  1  0.16619855  0.66789760  0.36346229  1
  In  In23  1  0.15505617  0.67636416  0.88496681  1
  In  In24  1  0.52036585  0.00658831  0.36819396  1
  In  In25  1  0.48957088  -0.00144776  0.87702141  1
  In  In26  1  0.50259150  0.33772439  0.37723411  1
  In  In27  1  0.50158326  0.34190777  0.87408460  1
  In  In28  1  0.48826436  0.65230679  0.37067827  1
  In  In29  1  0.51089052  0.65822909  0.88310961  1
  In  In30  1  0.84588808  0.02620888  0.35546076  1
  In  In31  1  0.84345435  -0.01089532  0.88507830  1
  In  In32  1  0.83224193  0.33176437  0.36917691  1
  In  In33  1  0.82943531  0.33337418  0.88840219  1
  In  In34  1  0.83307673  0.65293335  0.37029109  1
  In  In35  1  0.83232220  0.66132444  0.87679586  1
  In  In36  1  -0.01813216  0.16629792  0.35842455  1
  In  In37  1  0.00361092  0.15062982  0.87473879  1
  In  In38  1  -0.00420631  0.49162554  0.36224877  1
  In  In39  1  -0.01224942  0.51036868  0.88658872  1
  In  In40  1  0.00367510  0.83346802  0.35886864  1
  In  In41  1  -0.00093900  0.83022032  0.87850477  1
  In  In42  1  0.33475020  0.18425069  0.37356958  1
  In  In43  1  0.32156646  0.17353027  0.86835053  1
  In  In44  1  0.34842645  0.50930676  0.37167727  1
  In  In45  1  0.33905768  0.49266717  0.88236608  1
  In  In46  1  0.33762380  0.82318044  0.36733851  1
  In  In47  1  0.33461784  0.82856864  0.88764925  1
  In  In48  1  0.66950096  0.17286281  0.37778299  1
  In  In49  1  0.67405535  0.17904460  0.87701318  1
  In  In50  1  0.68461710  0.47850520  0.39649960  1
  In  In51  1  0.65788583  0.49863714  0.88374099  1
  In  In52  1  0.65509288  0.84182802  0.36731827  1
  In  In53  1  0.68279814  0.82213021  0.88737738  1
  In  In54  1  0.15216606  -0.01833581  0.12266308  1
  In  In55  1  0.16274032  -0.00783469  0.62515342  1
  In  In56  1  0.15782428  0.34381522  0.12961032  1
  In  In57  1  0.17001329  0.34412104  0.62982078  1
  In  In58  1  0.17040835  0.67016738  0.12858520  1
  In  In59  1  0.15371276  0.65465191  0.63023727  1
  In  In60  1  0.51467028  0.00152675  0.12609870  1
  In  In61  1  0.49799924  0.00489401  0.62173924  1
  In  In62  1  0.50079798  0.34044434  0.13207382  1
  In  In63  1  0.49600294  0.32947589  0.61464869  1
  In  In64  1  0.48962774  0.65444682  0.11776858  1
  In  In65  1  0.50955249  0.67517022  0.62746395  1
  In  In66  1  0.83972312  -0.00204792  0.13026210  1
  In  In67  1  0.83681581  0.00903710  0.62412917  1
  In  In68  1  0.83089766  0.33459853  0.12968989  1
  In  In69  1  0.82277664  0.32680757  0.60506090  1
  In  In70  1  0.84588257  0.67611269  0.11780906  1
  In  In71  1  0.84245750  0.65918852  0.63235723  1
  In  In72  1  0.32916809  0.00759562  0.75256931  1
  In  In73  1  0.83226805  0.83375216  0.49627100  1
  In  In74  1  0.32948811  -0.00503422  0.24421090  1
  In  In75  1  0.66329097  0.33333352  0.74203315  1
  In  In76  1  0.66087039  0.66286622  0.24665563  1
  In  In77  1  0.66901043  0.00085267  0.74517816  1
  In  In78  1  0.16258578  0.16343516  -0.00148788  1
  In  In79  1  0.32557353  0.66747122  0.74946791  1
  In  In80  1  0.00109890  0.33408315  0.74902214  1
  In  In81  1  0.16673326  0.50185578  0.50213351  1
  In  In82  1  0.16040292  0.82971728  0.48529271  1
  In  In83  1  0.16277275  0.16785553  0.49702939  1
  In  In84  1  0.50839788  0.17117997  0.00062652  1
  In  In85  1  0.50074157  0.83296697  0.49930493  1
  Cu  Cu86  1  0.51086794  0.82863444  0.75984292  1
  Cu  Cu87  1  0.49558557  0.82953237  0.24205474  1
  Cu  Cu88  1  0.82896499  0.83483697  0.24092542  1
  Cu  Cu89  1  -0.00676262  0.32967380  0.48782085  1
  Cu  Cu90  1  0.00083780  0.66832513  0.00388028  1
  Cu  Cu91  1  0.83869644  0.82879114  0.76053939  1
  Cu  Cu92  1  0.33290706  0.66054677  0.00171181  1
  Cu  Cu93  1  0.66805668  0.66195711  0.00225480  1
  Cu  Cu94  1  -0.00432958  0.66122581  0.50070219  1
  Cu  Cu95  1  -0.00295884  0.33538098  0.00922103  1
  Cu  Cu96  1  -0.00509952  -0.00213505  0.00506259  1
  Cu  Cu97  1  0.16013023  0.50328555  0.75603236  1
  Cu  Cu98  1  0.33901941  0.33714061  0.49882269  1
  Cu  Cu99  1  0.67474378  0.00898981  0.49236917  1
  Cu  Cu100  1  0.83567841  0.50044329  0.24814523  1
  Cu  Cu101  1  0.67095025  0.32860520  0.00791919  1
  Cu  Cu102  1  0.33885936  0.00347979  0.49676501  1
  Cu  Cu103  1  0.17149730  0.50217214  0.24375227  1
  Cu  Cu104  1  0.50058671  0.17610241  0.25365259  1
  Cu  Cu105  1  0.83968849  0.16163921  0.75002433  1
  Cu  Cu106  1  0.15896986  0.83328693  0.75596535  1
  Cu  Cu107  1  0.66664920  0.66387800  0.50106702  1
  Cu  Cu108  1  0.82932096  0.49821410  0.75008335  1
  Cu  Cu109  1  0.67321977  0.00164099  0.00725461  1
  Cu  Cu110  1  0.49960490  0.50264023  0.75620704  1
  Cu  Cu111  1  0.33547096  -0.00982158  0.00310121  1
  Cu  Cu112  1  0.50480412  0.49327117  0.25220480  1
  Cu  Cu113  1  0.16409911  0.16660011  0.24854203  1
  Cu  Cu114  1  0.33339357  0.34109690  0.00489526  1
  Se  Se115  1  0.07114098  0.08489468  0.06450149  1
  Se  Se116  1  0.07676681  0.07307810  0.55458798  1
  Se  Se117  1  0.08659520  0.42021540  0.05197641  1
  Se  Se118  1  0.07172617  0.40474057  0.55469913  1
  Se  Se119  1  0.08371427  0.75055672  0.05885365  1
  Se  Se120  1  0.07525080  0.74516464  0.55804052  1
  Se  Se121  1  0.41273945  0.07863189  0.05738695  1
  Se  Se122  1  0.42331710  0.08578974  0.54833668  1
  Se  Se123  1  0.42204197  0.41791913  0.05784107  1
  Se  Se124  1  0.41357796  0.42496282  0.55454544  1
  Se  Se125  1  0.41811288  0.74878057  0.05051988  1
  Se  Se126  1  0.40734096  0.74660853  0.55968889  1
  Se  Se127  1  0.75470236  0.08388286  0.06179821  1
  Se  Se128  1  0.75665890  0.08548564  0.55187722  1
  Se  Se129  1  0.75237248  0.41772115  0.05705527  1
  Se  Se130  1  0.74332593  0.41657444  0.54407092  1
  Se  Se131  1  0.75490087  0.74839526  0.04841992  1
  Se  Se132  1  0.74483544  0.74636645  0.56125806  1
  Se  Se133  1  0.25427862  0.25312438  0.05962545  1
  Se  Se134  1  0.25333717  0.25891159  0.55725179  1
  Se  Se135  1  0.25029540  0.58213979  0.05929909  1
  Se  Se136  1  0.25476132  0.59617251  0.56061141  1
  Se  Se137  1  0.24394726  0.91359611  0.05266434  1
  Se  Se138  1  0.25577709  0.92022390  0.54990666  1
  Se  Se139  1  0.59412503  0.24787008  0.07081596  1
  Se  Se140  1  0.59604107  0.26559828  0.55032087  1
  Se  Se141  1  0.58182959  0.57792746  0.05184404  1
  Se  Se142  1  0.58052055  0.58770035  0.55671293  1
  Se  Se143  1  0.58238604  0.91755283  0.05083511  1
  Se  Se144  1  0.59762519  0.92579999  0.55556832  1
  Se  Se145  1  0.91385607  0.24972639  0.05890950  1
  Se  Se146  1  0.91867093  0.24494146  0.54689090  1
  Se  Se147  1  0.91539407  0.58058838  0.05087475  1
  Se  Se148  1  0.91456412  0.57881545  0.55551825  1
  Se  Se149  1  0.91608705  0.91160134  0.05975112  1
  Se  Se150  1  0.92384427  0.91987399  0.55748393  1
  Se  Se151  1  0.08100308  0.25595487  0.43017684  1
  Se  Se152  1  0.07247159  0.25815503  0.94100152  1
  Se  Se153  1  0.07781840  0.58649944  0.43756176  1
  Se  Se154  1  0.08418469  0.58193464  0.95180895  1
  Se  Se155  1  0.06440187  0.92555960  0.43927952  1
  Se  Se156  1  0.07928341  0.91602384  0.94963794  1
  Se  Se157  1  0.42050126  0.25054104  0.44729596  1
  Se  Se158  1  0.40749288  0.25497755  0.94284316  1
  Se  Se159  1  0.41628443  0.58496726  0.45140756  1
  Se  Se160  1  0.41961389  0.58017210  0.94806060  1
  Se  Se161  1  0.41540163  0.92300318  0.43328838  1
  Se  Se162  1  0.42374202  0.91209147  0.95078258  1
  Se  Se163  1  0.74922511  0.26015780  0.44364969  1
  Se  Se164  1  0.75327176  0.24285958  0.95598839  1
  Se  Se165  1  0.75754301  0.58626697  0.45047719  1
  Se  Se166  1  0.74998846  0.57811368  0.94666902  1
  Se  Se167  1  0.74658680  0.92225094  0.43314801  1
  Se  Se168  1  0.75554580  0.91504494  0.95407029  1
  Se  Se169  1  0.25584128  0.07797642  0.43513737  1
  Se  Se170  1  0.25921630  0.07303997  0.94096295  1
  Se  Se171  1  0.25353635  0.41239354  0.43929427  1
  Se  Se172  1  0.24653040  0.41924800  0.95068929  1
  Se  Se173  1  0.25940228  0.73675314  0.44016314  1
  Se  Se174  1  0.24769700  0.74836352  0.95291865  1
  Se  Se175  1  0.58128817  0.08859358  0.44668309  1
  Se  Se176  1  0.59489040  0.07568374  0.93990251  1
  Se  Se177  1  0.55567829  0.44646618  0.44156363  1
  Se  Se178  1  0.58396074  0.40631033  0.95164002  1
  Se  Se179  1  0.58898842  0.74209378  0.43771145  1
  Se  Se180  1  0.58470205  0.74968027  0.95055675  1
  Se  Se181  1  0.91613296  0.09032451  0.43854592  1
  Se  Se182  1  0.91739914  0.08533051  0.94962182  1
  Se  Se183  1  0.91573945  0.42089370  0.43801927  1
  Se  Se184  1  0.91327225  0.41765263  0.95318113  1
  Se  Se185  1  0.92348966  0.74385859  0.43653665  1
  Se  Se186  1  0.91576998  0.74589897  0.94534341  1
  Se  Se187  1  0.25289461  0.24942425  0.29618832  1
  Se  Se188  1  0.24293625  0.25225763  0.79854149  1
  Se  Se189  1  0.25332361  0.57924158  0.30369353  1
  Se  Se190  1  0.24307159  0.58105793  0.81645594  1
  Se  Se191  1  0.24087215  0.90704545  0.30687656  1
  Se  Se192  1  0.24772925  0.90803072  0.81263425  1
  Se  Se193  1  0.58513382  0.25578606  0.30799258  1
  Se  Se194  1  0.57695593  0.24368282  0.80685654  1
  Se  Se195  1  0.58877925  0.56935828  0.31408596  1
  Se  Se196  1  0.58758517  0.58121220  0.80739438  1
  Se  Se197  1  0.57834012  0.91650863  0.29130850  1
  Se  Se198  1  0.58811938  0.91435720  0.81613424  1
  Se  Se199  1  0.91707942  0.26409244  0.29321387  1
  Se  Se200  1  0.90942191  0.24812380  0.81238688  1
  Se  Se201  1  0.92065872  0.58695826  0.29686458  1
  Se  Se202  1  0.91387910  0.57833881  0.80507537  1
  Se  Se203  1  0.90987925  0.91524007  0.29920291  1
  Se  Se204  1  0.92119157  0.91824492  0.80761528  1
  Se  Se205  1  0.07866476  0.08402044  0.29872845  1
  Se  Se206  1  0.09658544  0.09257987  0.80271528  1
  Se  Se207  1  0.08507963  0.41754208  0.29386287  1
  Se  Se208  1  0.08218532  0.42165912  0.81716935  1
  Se  Se209  1  0.08362697  0.74645036  0.29550142  1
  Se  Se210  1  0.07842169  0.74583435  0.80631968  1
  Se  Se211  1  0.41745279  0.08730154  0.30693519  1
  Se  Se212  1  0.42658213  0.09700556  0.80677302  1
  Se  Se213  1  0.41523311  0.41323718  0.30397632  1
  Se  Se214  1  0.41452000  0.41748733  0.80458754  1
  Se  Se215  1  0.42094248  0.74360108  0.29848319  1
  Se  Se216  1  0.41994267  0.75059678  0.81208354  1
  Se  Se217  1  0.72168077  0.06849051  0.30865139  1
  Se  Se218  1  0.75744066  0.08532077  0.81156446  1
  Se  Se219  1  0.74944177  0.42535330  0.30544637  1
  Se  Se220  1  0.75199410  0.41613687  0.81013770  1
  Se  Se221  1  0.75290097  0.75527846  0.30687216  1
  Se  Se222  1  0.74945428  0.74618866  0.80694524  1
  Se  Se223  1  0.24035509  0.08714771  0.18396671  1
  Se  Se224  1  0.24881189  0.09068087  0.68174571  1
  Se  Se225  1  0.25497715  0.41406618  0.19471923  1
  Se  Se226  1  0.24648942  0.42108547  0.70484424  1
  Se  Se227  1  0.25608687  0.74591633  0.20037859  1
  Se  Se228  1  0.23795201  0.76210930  0.68806089  1
  Se  Se229  1  0.57940816  0.09024113  0.19886100  1
  Se  Se230  1  0.57714550  0.09462066  0.69125842  1
  Se  Se231  1  0.59294583  0.41346488  0.20076137  1
  Se  Se232  1  0.57587177  0.42912346  0.68767495  1
  Se  Se233  1  0.57893617  0.75245888  0.18074577  1
  Se  Se234  1  0.58947002  0.74324258  0.70582360  1
  Se  Se235  1  0.90793088  0.08166755  0.20645078  1
  Se  Se236  1  0.92294876  0.07856328  0.69815907  1
  Se  Se237  1  0.92053686  0.42142906  0.19196496  1
  Se  Se238  1  0.90131261  0.41294075  0.68743790  1
  Se  Se239  1  0.91702683  0.74805180  0.19736687  1
  Se  Se240  1  0.91897854  0.74577425  0.70184579  1
  Se  Se241  1  0.08223406  0.25334007  0.19679958  1
  Se  Se242  1  0.08834476  0.24384067  0.68758624  1
  Se  Se243  1  0.08419288  0.58456979  0.19382999  1
  Se  Se244  1  0.07216599  0.58077329  0.70299320  1
  Se  Se245  1  0.07630370  0.92043471  0.20290077  1
  Se  Se246  1  0.08190298  0.91873149  0.69887832  1
  Se  Se247  1  0.41594982  0.25769366  0.20076398  1
  Se  Se248  1  0.41676233  0.26290699  0.69322600  1
  Se  Se249  1  0.42286855  0.57945906  0.19887192  1
  Se  Se250  1  0.41976626  0.58014064  0.69145315  1
  Se  Se251  1  0.41688555  0.90934344  0.17981824  1
  Se  Se252  1  0.43234329  0.91241501  0.70036253  1
  Se  Se253  1  0.75937642  0.25624475  0.20795815  1
  Se  Se254  1  0.75966941  0.23990212  0.68876557  1
  Se  Se255  1  0.75775711  0.58244191  0.18567070  1
  Se  Se256  1  0.74730536  0.58170090  0.69502203  1
  Se  Se257  1  0.74198479  0.91804166  0.19278725  1
  Se  Se258  1  0.76308461  0.90486064  0.69179166  1
