# generated using pymatgen
data_In86Cu29Se144
_symmetry_space_group_name_H-M   'P 1'
_cell_length_a   17.57307079
_cell_length_b   17.57376650
_cell_length_c   23.42636959
_cell_angle_alpha   90.00308295
_cell_angle_beta   89.99693811
_cell_angle_gamma   90.02315522
_symmetry_Int_Tables_number   1
_chemical_formula_structural   In86Cu29Se144
_chemical_formula_sum   'In86 Cu29 Se144'
_cell_volume   7234.64897985
_cell_formula_units_Z   1
loop_
 _symmetry_equiv_pos_site_id
 _symmetry_equiv_pos_as_xyz
  1  'x, y, z'
loop_
 _atom_site_type_symbol
 _atom_site_label
 _atom_site_symmetry_multiplicity
 _atom_site_fract_x
 _atom_site_fract_y
 _atom_site_fract_z
 _atom_site_occupancy
  In  In0  1  -0.00550808  0.17290380  0.13203166  1
  In  In1  1  -0.01068343  0.17139834  0.61777039  1
  In  In2  1  0.00385743  0.48515644  0.12669626  1
  In  In3  1  0.00310729  0.49920651  0.61461787  1
  In  In4  1  -0.00557839  0.84444465  0.12675901  1
  In  In5  1  0.01634495  0.83280808  0.62475735  1
  In  In6  1  0.32428252  0.17131257  0.14530449  1
  In  In7  1  0.33930595  0.15170178  0.61500239  1
  In  In8  1  0.33376803  0.49877315  0.12875566  1
  In  In9  1  0.34316832  0.51082762  0.61501502  1
  In  In10  1  0.34740036  0.82275414  0.14153878  1
  In  In11  1  0.32572839  0.82714828  0.62025252  1
  In  In12  1  0.67596114  0.15458487  0.13014794  1
  In  In13  1  0.66006020  0.15526648  0.61626669  1
  In  In14  1  0.65168795  0.50685079  0.12797067  1
  In  In15  1  0.65991163  0.51541169  0.62641892  1
  In  In16  1  0.66670467  0.84005427  0.11611146  1
  In  In17  1  0.65115617  0.84914637  0.64258080  1
  In  In18  1  0.16034275  -0.00242708  0.36748558  1
  In  In19  1  0.14756738  0.00788152  0.87186035  1
  In  In20  1  0.19342785  0.35443632  0.34212291  1
  In  In21  1  0.17563130  0.33515326  0.88055367  1
  In  In22  1  0.18165300  0.64904077  0.38981366  1
  In  In23  1  0.17025663  0.65258183  0.87755071  1
  In  In24  1  0.50973550  -0.00552739  0.37073185  1
  In  In25  1  0.50013457  -0.02177688  0.87717359  1
  In  In26  1  0.50073611  0.33348740  0.37551694  1
  In  In27  1  0.51223788  0.33578559  0.88220840  1
  In  In28  1  0.47979295  0.68195553  0.38396924  1
  In  In29  1  0.49582890  0.67223898  0.86901756  1
  In  In30  1  0.84582243  0.01244935  0.36866564  1
  In  In31  1  0.82819029  -0.00256639  0.87122015  1
  In  In32  1  0.82705955  0.32083393  0.36805402  1
  In  In33  1  0.82433377  0.32185137  0.88272637  1
  In  In34  1  0.83620322  0.66938653  0.37719978  1
  In  In35  1  0.83100580  0.68916384  0.87581829  1
  In  In36  1  0.00321493  0.16410627  0.36730197  1
  In  In37  1  -0.00312417  0.13700751  0.86936202  1
  In  In38  1  0.03435189  0.49727702  0.37191484  1
  In  In39  1  0.01161989  0.50761940  0.88027534  1
  In  In40  1  0.00003375  0.84685882  0.37662034  1
  In  In41  1  -0.01332579  0.83838099  0.87570405  1
  In  In42  1  0.34075892  0.17516661  0.36666411  1
  In  In43  1  0.32373708  0.16377648  0.87757154  1
  In  In44  1  0.33208801  0.50678940  0.37197831  1
  In  In45  1  0.32775964  0.50956093  0.88154198  1
  In  In46  1  0.33978176  0.82734855  0.37123846  1
  In  In47  1  0.35097244  0.83092274  0.87798565  1
  In  In48  1  0.66735572  0.16407346  0.37578059  1
  In  In49  1  0.68039569  0.16853196  0.87736486  1
  In  In50  1  0.66476692  0.48483833  0.37280081  1
  In  In51  1  0.64796127  0.50199877  0.87901322  1
  In  In52  1  0.64529250  0.84083347  0.37543541  1
  In  In53  1  0.66344806  0.83468066  0.86313390  1
  In  In54  1  0.15986418  0.00961359  0.14670830  1
  In  In55  1  0.17397393  -0.01029067  0.62379418  1
  In  In56  1  0.16075841  0.34179870  0.13773675  1
  In  In57  1  0.15651904  0.34154128  0.61474368  1
  In  In58  1  0.18572222  0.66089965  0.13179807  1
  In  In59  1  0.17480312  0.68043287  0.61365801  1
  In  In60  1  0.50535701  -0.00911670  0.13735384  1
  In  In61  1  0.50268453  -0.00260619  0.61644429  1
  In  In62  1  0.48850961  0.34405976  0.13873245  1
  In  In63  1  0.49793000  0.33115295  0.61236745  1
  In  In64  1  0.49449420  0.66087640  0.11935063  1
  In  In65  1  0.49948399  0.66999111  0.62346074  1
  In  In66  1  0.82883695  -0.00009952  0.12065870  1
  In  In67  1  0.82247937  0.00503815  0.63028682  1
  In  In68  1  0.84082118  0.31641820  0.13099129  1
  In  In69  1  0.84405100  0.32828646  0.61636308  1
  In  In70  1  0.81663232  0.67473099  0.11872061  1
  In  In71  1  0.82215191  0.67413019  0.63473277  1
  In  In72  1  0.83263488  0.49941287  0.50033279  1
  In  In73  1  0.17253072  0.83202764  0.01406576  1
  In  In74  1  0.83602991  0.49904009  0.00092787  1
  In  In75  1  0.16970068  0.17159129  0.48601516  1
  In  In76  1  0.00467042  0.66572320  0.25288956  1
  In  In77  1  0.00245818  0.33083622  0.74109464  1
  In  In78  1  0.66741197  0.33435136  0.75350790  1
  In  In79  1  0.50017204  0.16760260  0.01014022  1
  In  In80  1  0.33207118  0.33253116  0.75311134  1
  In  In81  1  0.83137896  0.83869011  0.50723225  1
  In  In82  1  0.16242322  0.16907388  0.01114356  1
  In  In83  1  0.00110748  0.67340347  0.74529313  1
  In  In84  1  0.33362748  -0.00995796  0.74807575  1
  In  In85  1  0.66157530  0.66780113  0.24948314  1
  Cu  Cu86  1  0.50671288  0.16906567  0.25383682  1
  Cu  Cu87  1  0.17425939  0.50437185  0.74784942  1
  Cu  Cu88  1  0.33351658  0.66451808  0.49912531  1
  Cu  Cu89  1  0.49757687  0.15635798  0.74423901  1
  Cu  Cu90  1  0.66695681  0.33499051  0.00726208  1
  Cu  Cu91  1  0.16887083  0.83030760  0.25443569  1
  Cu  Cu92  1  -0.01412331  -0.00283374  0.00017026  1
  Cu  Cu93  1  0.33044875  0.33718615  0.48729957  1
  Cu  Cu94  1  0.66075889  0.67584537  -0.00578752  1
  Cu  Cu95  1  0.00316238  0.33683674  0.48834874  1
  Cu  Cu96  1  0.49520813  0.50691104  0.74880134  1
  Cu  Cu97  1  0.33314156  -0.00260477  0.01045492  1
  Cu  Cu98  1  0.49570904  0.50266796  0.25378611  1
  Cu  Cu99  1  0.65361616  0.66626545  0.50180873  1
  Cu  Cu100  1  0.82636837  0.84179883  0.24823587  1
  Cu  Cu101  1  0.67021789  -0.00117482  0.49927854  1
  Cu  Cu102  1  0.83210762  0.50767678  0.75283500  1
  Cu  Cu103  1  0.34300715  -0.00817089  0.49409579  1
  Cu  Cu104  1  0.66487261  0.32779723  0.49509907  1
  Cu  Cu105  1  0.00503790  0.66650318  -0.00050895  1
  Cu  Cu106  1  0.66341543  -0.00177561  -0.00206695  1
  Cu  Cu107  1  0.00433636  0.00445148  0.49422310  1
  Cu  Cu108  1  0.34192338  0.66602394  0.00355452  1
  Cu  Cu109  1  0.83195642  0.16418470  0.74764233  1
  Cu  Cu110  1  0.17011969  0.83184057  0.74853627  1
  Cu  Cu111  1  0.33859838  0.34477455  0.00596480  1
  Cu  Cu112  1  0.82836436  0.15971968  0.24949776  1
  Cu  Cu113  1  0.00696030  0.32574022  0.00652766  1
  Cu  Cu114  1  0.83957343  0.49025495  0.25125631  1
  Se  Se115  1  0.07290228  0.06977718  0.06211161  1
  Se  Se116  1  0.08706011  0.08387143  0.55608810  1
  Se  Se117  1  0.08999007  0.41218401  0.05456053  1
  Se  Se118  1  0.08391636  0.42337848  0.54105703  1
  Se  Se119  1  0.07864474  0.73952638  0.06945121  1
  Se  Se120  1  0.08080613  0.75207271  0.54843243  1
  Se  Se121  1  0.40555370  0.08501937  0.06996387  1
  Se  Se122  1  0.42451728  0.08051970  0.54398158  1
  Se  Se123  1  0.42518798  0.42382701  0.05829499  1
  Se  Se124  1  0.41301280  0.41516180  0.54801788  1
  Se  Se125  1  0.41653367  0.75715827  0.05632209  1
  Se  Se126  1  0.41539244  0.74956491  0.55313552  1
  Se  Se127  1  0.74726846  0.08300078  0.04956251  1
  Se  Se128  1  0.75568746  0.08329055  0.55020585  1
  Se  Se129  1  0.74900452  0.41537834  0.06704209  1
  Se  Se130  1  0.73870895  0.41010797  0.56135321  1
  Se  Se131  1  0.74792320  0.75769659  0.04461701  1
  Se  Se132  1  0.73643573  0.74643399  0.55988733  1
  Se  Se133  1  0.25997190  0.25825926  0.06315971  1
  Se  Se134  1  0.25814100  0.25727646  0.55566063  1
  Se  Se135  1  0.25580027  0.58243459  0.05465469  1
  Se  Se136  1  0.24519359  0.58058113  0.55014516  1
  Se  Se137  1  0.25206321  0.92595660  0.07593147  1
  Se  Se138  1  0.25325279  0.91706907  0.54917678  1
  Se  Se139  1  0.58684398  0.25828790  0.07090241  1
  Se  Se140  1  0.58150633  0.24396409  0.54936660  1
  Se  Se141  1  0.58597304  0.58766113  0.05005162  1
  Se  Se142  1  0.57264813  0.57741211  0.55145780  1
  Se  Se143  1  0.57520452  0.92297138  0.05317264  1
  Se  Se144  1  0.59037099  0.91138064  0.55293090  1
  Se  Se145  1  0.91753079  0.24366768  0.05293681  1
  Se  Se146  1  0.92009232  0.25263791  0.54085403  1
  Se  Se147  1  0.92329397  0.58993057  0.06383927  1
  Se  Se148  1  0.91299767  0.59740676  0.56165635  1
  Se  Se149  1  0.90720298  0.90888378  0.05212220  1
  Se  Se150  1  0.92727204  0.92951849  0.56149091  1
  Se  Se151  1  0.08702678  0.26494702  0.42599586  1
  Se  Se152  1  0.07658401  0.24670438  0.93654566  1
  Se  Se153  1  0.06693080  0.59600335  0.44727390  1
  Se  Se154  1  0.09189855  0.57992177  0.95502730  1
  Se  Se155  1  0.08946516  0.91887167  0.44706901  1
  Se  Se156  1  0.08075448  0.91864304  0.94930729  1
  Se  Se157  1  0.41701735  0.24854733  0.44426853  1
  Se  Se158  1  0.40809846  0.25615249  0.94396119  1
  Se  Se159  1  0.41639695  0.57836635  0.44741085  1
  Se  Se160  1  0.42227924  0.58599367  0.94408291  1
  Se  Se161  1  0.42568212  0.90997274  0.43984995  1
  Se  Se162  1  0.41473013  0.91642743  0.95497475  1
  Se  Se163  1  0.75284834  0.24616647  0.44606421  1
  Se  Se164  1  0.74759176  0.24651004  0.95754736  1
  Se  Se165  1  0.73810971  0.59065395  0.44120227  1
  Se  Se166  1  0.74637492  0.58946220  0.93965762  1
  Se  Se167  1  0.75023968  0.92207193  0.43572981  1
  Se  Se168  1  0.74202729  0.91658412  0.93840017  1
  Se  Se169  1  0.26142056  0.07429431  0.43561747  1
  Se  Se170  1  0.24887343  0.07157862  0.94873113  1
  Se  Se171  1  0.24395077  0.41636274  0.43510852  1
  Se  Se172  1  0.25038229  0.42024390  0.94980613  1
  Se  Se173  1  0.25450308  0.75311231  0.44612478  1
  Se  Se174  1  0.25528869  0.74533325  0.94492764  1
  Se  Se175  1  0.58507998  0.07954019  0.44443740  1
  Se  Se176  1  0.58223740  0.08256508  0.93949238  1
  Se  Se177  1  0.58182803  0.41669280  0.44819511  1
  Se  Se178  1  0.58251068  0.41847985  0.95643615  1
  Se  Se179  1  0.57687525  0.75463588  0.44868778  1
  Se  Se180  1  0.58024653  0.75606234  0.93681637  1
  Se  Se181  1  0.92162848  0.09003944  0.44417397  1
  Se  Se182  1  0.90725138  0.08266299  0.94542346  1
  Se  Se183  1  0.91772539  0.41753333  0.43134231  1
  Se  Se184  1  0.92832219  0.40593236  0.94133582  1
  Se  Se185  1  0.92167415  0.75026256  0.44516340  1
  Se  Se186  1  0.92033966  0.75124403  0.95055779  1
  Se  Se187  1  0.23405437  0.22581467  0.30035364  1
  Se  Se188  1  0.23583888  0.23898429  0.80519906  1
  Se  Se189  1  0.24001723  0.58027214  0.30465434  1
  Se  Se190  1  0.25616553  0.58606624  0.80243064  1
  Se  Se191  1  0.25262698  0.91422610  0.30649222  1
  Se  Se192  1  0.24185360  0.91047926  0.81701994  1
  Se  Se193  1  0.58891037  0.25361522  0.30794430  1
  Se  Se194  1  0.57369098  0.23813033  0.80790669  1
  Se  Se195  1  0.57618575  0.58231850  0.31549793  1
  Se  Se196  1  0.58299652  0.58450810  0.80309561  1
  Se  Se197  1  0.58290931  0.91384476  0.29425596  1
  Se  Se198  1  0.57669716  0.91820908  0.79733161  1
  Se  Se199  1  0.91485934  0.24467097  0.29931554  1
  Se  Se200  1  0.91117825  0.24712307  0.80749799  1
  Se  Se201  1  0.91336252  0.57310018  0.31254267  1
  Se  Se202  1  0.91669282  0.58190565  0.81241787  1
  Se  Se203  1  0.91681924  0.91666682  0.30147347  1
  Se  Se204  1  0.93649259  0.93992205  0.80801138  1
  Se  Se205  1  0.06984489  0.06917483  0.29939844  1
  Se  Se206  1  0.08963506  0.09066976  0.79292189  1
  Se  Se207  1  0.07158104  0.40520955  0.29303596  1
  Se  Se208  1  0.09193411  0.42234170  0.80548303  1
  Se  Se209  1  0.08951865  0.75222158  0.31745953  1
  Se  Se210  1  0.09089570  0.75480214  0.81444093  1
  Se  Se211  1  0.42491680  0.08384384  0.30626227  1
  Se  Se212  1  0.41827103  0.08595156  0.81184385  1
  Se  Se213  1  0.41566527  0.41634003  0.30774295  1
  Se  Se214  1  0.42564451  0.42017882  0.81228156  1
  Se  Se215  1  0.41824937  0.74609685  0.29839513  1
  Se  Se216  1  0.41192260  0.75197371  0.79943198  1
  Se  Se217  1  0.74490877  0.07781585  0.30410737  1
  Se  Se218  1  0.74597223  0.08483071  0.80188261  1
  Se  Se219  1  0.74890220  0.41168055  0.30114559  1
  Se  Se220  1  0.75790370  0.42544152  0.81519482  1
  Se  Se221  1  0.75346478  0.75812565  0.31065634  1
  Se  Se222  1  0.75528706  0.75454208  0.79823961  1
  Se  Se223  1  0.25231151  0.08061656  0.21291363  1
  Se  Se224  1  0.24898597  0.08936312  0.69079314  1
  Se  Se225  1  0.26134207  0.41020703  0.19924466  1
  Se  Se226  1  0.24761967  0.42013374  0.68638988  1
  Se  Se227  1  0.25413357  0.74479872  0.20567177  1
  Se  Se228  1  0.24974623  0.74663221  0.69529290  1
  Se  Se229  1  0.58608930  0.08276741  0.19947607  1
  Se  Se230  1  0.58249861  0.07741846  0.69055991  1
  Se  Se231  1  0.58421320  0.42184563  0.20254409  1
  Se  Se232  1  0.57262125  0.41846736  0.69155390  1
  Se  Se233  1  0.57808290  0.75533065  0.18532951  1
  Se  Se234  1  0.59888468  0.72998553  0.69201131  1
  Se  Se235  1  0.91157363  0.07945404  0.19217208  1
  Se  Se236  1  0.91796829  0.08806311  0.69110362  1
  Se  Se237  1  0.92045187  0.40738023  0.19605491  1
  Se  Se238  1  0.90740353  0.42889587  0.68969056  1
  Se  Se239  1  0.90438930  0.75128465  0.19312404  1
  Se  Se240  1  0.91086929  0.76927050  0.69326247  1
  Se  Se241  1  0.10349443  0.22798515  0.19218244  1
  Se  Se242  1  0.09474292  0.24121536  0.68420416  1
  Se  Se243  1  0.09111014  0.57329409  0.19294784  1
  Se  Se244  1  0.08939571  0.57895234  0.68704777  1
  Se  Se245  1  0.07950134  0.90893512  0.20242803  1
  Se  Se246  1  0.08881109  0.91845170  0.69761141  1
  Se  Se247  1  0.41647520  0.25328170  0.20680525  1
  Se  Se248  1  0.42039023  0.24253387  0.68865904  1
  Se  Se249  1  0.41761132  0.58603936  0.19579605  1
  Se  Se250  1  0.41284015  0.58720960  0.69336625  1
  Se  Se251  1  0.39865084  0.93531598  0.20007243  1
  Se  Se252  1  0.42342890  0.90549672  0.68686820  1
  Se  Se253  1  0.74589439  0.24864259  0.19898454  1
  Se  Se254  1  0.75409389  0.24822032  0.68758965  1
  Se  Se255  1  0.75997023  0.57540280  0.19381735  1
  Se  Se256  1  0.74403930  0.58498003  0.70129846  1
  Se  Se257  1  0.74378638  0.91889224  0.19057191  1
  Se  Se258  1  0.75601389  0.91497508  0.70046466  1
