# generated using pymatgen
data_In86Cu29Se144
_symmetry_space_group_name_H-M   'P 1'
_cell_length_a   17.57729772
_cell_length_b   17.58138792
_cell_length_c   23.44690156
_cell_angle_alpha   89.97128278
_cell_angle_beta   90.01708167
_cell_angle_gamma   89.99634797
_symmetry_Int_Tables_number   1
_chemical_formula_structural   In86Cu29Se144
_chemical_formula_sum   'In86 Cu29 Se144'
_cell_volume   7245.87187525
_cell_formula_units_Z   1
loop_
 _symmetry_equiv_pos_site_id
 _symmetry_equiv_pos_as_xyz
  1  'x, y, z'
loop_
 _atom_site_type_symbol
 _atom_site_label
 _atom_site_symmetry_multiplicity
 _atom_site_fract_x
 _atom_site_fract_y
 _atom_site_fract_z
 _atom_site_occupancy
  In  In0  1  -0.00310238  0.16841930  0.12284102  1
  In  In1  1  -0.01245721  0.18261095  0.62358626  1
  In  In2  1  -0.01038941  0.51522728  0.14192940  1
  In  In3  1  0.00169234  0.47814416  0.61773988  1
  In  In4  1  -0.01716250  0.84649056  0.13760081  1
  In  In5  1  0.00024534  0.83445714  0.61624003  1
  In  In6  1  0.33758784  0.17658671  0.11447311  1
  In  In7  1  0.34541139  0.16764600  0.62915280  1
  In  In8  1  0.33168833  0.48868841  0.12044225  1
  In  In9  1  0.33418724  0.50145411  0.62596041  1
  In  In10  1  0.33589224  0.83086461  0.12699043  1
  In  In11  1  0.31148948  0.82100581  0.62273776  1
  In  In12  1  0.67263255  0.17034198  0.12181098  1
  In  In13  1  0.69210789  0.18038162  0.62267402  1
  In  In14  1  0.66672904  0.49734719  0.12453608  1
  In  In15  1  0.66409349  0.50119596  0.63055908  1
  In  In16  1  0.68216125  0.82337622  0.13210937  1
  In  In17  1  0.66565124  0.82998438  0.62121152  1
  In  In18  1  0.15033246  0.00491107  0.37626784  1
  In  In19  1  0.17572077  0.00860535  0.87419620  1
  In  In20  1  0.15467628  0.34544844  0.38233363  1
  In  In21  1  0.15295703  0.32476729  0.86547936  1
  In  In22  1  0.16099630  0.66590517  0.38148443  1
  In  In23  1  0.16447071  0.65624425  0.86850345  1
  In  In24  1  0.51185074  -0.00926537  0.37302238  1
  In  In25  1  0.51631159  0.01078068  0.88036986  1
  In  In26  1  0.51487304  0.33593974  0.37580429  1
  In  In27  1  0.50522466  0.33517537  0.87580517  1
  In  In28  1  0.50081382  0.65521362  0.37665148  1
  In  In29  1  0.49427314  0.65514734  0.86824865  1
  In  In30  1  0.82834050  -0.00363154  0.37496824  1
  In  In31  1  0.81960565  0.00421586  0.89419993  1
  In  In32  1  0.83047009  0.32696017  0.36910413  1
  In  In33  1  0.83687271  0.33299059  0.87489929  1
  In  In34  1  0.84465898  0.67495165  0.36955489  1
  In  In35  1  0.82041635  0.67580988  0.88102362  1
  In  In36  1  -0.01370247  0.15317389  0.36461704  1
  In  In37  1  -0.01541386  0.18293085  0.88757852  1
  In  In38  1  0.00540655  0.49859190  0.36559621  1
  In  In39  1  0.00112119  0.48807218  0.87482205  1
  In  In40  1  -0.00414540  0.83333084  0.37897554  1
  In  In41  1  -0.01211430  0.82609560  0.87732584  1
  In  In42  1  0.33177717  0.16475079  0.37660987  1
  In  In43  1  0.32783023  0.17816240  0.87789270  1
  In  In44  1  0.33180527  0.50130696  0.38680695  1
  In  In45  1  0.34096090  0.50398630  0.86740767  1
  In  In46  1  0.33384045  0.82176179  0.38220166  1
  In  In47  1  0.34160883  0.83026717  0.86699662  1
  In  In48  1  0.68008688  0.17548051  0.36782189  1
  In  In49  1  0.66344297  0.16953651  0.88588925  1
  In  In50  1  0.66163559  0.49270676  0.36994602  1
  In  In51  1  0.66903668  0.49753820  0.87621498  1
  In  In52  1  0.68695584  0.84754948  0.36081336  1
  In  In53  1  0.67794104  0.83920071  0.87552532  1
  In  In54  1  0.15088423  0.00213823  0.12961150  1
  In  In55  1  0.16862252  -0.01557600  0.61829978  1
  In  In56  1  0.16514144  0.32682455  0.12504273  1
  In  In57  1  0.15704420  0.34230760  0.62989560  1
  In  In58  1  0.14513204  0.65681298  0.12719110  1
  In  In59  1  0.17676536  0.67400267  0.61941363  1
  In  In60  1  0.50855810  0.02002374  0.11794329  1
  In  In61  1  0.50435761  0.00282738  0.62312899  1
  In  In62  1  0.50825436  0.34449271  0.11512946  1
  In  In63  1  0.49133809  0.34312098  0.63587037  1
  In  In64  1  0.51503923  0.66696382  0.12418443  1
  In  In65  1  0.51256407  0.65260650  0.63145398  1
  In  In66  1  0.82978667  0.00433223  0.12253533  1
  In  In67  1  0.83586881  0.00910365  0.61154921  1
  In  In68  1  0.83240088  0.33403062  0.12428664  1
  In  In69  1  0.84332848  0.32044419  0.64302902  1
  In  In70  1  0.83056222  0.66243771  0.12658286  1
  In  In71  1  0.81920261  0.66538599  0.62487257  1
  In  In72  1  0.32767766  0.33368276  0.24622348  1
  In  In73  1  -0.00291303  0.00366638  0.74385807  1
  In  In74  1  0.66885839  0.00603887  0.75521506  1
  In  In75  1  0.00368395  0.66216012  0.74673904  1
  In  In76  1  0.16436568  0.84025899  0.00059917  1
  In  In77  1  0.50425862  0.16642113  0.50100390  1
  In  In78  1  0.33602050  -0.00555928  0.74546700  1
  In  In79  1  0.33185634  0.66731600  0.25743668  1
  In  In80  1  0.16186447  0.16293260  0.50120300  1
  In  In81  1  0.50828235  0.83586569  -0.00376939  1
  In  In82  1  0.16406281  0.49560128  -0.00193069  1
  In  In83  1  0.83368475  0.50075366  0.49673606  1
  In  In84  1  0.33309252  -0.00043363  0.25459916  1
  In  In85  1  0.50195512  0.83058344  0.50104627  1
  Cu  Cu86  1  0.33275061  0.65989133  0.50278062  1
  Cu  Cu87  1  -0.00117400  0.00414420  0.00761994  1
  Cu  Cu88  1  0.33279527  0.01092511  -0.00180022  1
  Cu  Cu89  1  0.50186812  0.82002575  0.74567262  1
  Cu  Cu90  1  0.83974325  0.83024289  0.25072177  1
  Cu  Cu91  1  0.51418750  0.17047809  0.24706120  1
  Cu  Cu92  1  0.50481929  0.49547118  0.75201119  1
  Cu  Cu93  1  0.50313180  0.17272411  0.75462962  1
  Cu  Cu94  1  0.17415010  0.49821746  0.74638635  1
  Cu  Cu95  1  0.33464025  0.66216471  -0.00753332  1
  Cu  Cu96  1  0.83090844  0.83709998  0.75251062  1
  Cu  Cu97  1  -0.00508910  -0.00369615  0.49409100  1
  Cu  Cu98  1  0.83444813  0.16569375  0.24332896  1
  Cu  Cu99  1  0.83147368  0.50099103  0.75198705  1
  Cu  Cu100  1  0.16140794  0.16592792  0.24769760  1
  Cu  Cu101  1  0.51321429  0.83837889  0.24478253  1
  Cu  Cu102  1  0.00143246  0.66415654  0.49541075  1
  Cu  Cu103  1  0.33707390  0.33305966  -0.00632434  1
  Cu  Cu104  1  0.66654511  0.65547478  0.00143487  1
  Cu  Cu105  1  -0.01387004  0.67040521  0.00545363  1
  Cu  Cu106  1  0.82738420  0.49684740  0.24966716  1
  Cu  Cu107  1  0.16288684  0.16802005  0.74863485  1
  Cu  Cu108  1  0.66662156  0.34138957  0.49965137  1
  Cu  Cu109  1  0.67023483  0.33539466  -0.00054931  1
  Cu  Cu110  1  0.15712803  0.82616738  0.25571669  1
  Cu  Cu111  1  0.66692742  0.67025473  0.49992944  1
  Cu  Cu112  1  0.33430667  0.33793237  0.50803129  1
  Cu  Cu113  1  -0.00367195  0.33555777  0.00152354  1
  Cu  Cu114  1  0.50041051  0.49950233  0.24811410  1
  Se  Se115  1  0.08746690  0.08771576  0.05441217  1
  Se  Se116  1  0.06890857  0.07436935  0.56285506  1
  Se  Se117  1  0.07283714  0.41752419  0.06377120  1
  Se  Se118  1  0.08280161  0.40250698  0.54682293  1
  Se  Se119  1  0.07159865  0.75282016  0.06061253  1
  Se  Se120  1  0.08350311  0.74739511  0.55217703  1
  Se  Se121  1  0.42096089  0.09222373  0.04792750  1
  Se  Se122  1  0.40694349  0.07340529  0.55416004  1
  Se  Se123  1  0.41591724  0.41968524  0.04747662  1
  Se  Se124  1  0.42183693  0.42001659  0.55713530  1
  Se  Se125  1  0.41187951  0.74392876  0.05422590  1
  Se  Se126  1  0.41623058  0.73881355  0.56329273  1
  Se  Se127  1  0.75479481  0.08989689  0.05210202  1
  Se  Se128  1  0.73914535  0.08291703  0.55058430  1
  Se  Se129  1  0.75177429  0.41899310  0.05451103  1
  Se  Se130  1  0.75053165  0.41370634  0.56310068  1
  Se  Se131  1  0.74788874  0.74187802  0.05399477  1
  Se  Se132  1  0.75192680  0.75282337  0.55116872  1
  Se  Se133  1  0.24905626  0.25758399  0.04985527  1
  Se  Se134  1  0.25592805  0.25002213  0.56197681  1
  Se  Se135  1  0.25101230  0.59309941  0.05804588  1
  Se  Se136  1  0.24720163  0.57663699  0.55436794  1
  Se  Se137  1  0.25922241  0.92844745  0.06143238  1
  Se  Se138  1  0.25454474  0.91270319  0.54901360  1
  Se  Se139  1  0.58530611  0.25131289  0.05221261  1
  Se  Se140  1  0.58639911  0.26095638  0.56269419  1
  Se  Se141  1  0.57853007  0.57594030  0.05288696  1
  Se  Se142  1  0.59016023  0.58183859  0.55356930  1
  Se  Se143  1  0.59156966  0.91501513  0.06571660  1
  Se  Se144  1  0.59415383  0.92902353  0.55264847  1
  Se  Se145  1  0.91358718  0.25019221  0.05376586  1
  Se  Se146  1  0.90125542  0.25539809  0.55459571  1
  Se  Se147  1  0.91493471  0.57728900  0.05847277  1
  Se  Se148  1  0.92336586  0.58916925  0.56212046  1
  Se  Se149  1  0.91523777  0.91617517  0.05552816  1
  Se  Se150  1  0.91261751  0.91337636  0.54990851  1
  Se  Se151  1  0.07151063  0.24270630  0.43698256  1
  Se  Se152  1  0.08554943  0.25531330  0.94923062  1
  Se  Se153  1  0.07975969  0.57477056  0.44492077  1
  Se  Se154  1  0.07070136  0.59432466  0.94460392  1
  Se  Se155  1  0.08469332  0.91387348  0.44746399  1
  Se  Se156  1  0.07358326  0.92792403  0.93857688  1
  Se  Se157  1  0.41029728  0.26013039  0.44224656  1
  Se  Se158  1  0.42308081  0.24797180  0.94423324  1
  Se  Se159  1  0.42186662  0.58085986  0.45146625  1
  Se  Se160  1  0.41922642  0.57739437  0.94470479  1
  Se  Se161  1  0.41231125  0.92430933  0.44119164  1
  Se  Se162  1  0.40962798  0.92654355  0.93903826  1
  Se  Se163  1  0.74761064  0.25661230  0.44600032  1
  Se  Se164  1  0.75525825  0.25279412  0.94709893  1
  Se  Se165  1  0.74476132  0.59099662  0.43594418  1
  Se  Se166  1  0.75421740  0.57770484  0.94714252  1
  Se  Se167  1  0.75146090  0.91030796  0.44548703  1
  Se  Se168  1  0.74624170  0.90819778  0.95590843  1
  Se  Se169  1  0.25569508  0.07240624  0.44277521  1
  Se  Se170  1  0.24648707  0.09244636  0.94678672  1
  Se  Se171  1  0.24851377  0.41375369  0.45070958  1
  Se  Se172  1  0.25226358  0.41095363  0.93346301  1
  Se  Se173  1  0.24952488  0.74419769  0.45026985  1
  Se  Se174  1  0.25228444  0.74631057  0.93872049  1
  Se  Se175  1  0.59321103  0.08345506  0.43684028  1
  Se  Se176  1  0.60266198  0.06996666  0.95482599  1
  Se  Se177  1  0.58112714  0.42426819  0.44921819  1
  Se  Se178  1  0.58434498  0.41830166  0.94689895  1
  Se  Se179  1  0.59060215  0.74898940  0.43502535  1
  Se  Se180  1  0.58980200  0.73783038  0.93724718  1
  Se  Se181  1  0.91186442  0.08238694  0.44386982  1
  Se  Se182  1  0.91514653  0.08599765  0.95271884  1
  Se  Se183  1  0.92044055  0.41167418  0.43633159  1
  Se  Se184  1  0.91509936  0.41989235  0.94746180  1
  Se  Se185  1  0.91403983  0.74945605  0.44943040  1
  Se  Se186  1  0.90622421  0.75534106  0.95112733  1
  Se  Se187  1  0.24084883  0.24336698  0.31002257  1
  Se  Se188  1  0.24912361  0.24984815  0.80100818  1
  Se  Se189  1  0.24393892  0.57298457  0.31210547  1
  Se  Se190  1  0.25301444  0.58450732  0.79988084  1
  Se  Se191  1  0.24411215  0.90562448  0.31235409  1
  Se  Se192  1  0.24053660  0.90877532  0.80517417  1
  Se  Se193  1  0.59008436  0.25751715  0.30225529  1
  Se  Se194  1  0.58993833  0.24882313  0.80966333  1
  Se  Se195  1  0.58249804  0.58302844  0.30216894  1
  Se  Se196  1  0.58837910  0.58065611  0.80409662  1
  Se  Se197  1  0.59349798  0.92562360  0.29606629  1
  Se  Se198  1  0.57302880  0.90803988  0.80698224  1
  Se  Se199  1  0.91625114  0.24949971  0.29857906  1
  Se  Se200  1  0.92817638  0.25975327  0.80564769  1
  Se  Se201  1  0.91325560  0.57920366  0.30270930  1
  Se  Se202  1  0.91145122  0.58292381  0.81272765  1
  Se  Se203  1  0.91743125  0.91619025  0.30733262  1
  Se  Se204  1  0.90615408  0.92039616  0.81238881  1
  Se  Se205  1  0.07969872  0.07760025  0.29736920  1
  Se  Se206  1  0.08338409  0.09043015  0.80991694  1
  Se  Se207  1  0.08172464  0.40596894  0.30008951  1
  Se  Se208  1  0.08368386  0.42081398  0.79853744  1
  Se  Se209  1  0.07721432  0.74459021  0.31126498  1
  Se  Se210  1  0.08634434  0.75895569  0.80841530  1
  Se  Se211  1  0.43031439  0.09385415  0.30773883  1
  Se  Se212  1  0.42311638  0.08490227  0.80968992  1
  Se  Se213  1  0.41854799  0.42157808  0.30952115  1
  Se  Se214  1  0.41935185  0.41198813  0.80383829  1
  Se  Se215  1  0.43104116  0.76172361  0.30688536  1
  Se  Se216  1  0.41456999  0.74193665  0.79902662  1
  Se  Se217  1  0.75388105  0.08311024  0.30137616  1
  Se  Se218  1  0.76042184  0.09239061  0.81417378  1
  Se  Se219  1  0.74568971  0.41156143  0.30250097  1
  Se  Se220  1  0.75150395  0.41566604  0.80644747  1
  Se  Se221  1  0.75206945  0.74404904  0.29911015  1
  Se  Se222  1  0.74704724  0.75157815  0.80254139  1
  Se  Se223  1  0.25105858  0.09231374  0.18893162  1
  Se  Se224  1  0.23980870  0.08579374  0.68804706  1
  Se  Se225  1  0.23574671  0.42905620  0.19332921  1
  Se  Se226  1  0.25534288  0.41161905  0.69420935  1
  Se  Se227  1  0.23990838  0.75401590  0.19179177  1
  Se  Se228  1  0.24608802  0.74417019  0.70117823  1
  Se  Se229  1  0.59246373  0.08400363  0.19395799  1
  Se  Se230  1  0.58053146  0.09451612  0.69106055  1
  Se  Se231  1  0.58211862  0.41455267  0.19496839  1
  Se  Se232  1  0.58977173  0.41188634  0.70037756  1
  Se  Se233  1  0.59007772  0.74435998  0.19800749  1
  Se  Se234  1  0.59377962  0.74566719  0.69412088  1
  Se  Se235  1  0.91896751  0.08110293  0.19189200  1
  Se  Se236  1  0.90105266  0.09403961  0.69254932  1
  Se  Se237  1  0.91327980  0.41368005  0.19801201  1
  Se  Se238  1  0.91998136  0.42215501  0.69984163  1
  Se  Se239  1  0.91823688  0.74093378  0.19737213  1
  Se  Se240  1  0.91014920  0.75726228  0.69131345  1
  Se  Se241  1  0.08000430  0.25031530  0.19451905  1
  Se  Se242  1  0.07879434  0.24997240  0.69471892  1
  Se  Se243  1  0.08521739  0.58363593  0.20860161  1
  Se  Se244  1  0.08926956  0.57311604  0.68380622  1
  Se  Se245  1  0.08180390  0.91632390  0.20203154  1
  Se  Se246  1  0.08817071  0.90519974  0.69380975  1
  Se  Se247  1  0.42639087  0.24766392  0.19019946  1
  Se  Se248  1  0.41430145  0.25131745  0.70283029  1
  Se  Se249  1  0.41680296  0.57890372  0.18940052  1
  Se  Se250  1  0.42006868  0.57868283  0.69766758  1
  Se  Se251  1  0.42701152  0.91681239  0.18884383  1
  Se  Se252  1  0.42575052  0.90328745  0.68473267  1
  Se  Se253  1  0.74935040  0.25276727  0.19485361  1
  Se  Se254  1  0.74082461  0.25872457  0.70674257  1
  Se  Se255  1  0.74530928  0.58157800  0.19549653  1
  Se  Se256  1  0.74802146  0.58479127  0.69966437  1
  Se  Se257  1  0.75793736  0.91600928  0.19685133  1
  Se  Se258  1  0.75547811  0.91856957  0.68891711  1
