# generated using pymatgen
data_In86Cu29Se144
_symmetry_space_group_name_H-M   'P 1'
_cell_length_a   17.56826405
_cell_length_b   17.56752371
_cell_length_c   23.41480140
_cell_angle_alpha   90.02672938
_cell_angle_beta   90.01900727
_cell_angle_gamma   89.99895519
_symmetry_Int_Tables_number   1
_chemical_formula_structural   In86Cu29Se144
_chemical_formula_sum   'In86 Cu29 Se144'
_cell_volume   7226.52993420
_cell_formula_units_Z   1
loop_
 _symmetry_equiv_pos_site_id
 _symmetry_equiv_pos_as_xyz
  1  'x, y, z'
loop_
 _atom_site_type_symbol
 _atom_site_label
 _atom_site_symmetry_multiplicity
 _atom_site_fract_x
 _atom_site_fract_y
 _atom_site_fract_z
 _atom_site_occupancy
  In  In0  1  0.00679987  0.14640434  0.11442917  1
  In  In1  1  0.00144716  0.16787962  0.62782822  1
  In  In2  1  0.00358746  0.50199526  0.12735767  1
  In  In3  1  -0.00811861  0.49766282  0.61554830  1
  In  In4  1  -0.01839482  0.83459740  0.12808936  1
  In  In5  1  -0.00251973  0.83253204  0.61651484  1
  In  In6  1  0.33544580  0.17537629  0.12417560  1
  In  In7  1  0.33022949  0.18420984  0.62075457  1
  In  In8  1  0.31201328  0.50016658  0.13258212  1
  In  In9  1  0.33918653  0.49756826  0.60335668  1
  In  In10  1  0.33622503  0.83173170  0.13217705  1
  In  In11  1  0.33012140  0.81968537  0.60752327  1
  In  In12  1  0.65469294  0.16861592  0.12154656  1
  In  In13  1  0.67404821  0.15210759  0.64133917  1
  In  In14  1  0.67753429  0.50260528  0.12477974  1
  In  In15  1  0.66726969  0.50221021  0.62097737  1
  In  In16  1  0.67688552  0.82933520  0.13464906  1
  In  In17  1  0.67473123  0.83371542  0.61722774  1
  In  In18  1  0.16695528  -0.00312901  0.38117026  1
  In  In19  1  0.16839736  0.01525652  0.87233399  1
  In  In20  1  0.17590792  0.33196575  0.38485200  1
  In  In21  1  0.16072967  0.33640380  0.87589589  1
  In  In22  1  0.16013713  0.66921693  0.39041796  1
  In  In23  1  0.14788402  0.65741503  0.87341588  1
  In  In24  1  0.50297851  -0.01486130  0.37706680  1
  In  In25  1  0.52136661  0.00974676  0.87078264  1
  In  In26  1  0.49729463  0.34733607  0.37762980  1
  In  In27  1  0.49910804  0.32117455  0.86972839  1
  In  In28  1  0.51584694  0.65585283  0.39277489  1
  In  In29  1  0.51292561  0.65670131  0.87116153  1
  In  In30  1  0.83033372  0.00296539  0.37903211  1
  In  In31  1  0.82627574  -0.00753954  0.86913627  1
  In  In32  1  0.83367120  0.33585067  0.38742811  1
  In  In33  1  0.84204429  0.34123004  0.86607239  1
  In  In34  1  0.83233705  0.66837543  0.38570286  1
  In  In35  1  0.82997038  0.67670209  0.87868454  1
  In  In36  1  0.00142745  0.16628942  0.38269369  1
  In  In37  1  0.00410014  0.17248040  0.86576047  1
  In  In38  1  -0.01558406  0.51883417  0.39570263  1
  In  In39  1  0.00512686  0.49266173  0.87842277  1
  In  In40  1  0.01074607  0.81321646  0.39478515  1
  In  In41  1  -0.02054767  0.82546933  0.87059569  1
  In  In42  1  0.31758858  0.16816521  0.37673814  1
  In  In43  1  0.33064752  0.17364284  0.88256601  1
  In  In44  1  0.34346464  0.49158397  0.39127736  1
  In  In45  1  0.32440638  0.48348409  0.87287918  1
  In  In46  1  0.34687506  0.80961135  0.40104774  1
  In  In47  1  0.33602201  0.83354731  0.87106662  1
  In  In48  1  0.68014465  0.16629375  0.37752707  1
  In  In49  1  0.65603140  0.15808641  0.86115415  1
  In  In50  1  0.66322948  0.51232524  0.39484017  1
  In  In51  1  0.67992647  0.51423756  0.86098551  1
  In  In52  1  0.67073262  0.83231080  0.38304967  1
  In  In53  1  0.68679531  0.84952254  0.85868128  1
  In  In54  1  0.14952016  0.00670583  0.12027701  1
  In  In55  1  0.15149170  -0.00911117  0.62071897  1
  In  In56  1  0.16799233  0.33965653  0.12551094  1
  In  In57  1  0.16952398  0.32418733  0.61514134  1
  In  In58  1  0.16312457  0.64850345  0.13209404  1
  In  In59  1  0.15370220  0.65406242  0.59654038  1
  In  In60  1  0.49998150  0.01396392  0.12566165  1
  In  In61  1  0.51578811  -0.00064402  0.63246354  1
  In  In62  1  0.49988653  0.32203928  0.12778877  1
  In  In63  1  0.49981828  0.34395833  0.62708220  1
  In  In64  1  0.50753735  0.68112605  0.12845165  1
  In  In65  1  0.52825231  0.68513242  0.59123629  1
  In  In66  1  0.83600804  -0.02083408  0.11833210  1
  In  In67  1  0.83298156  0.00326779  0.62821925  1
  In  In68  1  0.81881371  0.34120460  0.11988545  1
  In  In69  1  0.83921363  0.33234813  0.62849198  1
  In  In70  1  0.83259311  0.66666503  0.12990950  1
  In  In71  1  0.81106689  0.64352486  0.58950690  1
  In  In72  1  0.34013175  0.33828527  0.73991605  1
  In  In73  1  0.49703068  0.49322827  -0.00045051  1
  In  In74  1  0.66149646  0.34290372  0.25443483  1
  In  In75  1  -0.00454188  -0.00977393  0.24883896  1
  In  In76  1  0.33855597  0.00124795  0.74631027  1
  In  In77  1  0.33630649  0.66259078  0.72800929  1
  In  In78  1  0.83261985  0.16780138  -0.00550156  1
  In  In79  1  0.50142245  0.16752656  0.51051229  1
  In  In80  1  -0.01484402  0.66692824  0.73374723  1
  In  In81  1  0.15982899  0.83432897  0.00392819  1
  In  In82  1  0.33654761  0.65864444  0.26697036  1
  In  In83  1  -0.00006778  0.33781439  0.25362794  1
  In  In84  1  0.50447711  0.83875307  0.00243008  1
  In  In85  1  0.33401656  -0.00632322  0.25476029  1
  Cu  Cu86  1  0.83830293  0.16922809  0.75048667  1
  Cu  Cu87  1  0.16808652  0.17094899  0.25068975  1
  Cu  Cu88  1  -0.00826653  0.01071077  0.50487217  1
  Cu  Cu89  1  0.66666171  0.33688475  -0.00831611  1
  Cu  Cu90  1  0.67417434  0.67338628  -0.00063345  1
  Cu  Cu91  1  0.16798929  0.50119202  0.74867537  1
  Cu  Cu92  1  0.33691208  0.00941838  0.00115085  1
  Cu  Cu93  1  0.83390414  0.82465382  0.25844782  1
  Cu  Cu94  1  0.49775741  0.50908044  0.25982890  1
  Cu  Cu95  1  0.52148297  0.82768095  0.25810614  1
  Cu  Cu96  1  0.67410370  0.33128106  0.50556459  1
  Cu  Cu97  1  -0.00618825  0.65915180  0.00035837  1
  Cu  Cu98  1  0.82692001  0.83091133  0.74115907  1
  Cu  Cu99  1  0.83237782  0.51121894  0.25828689  1
  Cu  Cu100  1  0.32941634  0.00201933  0.50172270  1
  Cu  Cu101  1  0.32176568  0.65773342  -0.00128317  1
  Cu  Cu102  1  0.82903196  0.16239119  0.25239669  1
  Cu  Cu103  1  0.49837853  0.16612662  0.24887238  1
  Cu  Cu104  1  0.00296340  0.32892195  0.50357325  1
  Cu  Cu105  1  0.83528606  0.50538000  0.74082083  1
  Cu  Cu106  1  0.16541855  0.82436587  0.26416066  1
  Cu  Cu107  1  0.15780291  0.49549846  0.25820893  1
  Cu  Cu108  1  0.15694755  0.83540779  0.73821764  1
  Cu  Cu109  1  0.51104620  0.51119866  0.73856865  1
  Cu  Cu110  1  0.66894167  0.00037614  0.50585160  1
  Cu  Cu111  1  0.32283049  0.33285706  0.00054750  1
  Cu  Cu112  1  0.16490131  0.16873321  0.74509079  1
  Cu  Cu113  1  0.50503113  0.82182798  0.73910580  1
  Cu  Cu114  1  -0.00113924  0.33204834  -0.00382370  1
  Se  Se115  1  0.08527671  0.07759811  0.03762831  1
  Se  Se116  1  0.08394966  0.08868139  0.55498386  1
  Se  Se117  1  0.07809358  0.41418187  0.05718488  1
  Se  Se118  1  0.08542739  0.41602881  0.55407797  1
  Se  Se119  1  0.07488472  0.73862197  0.06498647  1
  Se  Se120  1  0.08547666  0.76242421  0.54446227  1
  Se  Se121  1  0.41936872  0.09291143  0.05539089  1
  Se  Se122  1  0.40980438  0.07290003  0.56717744  1
  Se  Se123  1  0.40268612  0.41185837  0.06427925  1
  Se  Se124  1  0.41290902  0.39378939  0.54763505  1
  Se  Se125  1  0.40466761  0.74075713  0.05515545  1
  Se  Se126  1  0.40890280  0.73695301  0.53858528  1
  Se  Se127  1  0.74862979  0.08041449  0.06168074  1
  Se  Se128  1  0.74854315  0.08737469  0.55893696  1
  Se  Se129  1  0.74505987  0.42257961  0.04648569  1
  Se  Se130  1  0.75760399  0.41567991  0.55841069  1
  Se  Se131  1  0.75403465  0.75295129  0.05861007  1
  Se  Se132  1  0.73843182  0.74997455  0.53865421  1
  Se  Se133  1  0.24275827  0.24866498  0.05756612  1
  Se  Se134  1  0.25739995  0.25448502  0.54313098  1
  Se  Se135  1  0.24089259  0.57720817  0.05440713  1
  Se  Se136  1  0.26477347  0.59378327  0.54088297  1
  Se  Se137  1  0.26014705  0.92368769  0.06104338  1
  Se  Se138  1  0.24546093  0.91824542  0.55403627  1
  Se  Se139  1  0.58493476  0.25883077  0.05061834  1
  Se  Se140  1  0.59703780  0.25240241  0.56829511  1
  Se  Se141  1  0.58648431  0.59285705  0.05561441  1
  Se  Se142  1  0.57838250  0.56378508  0.54421939  1
  Se  Se143  1  0.59256714  0.92315794  0.06592162  1
  Se  Se144  1  0.58045405  0.91813176  0.55474479  1
  Se  Se145  1  0.92154072  0.25603326  0.06290160  1
  Se  Se146  1  0.91740215  0.24730684  0.55737132  1
  Se  Se147  1  0.91313476  0.57967863  0.06126151  1
  Se  Se148  1  0.94480055  0.60927017  0.55280648  1
  Se  Se149  1  0.94469619  0.93402332  0.05311738  1
  Se  Se150  1  0.91091688  0.92229012  0.55504658  1
  Se  Se151  1  0.08652484  0.24749922  0.44823325  1
  Se  Se152  1  0.08068467  0.24872793  0.94259075  1
  Se  Se153  1  0.09380047  0.57235629  0.45691825  1
  Se  Se154  1  0.08219511  0.57778558  0.95104468  1
  Se  Se155  1  0.07258323  0.92812727  0.44790761  1
  Se  Se156  1  0.08308473  0.91171396  0.92815288  1
  Se  Se157  1  0.41744339  0.24707220  0.43907812  1
  Se  Se158  1  0.41546601  0.25815439  0.94826371  1
  Se  Se159  1  0.39840858  0.60514759  0.44827794  1
  Se  Se160  1  0.40758686  0.58562149  0.93708000  1
  Se  Se161  1  0.41819093  0.91978692  0.45226953  1
  Se  Se162  1  0.41292011  0.92682268  0.93912432  1
  Se  Se163  1  0.75404131  0.24518878  0.45218275  1
  Se  Se164  1  0.74641038  0.25669566  0.93148261  1
  Se  Se165  1  0.76575271  0.57365913  0.45740696  1
  Se  Se166  1  0.74984740  0.58505932  0.94356208  1
  Se  Se167  1  0.75263218  0.91977656  0.45046837  1
  Se  Se168  1  0.75012121  0.91362400  0.94391278  1
  Se  Se169  1  0.24555705  0.08412030  0.44930280  1
  Se  Se170  1  0.24804809  0.08767180  0.94871293  1
  Se  Se171  1  0.25246483  0.41480895  0.45496660  1
  Se  Se172  1  0.24090418  0.41857375  0.94851666  1
  Se  Se173  1  0.22275427  0.77586561  0.45161248  1
  Se  Se174  1  0.24825026  0.74288755  0.93725049  1
  Se  Se175  1  0.58794981  0.07990908  0.44414403  1
  Se  Se176  1  0.59106805  0.08907163  0.94572945  1
  Se  Se177  1  0.58647251  0.41022178  0.45136577  1
  Se  Se178  1  0.58774588  0.41933897  0.93057449  1
  Se  Se179  1  0.58018245  0.76011136  0.45286192  1
  Se  Se180  1  0.58990790  0.74940119  0.93806264  1
  Se  Se181  1  0.90922821  0.09086986  0.44714040  1
  Se  Se182  1  0.92006004  0.08061593  0.93198314  1
  Se  Se183  1  0.91541768  0.41561368  0.45658892  1
  Se  Se184  1  0.91419390  0.41613661  0.94576431  1
  Se  Se185  1  0.90335143  0.75941037  0.45658105  1
  Se  Se186  1  0.91454957  0.75031343  0.95238618  1
  Se  Se187  1  0.24826876  0.25527356  0.30391293  1
  Se  Se188  1  0.24882540  0.24968797  0.80354927  1
  Se  Se189  1  0.24035979  0.57186175  0.32094184  1
  Se  Se190  1  0.25007479  0.58367919  0.80453203  1
  Se  Se191  1  0.25283616  0.90163567  0.31939369  1
  Se  Se192  1  0.24219480  0.90800040  0.80139912  1
  Se  Se193  1  0.57704391  0.24508044  0.31359086  1
  Se  Se194  1  0.58994978  0.25974185  0.79850120  1
  Se  Se195  1  0.58785430  0.58177137  0.31353838  1
  Se  Se196  1  0.59379031  0.59462929  0.79222597  1
  Se  Se197  1  0.59709786  0.92004301  0.30790661  1
  Se  Se198  1  0.57492433  0.90850065  0.80062675  1
  Se  Se199  1  0.90718722  0.24406863  0.31053370  1
  Se  Se200  1  0.92333671  0.25684967  0.79776417  1
  Se  Se201  1  0.91811641  0.58962792  0.31255837  1
  Se  Se202  1  0.91415578  0.58022828  0.80963702  1
  Se  Se203  1  0.91737902  0.90492232  0.31816610  1
  Se  Se204  1  0.91059915  0.91112502  0.79744301  1
  Se  Se205  1  0.08664376  0.08639377  0.30686412  1
  Se  Se206  1  0.08370854  0.08257500  0.79763325  1
  Se  Se207  1  0.07822895  0.42158867  0.32394246  1
  Se  Se208  1  0.08582024  0.41907222  0.80249384  1
  Se  Se209  1  0.07922061  0.74067583  0.31218418  1
  Se  Se210  1  0.08139282  0.75099237  0.79999131  1
  Se  Se211  1  0.42210256  0.08795960  0.31439546  1
  Se  Se212  1  0.41823816  0.09230368  0.81173877  1
  Se  Se213  1  0.41247968  0.42202265  0.30633517  1
  Se  Se214  1  0.42946512  0.43227032  0.80167619  1
  Se  Se215  1  0.43194619  0.75317668  0.31635584  1
  Se  Se216  1  0.42084373  0.74691003  0.80135066  1
  Se  Se217  1  0.74662757  0.07782746  0.30377513  1
  Se  Se218  1  0.75353197  0.08266879  0.79969029  1
  Se  Se219  1  0.75346076  0.42569679  0.31666927  1
  Se  Se220  1  0.75520551  0.42025384  0.79715813  1
  Se  Se221  1  0.74834494  0.74490114  0.31289247  1
  Se  Se222  1  0.75141207  0.74295507  0.79861847  1
  Se  Se223  1  0.24247079  0.08180474  0.19223423  1
  Se  Se224  1  0.24591355  0.08867917  0.68515312  1
  Se  Se225  1  0.24227144  0.41301218  0.20505789  1
  Se  Se226  1  0.24878229  0.42968444  0.68293374  1
  Se  Se227  1  0.24801675  0.74802849  0.20008751  1
  Se  Se228  1  0.23299261  0.74973139  0.67903832  1
  Se  Se229  1  0.58580205  0.08624947  0.19844420  1
  Se  Se230  1  0.57998147  0.08146680  0.70834652  1
  Se  Se231  1  0.57125435  0.43059463  0.19071009  1
  Se  Se232  1  0.59167982  0.41692209  0.69467664  1
  Se  Se233  1  0.59737946  0.74076485  0.20287265  1
  Se  Se234  1  0.58781036  0.74420410  0.68205167  1
  Se  Se235  1  0.90975647  0.08694484  0.18884678  1
  Se  Se236  1  0.91965665  0.08351777  0.69649990  1
  Se  Se237  1  0.90098385  0.42214716  0.19559434  1
  Se  Se238  1  0.92364688  0.42089558  0.69482893  1
  Se  Se239  1  0.91806323  0.74578571  0.20173525  1
  Se  Se240  1  0.89298729  0.74998076  0.67347102  1
  Se  Se241  1  0.07965343  0.23983748  0.18979924  1
  Se  Se242  1  0.08725911  0.25740184  0.69241761  1
  Se  Se243  1  0.07628715  0.58013442  0.20542823  1
  Se  Se244  1  0.09200285  0.58163975  0.68607536  1
  Se  Se245  1  0.09597011  0.90253392  0.19358185  1
  Se  Se246  1  0.06679437  0.91800674  0.69380635  1
  Se  Se247  1  0.41302680  0.25150937  0.20039858  1
  Se  Se248  1  0.43181567  0.23763042  0.69372490  1
  Se  Se249  1  0.42061331  0.58202357  0.18941008  1
  Se  Se250  1  0.43219188  0.57935559  0.67107318  1
  Se  Se251  1  0.43434866  0.90508290  0.19831918  1
  Se  Se252  1  0.41656291  0.89964992  0.68408223  1
  Se  Se253  1  0.75135236  0.24845024  0.19462654  1
  Se  Se254  1  0.75387062  0.25200678  0.69818765  1
  Se  Se255  1  0.74580518  0.58577698  0.19982018  1
  Se  Se256  1  0.75642673  0.58867700  0.68408101  1
  Se  Se257  1  0.76153896  0.91458099  0.20117871  1
  Se  Se258  1  0.74276267  0.91986271  0.69313920  1
