# generated using pymatgen
data_In86Cu29Se144
_symmetry_space_group_name_H-M   'P 1'
_cell_length_a   17.58278344
_cell_length_b   17.58542405
_cell_length_c   23.43814010
_cell_angle_alpha   90.01262618
_cell_angle_beta   89.99860898
_cell_angle_gamma   90.02928089
_symmetry_Int_Tables_number   1
_chemical_formula_structural   In86Cu29Se144
_chemical_formula_sum   'In86 Cu29 Se144'
_cell_volume   7247.08826729
_cell_formula_units_Z   1
loop_
 _symmetry_equiv_pos_site_id
 _symmetry_equiv_pos_as_xyz
  1  'x, y, z'
loop_
 _atom_site_type_symbol
 _atom_site_label
 _atom_site_symmetry_multiplicity
 _atom_site_fract_x
 _atom_site_fract_y
 _atom_site_fract_z
 _atom_site_occupancy
  In  In0  1  0.00001701  0.16745862  0.12371725  1
  In  In1  1  0.00604035  0.18091826  0.60987206  1
  In  In2  1  0.00728619  0.50285612  0.14313499  1
  In  In3  1  0.00016659  0.47729459  0.61761615  1
  In  In4  1  -0.00184205  0.83292580  0.13152016  1
  In  In5  1  -0.01280402  0.84446267  0.61911188  1
  In  In6  1  0.32737684  0.17560940  0.11387367  1
  In  In7  1  0.34142244  0.17523113  0.62813416  1
  In  In8  1  0.34514515  0.49519682  0.12048655  1
  In  In9  1  0.32380120  0.50464670  0.62917493  1
  In  In10  1  0.33040001  0.82800087  0.11623213  1
  In  In11  1  0.32636282  0.81792198  0.63168210  1
  In  In12  1  0.66730661  0.15479868  0.11063532  1
  In  In13  1  0.66020383  0.15637403  0.61788571  1
  In  In14  1  0.66263645  0.51116520  0.12249893  1
  In  In15  1  0.66843125  0.51749511  0.62625426  1
  In  In16  1  0.66029842  0.83125448  0.11119567  1
  In  In17  1  0.67313350  0.82996148  0.63023628  1
  In  In18  1  0.15750771  0.01550654  0.37593935  1
  In  In19  1  0.16245319  0.00214826  0.88534000  1
  In  In20  1  0.15134446  0.34591456  0.39348108  1
  In  In21  1  0.16022660  0.32662384  0.86636871  1
  In  In22  1  0.15046869  0.64643638  0.35588716  1
  In  In23  1  0.17689711  0.66049052  0.87950843  1
  In  In24  1  0.50929861  0.00549711  0.37604486  1
  In  In25  1  0.51931788  -0.01283656  0.89046140  1
  In  In26  1  0.49170639  0.32418255  0.37554571  1
  In  In27  1  0.48518054  0.34367363  0.88952409  1
  In  In28  1  0.50186191  0.67084442  0.36340397  1
  In  In29  1  0.50051991  0.66658419  0.87338541  1
  In  In30  1  0.84360089  -0.01130113  0.37892049  1
  In  In31  1  0.81709321  0.00866174  0.89096132  1
  In  In32  1  0.83824987  0.31481244  0.37821938  1
  In  In33  1  0.83509188  0.31821191  0.87083716  1
  In  In34  1  0.83400445  0.66991742  0.37056759  1
  In  In35  1  0.83054040  0.68566110  0.87885870  1
  In  In36  1  0.00226149  0.16868551  0.36903084  1
  In  In37  1  -0.00641530  0.16865084  0.87607624  1
  In  In38  1  0.00804333  0.49755495  0.36994849  1
  In  In39  1  0.01315330  0.49584789  0.87437347  1
  In  In40  1  -0.02538424  0.82532150  0.35867615  1
  In  In41  1  -0.01223112  0.84387561  0.89308677  1
  In  In42  1  0.32706551  0.17054218  0.38282771  1
  In  In43  1  0.32951364  0.17611659  0.88174953  1
  In  In44  1  0.31493330  0.49583017  0.36924915  1
  In  In45  1  0.33643566  0.50714275  0.86819364  1
  In  In46  1  0.33628004  0.81979021  0.36926289  1
  In  In47  1  0.34431499  0.82391600  0.88360716  1
  In  In48  1  0.68274702  0.13508187  0.40376335  1
  In  In49  1  0.67249327  0.15713240  0.88151854  1
  In  In50  1  0.66191972  0.51099221  0.37365394  1
  In  In51  1  0.65124478  0.50093865  0.87331104  1
  In  In52  1  0.69120855  0.82920296  0.37777471  1
  In  In53  1  0.66800042  0.83333611  0.87378083  1
  In  In54  1  0.15834695  -0.00414308  0.12007825  1
  In  In55  1  0.15206948  -0.00083151  0.62345455  1
  In  In56  1  0.16858717  0.32728597  0.12580825  1
  In  In57  1  0.16748650  0.33389972  0.62319604  1
  In  In58  1  0.15701219  0.67601471  0.14039716  1
  In  In59  1  0.17767312  0.66417482  0.62482124  1
  In  In60  1  0.50755182  -0.00142969  0.10773655  1
  In  In61  1  0.50423141  0.01213652  0.63231943  1
  In  In62  1  0.48667262  0.33346614  0.10707680  1
  In  In63  1  0.49842284  0.31852466  0.63364090  1
  In  In64  1  0.49965368  0.66756429  0.11863145  1
  In  In65  1  0.49960238  0.66803839  0.63101498  1
  In  In66  1  0.83584072  0.00845447  0.11709594  1
  In  In67  1  0.82219197  -0.00476177  0.61441391  1
  In  In68  1  0.84843397  0.33004084  0.12750972  1
  In  In69  1  0.84874199  0.32916924  0.62475152  1
  In  In70  1  0.82100407  0.68103177  0.14426266  1
  In  In71  1  0.82229461  0.67431105  0.61915886  1
  In  In72  1  0.32835700  0.33524747  0.24311798  1
  In  In73  1  0.67314635  -0.00770412  0.24913165  1
  In  In74  1  0.83817620  0.49815448  0.49478752  1
  In  In75  1  0.00322774  0.66303090  0.75516563  1
  In  In76  1  0.33141413  -0.00277492  0.23988717  1
  In  In77  1  0.66500816  0.33207975  0.25193016  1
  In  In78  1  0.50302348  0.84141211  0.49736347  1
  In  In79  1  0.66603262  0.33201715  0.75278623  1
  In  In80  1  0.17123243  0.49927583  0.00760546  1
  In  In81  1  0.16129781  0.83572156  0.49824388  1
  In  In82  1  0.49959966  0.50382747  0.50679598  1
  In  In83  1  0.83550742  0.50223443  0.00912163  1
  In  In84  1  -0.00675019  0.00134594  0.74701004  1
  In  In85  1  0.33991989  0.00117572  0.75811962  1
  Cu  Cu86  1  0.50731505  0.82569680  0.24187020  1
  Cu  Cu87  1  -0.00545232  0.00411741  0.49486119  1
  Cu  Cu88  1  0.49459771  0.50430814  0.75114624  1
  Cu  Cu89  1  0.50484210  0.16527999  0.75741111  1
  Cu  Cu90  1  0.83747056  0.16561041  0.24696226  1
  Cu  Cu91  1  -0.00194057  0.32530453  -0.00152436  1
  Cu  Cu92  1  0.83496460  0.50409521  0.74456620  1
  Cu  Cu93  1  0.33166477  0.00636364  -0.00187095  1
  Cu  Cu94  1  0.00053209  0.67305305  0.01436544  1
  Cu  Cu95  1  0.16683883  0.84212607  0.24590308  1
  Cu  Cu96  1  0.66493101  0.33547546  0.50542722  1
  Cu  Cu97  1  0.66816103  0.32982862  -0.00547044  1
  Cu  Cu98  1  0.83597378  0.49927338  0.25250753  1
  Cu  Cu99  1  0.83636207  0.16244743  0.75011693  1
  Cu  Cu100  1  0.33396571  0.00556370  0.50424717  1
  Cu  Cu101  1  0.50247211  0.50478695  0.24385629  1
  Cu  Cu102  1  0.50245718  0.83157608  0.75807444  1
  Cu  Cu103  1  0.66266936  0.66628590  -0.00048932  1
  Cu  Cu104  1  0.82676020  0.83570716  0.75125921  1
  Cu  Cu105  1  0.16896084  0.82459549  0.75895537  1
  Cu  Cu106  1  0.15686647  0.17143792  0.25063606  1
  Cu  Cu107  1  0.16940506  0.17019918  0.74614662  1
  Cu  Cu108  1  0.00126661  0.66509932  0.49024743  1
  Cu  Cu109  1  0.33192024  0.32620706  0.50328197  1
  Cu  Cu110  1  0.33636154  0.66943427  -0.00165773  1
  Cu  Cu111  1  0.33025620  0.66006206  0.49588827  1
  Cu  Cu112  1  0.00678977  0.00133204  0.00743676  1
  Cu  Cu113  1  0.16647754  0.49130288  0.74820122  1
  Cu  Cu114  1  0.50461479  0.16457909  0.25217578  1
  Se  Se115  1  0.08934910  0.09265361  0.05363647  1
  Se  Se116  1  0.08253159  0.08057988  0.54953670  1
  Se  Se117  1  0.06910030  0.41287007  0.06012803  1
  Se  Se118  1  0.08914022  0.41091992  0.54823544  1
  Se  Se119  1  0.08958004  0.75545075  0.06191767  1
  Se  Se120  1  0.07358581  0.74283321  0.56068954  1
  Se  Se121  1  0.41458092  0.08744200  0.05317042  1
  Se  Se122  1  0.41682600  0.08311593  0.56120198  1
  Se  Se123  1  0.40767715  0.41855386  0.04050702  1
  Se  Se124  1  0.41245107  0.40797238  0.56418750  1
  Se  Se125  1  0.42238260  0.75500764  0.04864301  1
  Se  Se126  1  0.40949995  0.74398476  0.55381255  1
  Se  Se127  1  0.74969338  0.07593406  0.04289944  1
  Se  Se128  1  0.75841910  0.09653168  0.55041091  1
  Se  Se129  1  0.74322607  0.40591918  0.06325953  1
  Se  Se130  1  0.74463396  0.41697160  0.56350649  1
  Se  Se131  1  0.75247218  0.73887265  0.05575634  1
  Se  Se132  1  0.75749970  0.76804467  0.55162458  1
  Se  Se133  1  0.25606633  0.27090622  0.04974142  1
  Se  Se134  1  0.25006136  0.24309981  0.55793419  1
  Se  Se135  1  0.25496754  0.59743350  0.06419260  1
  Se  Se136  1  0.24753920  0.57928946  0.55115991  1
  Se  Se137  1  0.25152954  0.92180910  0.05420184  1
  Se  Se138  1  0.25741521  0.91958493  0.56274000  1
  Se  Se139  1  0.58480243  0.25038645  0.05235846  1
  Se  Se140  1  0.57988548  0.25230427  0.55725290  1
  Se  Se141  1  0.57829549  0.57957100  0.04827725  1
  Se  Se142  1  0.59219358  0.60423603  0.55335940  1
  Se  Se143  1  0.59309780  0.92187126  0.04065080  1
  Se  Se144  1  0.58807811  0.92521191  0.56339576  1
  Se  Se145  1  0.91235643  0.24464145  0.05170542  1
  Se  Se146  1  0.91391398  0.25559171  0.54466734  1
  Se  Se147  1  0.92267411  0.58852746  0.07244643  1
  Se  Se148  1  0.92494864  0.58939915  0.55979647  1
  Se  Se149  1  0.92256714  0.91616264  0.05780555  1
  Se  Se150  1  0.90981642  0.91728106  0.54399047  1
  Se  Se151  1  0.10222204  0.22452629  0.43965125  1
  Se  Se152  1  0.08339895  0.24893965  0.94188071  1
  Se  Se153  1  0.08694859  0.58074703  0.44274005  1
  Se  Se154  1  0.07457604  0.59170347  0.94998909  1
  Se  Se155  1  0.07049768  0.91771773  0.43458025  1
  Se  Se156  1  0.08815648  0.91380128  0.95455759  1
  Se  Se157  1  0.41808489  0.24586529  0.45075223  1
  Se  Se158  1  0.42216991  0.24210795  0.95192644  1
  Se  Se159  1  0.41559726  0.58578907  0.43585758  1
  Se  Se160  1  0.41522600  0.58446833  0.94237191  1
  Se  Se161  1  0.40334214  0.92416847  0.43750077  1
  Se  Se162  1  0.41512009  0.91781223  0.94975133  1
  Se  Se163  1  0.74724664  0.25245057  0.45125807  1
  Se  Se164  1  0.75585488  0.24779544  0.94604952  1
  Se  Se165  1  0.74331003  0.59268710  0.44562842  1
  Se  Se166  1  0.74662343  0.58477315  0.94092693  1
  Se  Se167  1  0.71923711  0.95288109  0.43281746  1
  Se  Se168  1  0.77144493  0.88838976  0.94167418  1
  Se  Se169  1  0.24719944  0.08156880  0.44881878  1
  Se  Se170  1  0.24599054  0.08983206  0.94810380  1
  Se  Se171  1  0.25625522  0.41727259  0.45133459  1
  Se  Se172  1  0.24613314  0.41790802  0.93314661  1
  Se  Se173  1  0.24785874  0.74212249  0.43925999  1
  Se  Se174  1  0.24703259  0.75107001  0.94869017  1
  Se  Se175  1  0.56104510  0.09216874  0.45449605  1
  Se  Se176  1  0.58708088  0.08584030  0.95392384  1
  Se  Se177  1  0.58665259  0.41206138  0.44188038  1
  Se  Se178  1  0.58475732  0.41988123  0.94971935  1
  Se  Se179  1  0.58800458  0.74721588  0.43794196  1
  Se  Se180  1  0.58290306  0.74948886  0.94226575  1
  Se  Se181  1  0.91506134  0.08912238  0.43947439  1
  Se  Se182  1  0.92418089  0.07865691  0.94653196  1
  Se  Se183  1  0.92785294  0.40533830  0.44034668  1
  Se  Se184  1  0.92029978  0.41290833  0.94138988  1
  Se  Se185  1  0.91521909  0.75017538  0.44315928  1
  Se  Se186  1  0.91405792  0.74779943  0.95726155  1
  Se  Se187  1  0.24430763  0.24708192  0.30837117  1
  Se  Se188  1  0.25367244  0.24784617  0.80233247  1
  Se  Se189  1  0.26908427  0.59969380  0.30166278  1
  Se  Se190  1  0.24352687  0.58179967  0.80080907  1
  Se  Se191  1  0.24598352  0.91763861  0.31186770  1
  Se  Se192  1  0.24503860  0.91192642  0.81519045  1
  Se  Se193  1  0.58484094  0.23799689  0.31500808  1
  Se  Se194  1  0.57989006  0.24968927  0.81918389  1
  Se  Se195  1  0.58700784  0.58600496  0.29755318  1
  Se  Se196  1  0.58320774  0.58660167  0.80003149  1
  Se  Se197  1  0.57730343  0.90560647  0.30872287  1
  Se  Se198  1  0.58567057  0.91966335  0.80539408  1
  Se  Se199  1  0.91867203  0.25184055  0.29893697  1
  Se  Se200  1  0.92202927  0.24813251  0.79841013  1
  Se  Se201  1  0.91830583  0.58125715  0.30768699  1
  Se  Se202  1  0.90852425  0.57753755  0.81593759  1
  Se  Se203  1  0.90106702  0.91815163  0.29421597  1
  Se  Se204  1  0.90870152  0.91364047  0.81135038  1
  Se  Se205  1  0.07662990  0.07885471  0.29710055  1
  Se  Se206  1  0.09063866  0.08628726  0.80533066  1
  Se  Se207  1  0.09652031  0.41453147  0.30662314  1
  Se  Se208  1  0.07723142  0.41178165  0.79832839  1
  Se  Se209  1  0.08787808  0.76155110  0.30559733  1
  Se  Se210  1  0.08090834  0.75681386  0.82118541  1
  Se  Se211  1  0.41581321  0.08720040  0.30737690  1
  Se  Se212  1  0.42832125  0.08540057  0.82108439  1
  Se  Se213  1  0.42457673  0.42292246  0.30543137  1
  Se  Se214  1  0.41932754  0.41524706  0.80543534  1
  Se  Se215  1  0.41650349  0.74865527  0.29363808  1
  Se  Se216  1  0.41330631  0.74792301  0.80420353  1
  Se  Se217  1  0.75246220  0.09244906  0.30840241  1
  Se  Se218  1  0.75410348  0.08247180  0.80673096  1
  Se  Se219  1  0.75675302  0.41954233  0.31489513  1
  Se  Se220  1  0.75796939  0.42528650  0.81047642  1
  Se  Se221  1  0.74930550  0.74637389  0.29973395  1
  Se  Se222  1  0.74634704  0.74680097  0.80114271  1
  Se  Se223  1  0.24223541  0.09658335  0.18913159  1
  Se  Se224  1  0.24463857  0.07945020  0.69109865  1
  Se  Se225  1  0.24087849  0.43174179  0.18896399  1
  Se  Se226  1  0.25312693  0.41002315  0.69609821  1
  Se  Se227  1  0.25500696  0.76024675  0.19663295  1
  Se  Se228  1  0.24829511  0.74020159  0.70466196  1
  Se  Se229  1  0.57953811  0.08359849  0.18995405  1
  Se  Se230  1  0.59037115  0.08753132  0.70243058  1
  Se  Se231  1  0.57382118  0.41440749  0.18569089  1
  Se  Se232  1  0.57880530  0.42649848  0.69036396  1
  Se  Se233  1  0.58964564  0.74630169  0.18609275  1
  Se  Se234  1  0.58291573  0.75224529  0.69690026  1
  Se  Se235  1  0.91749207  0.08218617  0.19198910  1
  Se  Se236  1  0.91314978  0.09028989  0.68107265  1
  Se  Se237  1  0.91807918  0.41314112  0.20177779  1
  Se  Se238  1  0.91823684  0.41638057  0.69784413  1
  Se  Se239  1  0.93451156  0.73469904  0.19962003  1
  Se  Se240  1  0.91453967  0.75650273  0.69462737  1
  Se  Se241  1  0.07797205  0.25506593  0.19428438  1
  Se  Se242  1  0.08291385  0.24729701  0.69066469  1
  Se  Se243  1  0.09057046  0.58367117  0.20960006  1
  Se  Se244  1  0.08556632  0.57440560  0.68804852  1
  Se  Se245  1  0.08074393  0.92480842  0.19705629  1
  Se  Se246  1  0.08815330  0.90052227  0.69616782  1
  Se  Se247  1  0.42583419  0.24321751  0.18983091  1
  Se  Se248  1  0.41620610  0.24675109  0.70793993  1
  Se  Se249  1  0.41781614  0.58458276  0.18971544  1
  Se  Se250  1  0.41213547  0.58612677  0.69519041  1
  Se  Se251  1  0.43055181  0.91264464  0.18446960  1
  Se  Se252  1  0.42160686  0.90684034  0.69234219  1
  Se  Se253  1  0.75005179  0.24025782  0.18770133  1
  Se  Se254  1  0.75463342  0.24460102  0.69040178  1
  Se  Se255  1  0.74690021  0.57516360  0.19914290  1
  Se  Se256  1  0.75365109  0.59235093  0.69665544  1
  Se  Se257  1  0.75501315  0.90910676  0.18116266  1
  Se  Se258  1  0.75128377  0.92330239  0.69546693  1
