# generated using pymatgen
data_In86Cu29Se144
_symmetry_space_group_name_H-M   'P 1'
_cell_length_a   17.57669050
_cell_length_b   17.57382684
_cell_length_c   23.43407131
_cell_angle_alpha   90.02403438
_cell_angle_beta   90.02045704
_cell_angle_gamma   90.01153826
_symmetry_Int_Tables_number   1
_chemical_formula_structural   In86Cu29Se144
_chemical_formula_sum   'In86 Cu29 Se144'
_cell_volume   7238.54236901
_cell_formula_units_Z   1
loop_
 _symmetry_equiv_pos_site_id
 _symmetry_equiv_pos_as_xyz
  1  'x, y, z'
loop_
 _atom_site_type_symbol
 _atom_site_label
 _atom_site_symmetry_multiplicity
 _atom_site_fract_x
 _atom_site_fract_y
 _atom_site_fract_z
 _atom_site_occupancy
  In  In0  1  0.00183852  0.17843586  0.12322183  1
  In  In1  1  0.00431556  0.15820107  0.62404980  1
  In  In2  1  0.00290940  0.50149948  0.12761202  1
  In  In3  1  0.02045659  0.49750813  0.62412288  1
  In  In4  1  -0.01957343  0.82466651  0.12636894  1
  In  In5  1  0.00047610  0.82104011  0.62369734  1
  In  In6  1  0.32883397  0.16436832  0.12888891  1
  In  In7  1  0.33424464  0.16329413  0.62488328  1
  In  In8  1  0.34471234  0.51426934  0.11433360  1
  In  In9  1  0.33279224  0.50086873  0.62436919  1
  In  In10  1  0.33072529  0.83565579  0.13399388  1
  In  In11  1  0.33799008  0.82961180  0.62010772  1
  In  In12  1  0.66912551  0.15781394  0.12131945  1
  In  In13  1  0.65719968  0.17989967  0.64090872  1
  In  In14  1  0.69301267  0.54191944  0.08829747  1
  In  In15  1  0.64941457  0.50287098  0.63107666  1
  In  In16  1  0.67265616  0.82053817  0.12713327  1
  In  In17  1  0.65846069  0.84704255  0.63195984  1
  In  In18  1  0.17660725  -0.02717652  0.39656873  1
  In  In19  1  0.17749074  -0.00374086  0.86968430  1
  In  In20  1  0.15864549  0.34200062  0.38047080  1
  In  In21  1  0.18044106  0.33789356  0.86885768  1
  In  In22  1  0.17079747  0.66809606  0.37845978  1
  In  In23  1  0.16678934  0.66150966  0.86856577  1
  In  In24  1  0.49028229  0.01025095  0.38736019  1
  In  In25  1  0.50531765  -0.00810054  0.86050216  1
  In  In26  1  0.48863334  0.34537361  0.38923978  1
  In  In27  1  0.50575936  0.33731351  0.86627154  1
  In  In28  1  0.49641129  0.66831256  0.37786341  1
  In  In29  1  0.48953010  0.67164084  0.87343547  1
  In  In30  1  0.83481696  -0.00240035  0.37235182  1
  In  In31  1  0.82106351  0.00704092  0.88207885  1
  In  In32  1  0.84027575  0.32291432  0.36705085  1
  In  In33  1  0.82885757  0.33780428  0.88019847  1
  In  In34  1  0.83289266  0.67403643  0.35360179  1
  In  In35  1  0.83898142  0.65248204  0.88921672  1
  In  In36  1  0.00111394  0.17194284  0.37295703  1
  In  In37  1  -0.00722331  0.15808605  0.87668094  1
  In  In38  1  0.00817017  0.51106897  0.36316669  1
  In  In39  1  -0.00504996  0.50859014  0.88258885  1
  In  In40  1  0.01033836  0.82764889  0.37606180  1
  In  In41  1  0.00465473  0.81391618  0.87494522  1
  In  In42  1  0.33548000  0.15971825  0.38608988  1
  In  In43  1  0.33231186  0.16481763  0.86416704  1
  In  In44  1  0.31942501  0.52032747  0.39514913  1
  In  In45  1  0.33342474  0.50212190  0.87348331  1
  In  In46  1  0.33204337  0.83073799  0.38074858  1
  In  In47  1  0.35040333  0.83514874  0.85698286  1
  In  In48  1  0.66419042  0.16035865  0.37751263  1
  In  In49  1  0.67891061  0.17146643  0.85878245  1
  In  In50  1  0.65399819  0.50904431  0.37654164  1
  In  In51  1  0.67450981  0.49355797  0.88427407  1
  In  In52  1  0.66935970  0.81962149  0.37452893  1
  In  In53  1  0.65985027  0.83858563  0.87567991  1
  In  In54  1  0.17331859  0.00022983  0.13031042  1
  In  In55  1  0.17240371  0.01554825  0.61287591  1
  In  In56  1  0.15429751  0.33534760  0.12777743  1
  In  In57  1  0.18170117  0.34818717  0.61554410  1
  In  In58  1  0.18050449  0.65798592  0.13323378  1
  In  In59  1  0.17389172  0.66371920  0.61827675  1
  In  In60  1  0.49558131  -0.00804669  0.12793853  1
  In  In61  1  0.49367479  -0.00318718  0.62460858  1
  In  In62  1  0.48924224  0.35292567  0.12821283  1
  In  In63  1  0.49755160  0.33107235  0.62957367  1
  In  In64  1  0.50301219  0.66412317  0.13291974  1
  In  In65  1  0.47918312  0.65539800  0.60756973  1
  In  In66  1  0.82633787  -0.00498110  0.11186440  1
  In  In67  1  0.82720507  -0.00414782  0.63468549  1
  In  In68  1  0.83933671  0.34486394  0.11504199  1
  In  In69  1  0.82517868  0.32419108  0.63678748  1
  In  In70  1  0.83805315  0.67045542  0.12913727  1
  In  In71  1  0.83771765  0.67850536  0.63144801  1
  In  In72  1  0.83566630  0.83558673  0.49887621  1
  In  In73  1  0.16288557  0.17278385  -0.00845264  1
  In  In74  1  0.50396155  0.16732300  -0.00285474  1
  In  In75  1  0.66269604  -0.00702616  0.24513132  1
  In  In76  1  0.00536299  -0.00613719  0.25368337  1
  In  In77  1  0.66466022  0.34169114  0.24628968  1
  In  In78  1  0.00000749  0.33805452  0.75461513  1
  In  In79  1  0.32949749  0.34287017  0.25870734  1
  In  In80  1  0.16872840  0.83215906  0.00054043  1
  In  In81  1  0.83307205  0.16523455  0.49964264  1
  In  In82  1  0.66022300  0.67192914  0.75306153  1
  In  In83  1  0.50348031  0.83056574  -0.00592902  1
  In  In84  1  0.00158304  -0.00222945  0.74499001  1
  In  In85  1  0.83214550  0.50009769  0.49683170  1
  Cu  Cu86  1  0.16972188  0.82737291  0.25871907  1
  Cu  Cu87  1  0.66056571  0.66952587  0.49984216  1
  Cu  Cu88  1  0.17508657  0.82899185  0.74489081  1
  Cu  Cu89  1  0.00125668  0.66332551  0.00429107  1
  Cu  Cu90  1  0.83838856  0.83164886  0.75625546  1
  Cu  Cu91  1  0.16968106  0.15910445  0.25280559  1
  Cu  Cu92  1  -0.00361955  -0.00253776  0.00013843  1
  Cu  Cu93  1  0.50133251  0.51441775  0.25068305  1
  Cu  Cu94  1  0.33077890  0.34084171  -0.00470989  1
  Cu  Cu95  1  0.49060397  0.83755796  0.25639820  1
  Cu  Cu96  1  0.33793554  0.32547532  0.50739028  1
  Cu  Cu97  1  0.16998653  0.50086965  0.25415252  1
  Cu  Cu98  1  0.49510290  0.15818082  0.74387402  1
  Cu  Cu99  1  0.17063423  0.17211412  0.74113529  1
  Cu  Cu100  1  -0.00455282  0.34067307  0.00293777  1
  Cu  Cu101  1  0.49447690  0.17057262  0.26366159  1
  Cu  Cu102  1  0.33043300  0.66817226  -0.00333963  1
  Cu  Cu103  1  0.65984316  0.33422604  0.50899233  1
  Cu  Cu104  1  0.83351771  0.50253389  0.76024970  1
  Cu  Cu105  1  0.67040932  0.00135649  -0.00576449  1
  Cu  Cu106  1  0.33415727  -0.00419720  0.50522725  1
  Cu  Cu107  1  0.49664985  0.49530966  0.74913472  1
  Cu  Cu108  1  0.00378145  0.33236551  0.49664944  1
  Cu  Cu109  1  0.83171296  0.49733011  0.23850367  1
  Cu  Cu110  1  0.65772309  0.00486364  0.50671647  1
  Cu  Cu111  1  0.17564012  0.51176313  0.74476373  1
  Cu  Cu112  1  0.66038523  0.32800938  -0.00696733  1
  Cu  Cu113  1  0.00700931  0.65981093  0.49880988  1
  Cu  Cu114  1  0.84275257  0.16710774  0.24301863  1
  Se  Se115  1  0.08098315  0.07682831  0.05770891  1
  Se  Se116  1  0.07664681  0.08642943  0.54745953  1
  Se  Se117  1  0.08422698  0.41932064  0.05437759  1
  Se  Se118  1  0.08770060  0.41859684  0.54647801  1
  Se  Se119  1  0.08258159  0.74416058  0.06422820  1
  Se  Se120  1  0.08466480  0.74809320  0.55181361  1
  Se  Se121  1  0.41221472  0.07903157  0.05781030  1
  Se  Se122  1  0.41783919  0.08408478  0.55385519  1
  Se  Se123  1  0.41815266  0.42132455  0.04693298  1
  Se  Se124  1  0.41889998  0.41374348  0.55843991  1
  Se  Se125  1  0.40849830  0.74961806  0.05863457  1
  Se  Se126  1  0.40185625  0.74417296  0.54203047  1
  Se  Se127  1  0.75148146  0.08890560  0.04637689  1
  Se  Se128  1  0.74314475  0.08219208  0.56482899  1
  Se  Se129  1  0.74194768  0.41136679  0.04921089  1
  Se  Se130  1  0.74635155  0.41328667  0.56397972  1
  Se  Se131  1  0.74936365  0.74209481  0.05642663  1
  Se  Se132  1  0.74245480  0.74821502  0.56071527  1
  Se  Se133  1  0.25508856  0.25817608  0.05745984  1
  Se  Se134  1  0.24759058  0.24339539  0.55497336  1
  Se  Se135  1  0.24613897  0.58535754  0.04981382  1
  Se  Se136  1  0.23965755  0.56452355  0.55265257  1
  Se  Se137  1  0.26020441  0.92523740  0.05649356  1
  Se  Se138  1  0.24648886  0.91379806  0.55504481  1
  Se  Se139  1  0.58373761  0.25992195  0.06481906  1
  Se  Se140  1  0.58141448  0.24601737  0.56008644  1
  Se  Se141  1  0.55897661  0.57750658  0.05492545  1
  Se  Se142  1  0.58395607  0.57925000  0.55139603  1
  Se  Se143  1  0.59221380  0.92354655  0.05830069  1
  Se  Se144  1  0.57845303  0.91348616  0.55411552  1
  Se  Se145  1  0.91574717  0.24863770  0.05092873  1
  Se  Se146  1  0.91950013  0.26156876  0.55990929  1
  Se  Se147  1  0.91770625  0.58231500  0.05940254  1
  Se  Se148  1  0.92043481  0.58833219  0.56101870  1
  Se  Se149  1  0.91488397  0.90980666  0.05010245  1
  Se  Se150  1  0.91990521  0.92519667  0.56324430  1
  Se  Se151  1  0.08506488  0.24573028  0.44556262  1
  Se  Se152  1  0.07166450  0.26548685  0.93447506  1
  Se  Se153  1  0.08617685  0.57620149  0.44297194  1
  Se  Se154  1  0.08749597  0.58921274  0.94562504  1
  Se  Se155  1  0.06634157  0.91305423  0.45330034  1
  Se  Se156  1  0.07868706  0.92373492  0.93822682  1
  Se  Se157  1  0.42173655  0.24406884  0.45164907  1
  Se  Se158  1  0.40868579  0.25446417  0.93873285  1
  Se  Se159  1  0.43765603  0.56851721  0.44723967  1
  Se  Se160  1  0.41536940  0.58537650  0.94420728  1
  Se  Se161  1  0.41723923  0.91396338  0.45005192  1
  Se  Se162  1  0.41354057  0.92366512  0.93775978  1
  Se  Se163  1  0.74180064  0.26234261  0.44278432  1
  Se  Se164  1  0.74524651  0.24477269  0.94179105  1
  Se  Se165  1  0.74936346  0.59877906  0.43851398  1
  Se  Se166  1  0.74658710  0.57995209  0.95572729  1
  Se  Se167  1  0.73860400  0.92840305  0.44324633  1
  Se  Se168  1  0.75004355  0.90899324  0.94659991  1
  Se  Se169  1  0.24771428  0.07963580  0.45273779  1
  Se  Se170  1  0.25923548  0.07894712  0.94288451  1
  Se  Se171  1  0.25817974  0.40541935  0.44699829  1
  Se  Se172  1  0.24502012  0.42329575  0.94431243  1
  Se  Se173  1  0.24892164  0.74969250  0.44945033  1
  Se  Se174  1  0.26031932  0.75339178  0.93362105  1
  Se  Se175  1  0.58089288  0.09266249  0.45172362  1
  Se  Se176  1  0.58864407  0.07806929  0.93337845  1
  Se  Se177  1  0.58743767  0.42075684  0.44991159  1
  Se  Se178  1  0.57654875  0.41397831  0.94426095  1
  Se  Se179  1  0.58016212  0.75511942  0.44696646  1
  Se  Se180  1  0.59373022  0.73418977  0.94252832  1
  Se  Se181  1  0.92314387  0.07457271  0.44141615  1
  Se  Se182  1  0.91285973  0.08356960  0.94963416  1
  Se  Se183  1  0.92281967  0.41111738  0.43577951  1
  Se  Se184  1  0.91147922  0.42212956  0.94752927  1
  Se  Se185  1  0.91655130  0.73407294  0.44052692  1
  Se  Se186  1  0.92008645  0.74832553  0.95040622  1
  Se  Se187  1  0.24505313  0.24349306  0.31397352  1
  Se  Se188  1  0.25320991  0.25325565  0.79732975  1
  Se  Se189  1  0.25361804  0.58276977  0.30848939  1
  Se  Se190  1  0.26053658  0.59067931  0.80103418  1
  Se  Se191  1  0.24878502  0.91616121  0.31057288  1
  Se  Se192  1  0.25371461  0.91672580  0.79794326  1
  Se  Se193  1  0.57795701  0.25501718  0.31491653  1
  Se  Se194  1  0.57600485  0.24231131  0.79999200  1
  Se  Se195  1  0.58668021  0.59600282  0.30375254  1
  Se  Se196  1  0.57936224  0.57232016  0.81200907  1
  Se  Se197  1  0.57500270  0.91684378  0.31557107  1
  Se  Se198  1  0.57850800  0.89690504  0.79677447  1
  Se  Se199  1  0.92582881  0.24938006  0.29618762  1
  Se  Se200  1  0.90980219  0.24416738  0.80911570  1
  Se  Se201  1  0.91457562  0.57981337  0.29485995  1
  Se  Se202  1  0.91832916  0.58813604  0.80806196  1
  Se  Se203  1  0.90951857  0.90252376  0.30762490  1
  Se  Se204  1  0.91914925  0.91407056  0.81532251  1
  Se  Se205  1  0.09484165  0.07808777  0.31662768  1
  Se  Se206  1  0.09279176  0.09344737  0.80521284  1
  Se  Se207  1  0.08447790  0.41311237  0.30071793  1
  Se  Se208  1  0.09283386  0.43355233  0.80741700  1
  Se  Se209  1  0.08322730  0.74172340  0.30512693  1
  Se  Se210  1  0.08889569  0.74910896  0.79905867  1
  Se  Se211  1  0.41190086  0.08230912  0.30969199  1
  Se  Se212  1  0.41331373  0.07619411  0.79991998  1
  Se  Se213  1  0.42304974  0.43369500  0.31236612  1
  Se  Se214  1  0.41101466  0.41430989  0.80343808  1
  Se  Se215  1  0.41221206  0.74917253  0.30840475  1
  Se  Se216  1  0.42829667  0.74709798  0.79236432  1
  Se  Se217  1  0.75751648  0.09157408  0.30219762  1
  Se  Se218  1  0.74518688  0.06606023  0.79995598  1
  Se  Se219  1  0.75677788  0.42699139  0.31108510  1
  Se  Se220  1  0.74843446  0.41621024  0.80681454  1
  Se  Se221  1  0.74208794  0.75530820  0.29362357  1
  Se  Se222  1  0.75969762  0.74848784  0.81575308  1
  Se  Se223  1  0.25588991  0.07897946  0.20088220  1
  Se  Se224  1  0.24960627  0.07942839  0.69405156  1
  Se  Se225  1  0.24871162  0.42550341  0.18721648  1
  Se  Se226  1  0.25271843  0.41679166  0.69725500  1
  Se  Se227  1  0.25466832  0.74787839  0.20190077  1
  Se  Se228  1  0.25462154  0.74451918  0.68987607  1
  Se  Se229  1  0.57097877  0.09556662  0.19563423  1
  Se  Se230  1  0.58278039  0.07460252  0.69491729  1
  Se  Se231  1  0.58116921  0.43690688  0.18892750  1
  Se  Se232  1  0.58415963  0.41037783  0.70106246  1
  Se  Se233  1  0.57466447  0.76180648  0.19701019  1
  Se  Se234  1  0.57443864  0.74096016  0.67896364  1
  Se  Se235  1  0.91596807  0.07893002  0.18518033  1
  Se  Se236  1  0.90741679  0.09618377  0.69659325  1
  Se  Se237  1  0.91911811  0.41130146  0.19339517  1
  Se  Se238  1  0.91170763  0.42923134  0.69106267  1
  Se  Se239  1  0.92094478  0.74275987  0.20397929  1
  Se  Se240  1  0.92316475  0.75054550  0.70311749  1
  Se  Se241  1  0.08835053  0.24295156  0.19895383  1
  Se  Se242  1  0.08759234  0.25469761  0.68645288  1
  Se  Se243  1  0.08662352  0.58241059  0.19768069  1
  Se  Se244  1  0.08555452  0.58979263  0.69362031  1
  Se  Se245  1  0.09138703  0.90104351  0.19008528  1
  Se  Se246  1  0.09328002  0.91097453  0.68581878  1
  Se  Se247  1  0.42067497  0.24979905  0.19701186  1
  Se  Se248  1  0.41212899  0.24766665  0.69632775  1
  Se  Se249  1  0.40780422  0.58834724  0.19780484  1
  Se  Se250  1  0.41981389  0.58130400  0.69317671  1
  Se  Se251  1  0.41143615  0.92340670  0.20163055  1
  Se  Se252  1  0.40997972  0.91609892  0.69242586  1
  Se  Se253  1  0.75479007  0.24629547  0.18814183  1
  Se  Se254  1  0.74914617  0.24927580  0.70977591  1
  Se  Se255  1  0.74504449  0.58004339  0.18801414  1
  Se  Se256  1  0.75530802  0.57915206  0.69353932  1
  Se  Se257  1  0.76325105  0.90967797  0.19227784  1
  Se  Se258  1  0.75077222  0.91117286  0.70453961  1
