# generated using pymatgen
data_In86Cu29Se144
_symmetry_space_group_name_H-M   'P 1'
_cell_length_a   17.59033663
_cell_length_b   17.58826428
_cell_length_c   23.44882599
_cell_angle_alpha   89.99804136
_cell_angle_beta   89.99752739
_cell_angle_gamma   89.97663286
_symmetry_Int_Tables_number   1
_chemical_formula_structural   In86Cu29Se144
_chemical_formula_sum   'In86 Cu29 Se144'
_cell_volume   7254.67899331
_cell_formula_units_Z   1
loop_
 _symmetry_equiv_pos_site_id
 _symmetry_equiv_pos_as_xyz
  1  'x, y, z'
loop_
 _atom_site_type_symbol
 _atom_site_label
 _atom_site_symmetry_multiplicity
 _atom_site_fract_x
 _atom_site_fract_y
 _atom_site_fract_z
 _atom_site_occupancy
  In  In0  1  -0.00421279  0.17505009  0.11973397  1
  In  In1  1  0.00039271  0.17116590  0.61945048  1
  In  In2  1  -0.00181706  0.49891729  0.13889633  1
  In  In3  1  0.00096310  0.50873506  0.61982390  1
  In  In4  1  -0.00970097  0.82406964  0.11912358  1
  In  In5  1  -0.01680343  0.83398705  0.62565374  1
  In  In6  1  0.32418096  0.17295263  0.12212428  1
  In  In7  1  0.32369213  0.16385636  0.63037577  1
  In  In8  1  0.32094424  0.50714398  0.12338679  1
  In  In9  1  0.32497866  0.50610444  0.61965783  1
  In  In10  1  0.33862351  0.84135722  0.10931086  1
  In  In11  1  0.34798152  0.83633154  0.62348132  1
  In  In12  1  0.67584467  0.15643550  0.12694161  1
  In  In13  1  0.67245870  0.15869463  0.63374399  1
  In  In14  1  0.68285202  0.50135435  0.13997241  1
  In  In15  1  0.68041611  0.49507798  0.62503201  1
  In  In16  1  0.66885215  0.82980428  0.12855865  1
  In  In17  1  0.66525938  0.83377832  0.62594613  1
  In  In18  1  0.18177148  0.00585400  0.37902266  1
  In  In19  1  0.17475905  -0.00987624  0.88694759  1
  In  In20  1  0.15118336  0.34099500  0.37997167  1
  In  In21  1  0.16000888  0.32781250  0.88838818  1
  In  In22  1  0.14935350  0.66101867  0.36986495  1
  In  In23  1  0.15913710  0.67653551  0.87963357  1
  In  In24  1  0.51346018  -0.02577237  0.38929591  1
  In  In25  1  0.49270752  -0.01041799  0.86501760  1
  In  In26  1  0.50911837  0.32422916  0.37611639  1
  In  In27  1  0.50793213  0.31737043  0.87222799  1
  In  In28  1  0.51744542  0.67116341  0.37420377  1
  In  In29  1  0.52057323  0.67347521  0.87406966  1
  In  In30  1  0.82209111  0.01178923  0.38406373  1
  In  In31  1  0.82160997  0.00653376  0.87989140  1
  In  In32  1  0.83595042  0.33579236  0.37137428  1
  In  In33  1  0.83093459  0.33671047  0.87822449  1
  In  In34  1  0.83651715  0.67274618  0.37779852  1
  In  In35  1  0.83486317  0.66754869  0.87189966  1
  In  In36  1  -0.01119905  0.17659879  0.38095234  1
  In  In37  1  0.00193155  0.16499184  0.88965507  1
  In  In38  1  -0.00531960  0.50342691  0.37168274  1
  In  In39  1  -0.00914930  0.51106011  0.87725517  1
  In  In40  1  -0.00342966  0.81566341  0.36954994  1
  In  In41  1  0.00417842  0.82396132  0.87827167  1
  In  In42  1  0.32470637  0.14693187  0.37993603  1
  In  In43  1  0.33439916  0.13286366  0.88000270  1
  In  In44  1  0.32908763  0.48734558  0.37896240  1
  In  In45  1  0.32662887  0.49193136  0.87520498  1
  In  In46  1  0.34547828  0.84036754  0.37598056  1
  In  In47  1  0.33243780  0.84664979  0.88572259  1
  In  In48  1  0.67962847  0.17722692  0.36670703  1
  In  In49  1  0.66909654  0.16881394  0.86353323  1
  In  In50  1  0.70186993  0.52514300  0.34899095  1
  In  In51  1  0.67459841  0.50049205  0.86934690  1
  In  In52  1  0.66641630  0.83989615  0.37641987  1
  In  In53  1  0.66427409  0.82903957  0.88023851  1
  In  In54  1  0.16902208  0.00044156  0.11076204  1
  In  In55  1  0.16840846  0.01033502  0.62940878  1
  In  In56  1  0.14139052  0.32651600  0.11479932  1
  In  In57  1  0.15761675  0.33253614  0.62257625  1
  In  In58  1  0.15513406  0.65550452  0.11563236  1
  In  In59  1  0.16726773  0.65487855  0.62489407  1
  In  In60  1  0.50889858  -0.00387054  0.12387381  1
  In  In61  1  0.51200650  -0.00334704  0.63586431  1
  In  In62  1  0.50755203  0.33990127  0.12444396  1
  In  In63  1  0.51087502  0.33809318  0.62563269  1
  In  In64  1  0.51735427  0.68173552  0.11919518  1
  In  In65  1  0.50097869  0.68513610  0.62026529  1
  In  In66  1  0.82087654  -0.01312676  0.11615560  1
  In  In67  1  0.82100327  -0.01139400  0.61457041  1
  In  In68  1  0.84300760  0.32828222  0.13836106  1
  In  In69  1  0.82464836  0.32996399  0.61259410  1
  In  In70  1  0.82525444  0.67632070  0.14116180  1
  In  In71  1  0.83080065  0.66957665  0.62512085  1
  In  In72  1  0.34010182  0.66836227  0.74409022  1
  In  In73  1  0.49873077  0.50650927  0.00583775  1
  In  In74  1  -0.00530358  -0.00465444  0.75144305  1
  In  In75  1  0.33556573  0.32955384  0.25112513  1
  In  In76  1  0.49485152  0.15681913  -0.00494144  1
  In  In77  1  -0.00064380  -0.00107491  0.24720519  1
  In  In78  1  0.83681754  0.49870987  0.00591219  1
  In  In79  1  -0.00436076  0.33395562  0.74917493  1
  In  In80  1  0.34084466  0.00113209  0.24419059  1
  In  In81  1  0.33972259  0.66771091  0.24442824  1
  In  In82  1  0.49708228  0.16523978  0.50683081  1
  In  In83  1  0.16270129  0.83238117  0.49517425  1
  In  In84  1  0.50339274  0.49900681  0.49831471  1
  In  In85  1  0.33706986  0.32798404  0.75303640  1
  Cu  Cu86  1  0.50650518  0.83312977  0.75081436  1
  Cu  Cu87  1  0.33336128  0.66776283  -0.00234234  1
  Cu  Cu88  1  0.15700235  0.17387534  0.25037936  1
  Cu  Cu89  1  0.83066664  0.50393458  0.74921819  1
  Cu  Cu90  1  0.50988398  0.15753375  0.25022038  1
  Cu  Cu91  1  0.00025921  0.33597695  0.49737322  1
  Cu  Cu92  1  0.82429470  0.83043476  0.74890818  1
  Cu  Cu93  1  0.16928601  0.83422087  0.75885890  1
  Cu  Cu94  1  0.31814802  0.33188256  -0.00145742  1
  Cu  Cu95  1  0.66377956  0.00206970  0.50451733  1
  Cu  Cu96  1  0.32010089  0.32730076  0.50122734  1
  Cu  Cu97  1  0.51129474  0.50114897  0.24629927  1
  Cu  Cu98  1  0.83249508  0.16381674  0.25123321  1
  Cu  Cu99  1  0.17162272  0.82800504  0.24161433  1
  Cu  Cu100  1  0.66795780  -0.00618557  -0.00002454  1
  Cu  Cu101  1  0.16202369  0.49705919  0.24910467  1
  Cu  Cu102  1  -0.00111225  0.66758295  0.00081789  1
  Cu  Cu103  1  -0.00487753  0.66226229  0.49700182  1
  Cu  Cu104  1  0.83270260  0.16393737  0.74671549  1
  Cu  Cu105  1  0.82932164  0.83665574  0.25117047  1
  Cu  Cu106  1  0.33010080  0.66820806  0.50109080  1
  Cu  Cu107  1  0.15933127  0.50343795  0.74962367  1
  Cu  Cu108  1  0.67185394  0.67267242  0.49654140  1
  Cu  Cu109  1  0.17391960  0.15646406  0.75860584  1
  Cu  Cu110  1  0.67556896  0.33799865  0.49099964  1
  Cu  Cu111  1  0.51395395  0.50029407  0.74753346  1
  Cu  Cu112  1  0.66863303  0.32917899  -0.00445935  1
  Cu  Cu113  1  0.00048725  0.00073604  0.50054735  1
  Cu  Cu114  1  -0.00677231  -0.00245847  0.00024574  1
  Se  Se115  1  0.07375861  0.08341939  0.05409209  1
  Se  Se116  1  0.08270215  0.08075692  0.55670659  1
  Se  Se117  1  0.08674589  0.44111373  0.06177880  1
  Se  Se118  1  0.08148785  0.41904473  0.55451446  1
  Se  Se119  1  0.08472902  0.75358520  0.05112387  1
  Se  Se120  1  0.07559670  0.74355260  0.55933766  1
  Se  Se121  1  0.40595248  0.07516181  0.06192362  1
  Se  Se122  1  0.41236003  0.07434374  0.56697257  1
  Se  Se123  1  0.40379861  0.40731917  0.05807513  1
  Se  Se124  1  0.40739389  0.40703726  0.55724072  1
  Se  Se125  1  0.42067954  0.74587153  0.05053458  1
  Se  Se126  1  0.41619111  0.75492357  0.54618525  1
  Se  Se127  1  0.75025763  0.08348728  0.04891981  1
  Se  Se128  1  0.74806224  0.08970942  0.55357030  1
  Se  Se129  1  0.74221989  0.40765797  0.06100573  1
  Se  Se130  1  0.75454005  0.42522690  0.54498398  1
  Se  Se131  1  0.75918402  0.75231593  0.06190305  1
  Se  Se132  1  0.75057094  0.75488251  0.55569107  1
  Se  Se133  1  0.23842402  0.24811824  0.05355394  1
  Se  Se134  1  0.24397023  0.24587251  0.56036000  1
  Se  Se135  1  0.24826591  0.58275150  0.04701654  1
  Se  Se136  1  0.24440391  0.58206480  0.54714849  1
  Se  Se137  1  0.25039216  0.91842660  0.04443403  1
  Se  Se138  1  0.24856770  0.91694199  0.56127899  1
  Se  Se139  1  0.58518632  0.25001492  0.05501047  1
  Se  Se140  1  0.59647817  0.25920754  0.55406718  1
  Se  Se141  1  0.60246546  0.58208957  0.06142204  1
  Se  Se142  1  0.59032023  0.59201652  0.55819582  1
  Se  Se143  1  0.58669395  0.91187698  0.05506516  1
  Se  Se144  1  0.58051094  0.91787959  0.55715374  1
  Se  Se145  1  0.90860464  0.25836930  0.05586267  1
  Se  Se146  1  0.91764781  0.25069296  0.55040606  1
  Se  Se147  1  0.91943598  0.59401058  0.06619366  1
  Se  Se148  1  0.90988166  0.58441499  0.55368754  1
  Se  Se149  1  0.91185979  0.90998072  0.05077906  1
  Se  Se150  1  0.91555560  0.91456769  0.54904878  1
  Se  Se151  1  0.08386432  0.24648209  0.44877330  1
  Se  Se152  1  0.07211544  0.25617157  0.95647030  1
  Se  Se153  1  0.08140712  0.58003173  0.44556237  1
  Se  Se154  1  0.08088416  0.58528552  0.94501261  1
  Se  Se155  1  0.07383399  0.92256959  0.43319501  1
  Se  Se156  1  0.07761508  0.91384287  0.94720068  1
  Se  Se157  1  0.40614202  0.25390290  0.44132536  1
  Se  Se158  1  0.40375244  0.25480878  0.93958977  1
  Se  Se159  1  0.41164006  0.59008808  0.43741840  1
  Se  Se160  1  0.41269440  0.58888676  0.93521772  1
  Se  Se161  1  0.39458245  0.93909086  0.44691258  1
  Se  Se162  1  0.42219062  0.92730233  0.94835353  1
  Se  Se163  1  0.75788702  0.24793940  0.44347352  1
  Se  Se164  1  0.74757793  0.24629399  0.93970312  1
  Se  Se165  1  0.75030326  0.58479710  0.44312501  1
  Se  Se166  1  0.74602949  0.58609250  0.94449719  1
  Se  Se167  1  0.74779260  0.91902662  0.45015380  1
  Se  Se168  1  0.75299678  0.91094784  0.94703371  1
  Se  Se169  1  0.24265579  0.08641180  0.45772047  1
  Se  Se170  1  0.23334314  0.09431078  0.95159652  1
  Se  Se171  1  0.24225310  0.41631876  0.44901194  1
  Se  Se172  1  0.24151633  0.42341063  0.94804839  1
  Se  Se173  1  0.25327114  0.74230260  0.43283988  1
  Se  Se174  1  0.25000415  0.75268027  0.94532857  1
  Se  Se175  1  0.58997010  0.08632429  0.44048330  1
  Se  Se176  1  0.59264398  0.07623812  0.93666555  1
  Se  Se177  1  0.59411688  0.41944208  0.43369771  1
  Se  Se178  1  0.58519156  0.41351896  0.94147778  1
  Se  Se179  1  0.58349451  0.75628010  0.44858349  1
  Se  Se180  1  0.58100368  0.75212037  0.95276774  1
  Se  Se181  1  0.91569085  0.08577648  0.44943064  1
  Se  Se182  1  0.90945749  0.08243699  0.94920120  1
  Se  Se183  1  0.91701275  0.41726207  0.44232638  1
  Se  Se184  1  0.92789887  0.40887058  0.94579255  1
  Se  Se185  1  0.91655664  0.75542104  0.45029619  1
  Se  Se186  1  0.91397097  0.74657480  0.94504198  1
  Se  Se187  1  0.24437093  0.24336795  0.31283626  1
  Se  Se188  1  0.24706661  0.24383792  0.81751995  1
  Se  Se189  1  0.24963098  0.57455816  0.30585053  1
  Se  Se190  1  0.24677076  0.58213332  0.80560215  1
  Se  Se191  1  0.24569773  0.90917907  0.30352736  1
  Se  Se192  1  0.25239824  0.91893333  0.80845325  1
  Se  Se193  1  0.58515415  0.25039721  0.30023735  1
  Se  Se194  1  0.59437267  0.26057344  0.79685689  1
  Se  Se195  1  0.58739196  0.59081994  0.29842452  1
  Se  Se196  1  0.59096686  0.58549890  0.80283205  1
  Se  Se197  1  0.58518109  0.92070457  0.30485170  1
  Se  Se198  1  0.59094886  0.91413105  0.80524678  1
  Se  Se199  1  0.91764979  0.24853823  0.30149603  1
  Se  Se200  1  0.91337509  0.23854704  0.81004458  1
  Se  Se201  1  0.92257694  0.59793702  0.30716877  1
  Se  Se202  1  0.91706687  0.58552242  0.80075626  1
  Se  Se203  1  0.90983770  0.91664156  0.31302130  1
  Se  Se204  1  0.90571624  0.90727001  0.81237888  1
  Se  Se205  1  0.08682939  0.08643636  0.31209935  1
  Se  Se206  1  0.08361542  0.08243435  0.81441848  1
  Se  Se207  1  0.07823429  0.41567933  0.30323445  1
  Se  Se208  1  0.08682834  0.41987874  0.81151698  1
  Se  Se209  1  0.08577016  0.74971696  0.29578991  1
  Se  Se210  1  0.08118587  0.74752883  0.80158767  1
  Se  Se211  1  0.42676817  0.08439037  0.31190900  1
  Se  Se212  1  0.43626066  0.10234312  0.80690863  1
  Se  Se213  1  0.42911318  0.42425451  0.30716518  1
  Se  Se214  1  0.42935891  0.42532283  0.80797899  1
  Se  Se215  1  0.42752314  0.75713172  0.30565799  1
  Se  Se216  1  0.42080942  0.75614812  0.81122429  1
  Se  Se217  1  0.74889510  0.07812119  0.30169732  1
  Se  Se218  1  0.75104812  0.07801474  0.79882376  1
  Se  Se219  1  0.73496073  0.39698190  0.30445790  1
  Se  Se220  1  0.75506846  0.41354748  0.80268079  1
  Se  Se221  1  0.75000866  0.75471658  0.30961407  1
  Se  Se222  1  0.74504919  0.74762767  0.80687965  1
  Se  Se223  1  0.23698494  0.09054781  0.19315739  1
  Se  Se224  1  0.25637813  0.07532489  0.70461988  1
  Se  Se225  1  0.24261196  0.41481893  0.19065572  1
  Se  Se226  1  0.24330109  0.42149901  0.69386192  1
  Se  Se227  1  0.25078219  0.75189518  0.17958900  1
  Se  Se228  1  0.24374144  0.75869416  0.68872739  1
  Se  Se229  1  0.58959334  0.07532329  0.19453223  1
  Se  Se230  1  0.58121500  0.09107746  0.70186870  1
  Se  Se231  1  0.59052424  0.41135625  0.19670146  1
  Se  Se232  1  0.59454526  0.41548862  0.69445220  1
  Se  Se233  1  0.59219485  0.74348387  0.19954704  1
  Se  Se234  1  0.58550953  0.74739257  0.69669831  1
  Se  Se235  1  0.90755371  0.08357121  0.18605438  1
  Se  Se236  1  0.91115657  0.08414430  0.68559435  1
  Se  Se237  1  0.90237011  0.42933511  0.20349234  1
  Se  Se238  1  0.90887343  0.42227085  0.68700263  1
  Se  Se239  1  0.92113353  0.75690272  0.20268230  1
  Se  Se240  1  0.91328526  0.74951932  0.69849084  1
  Se  Se241  1  0.07334677  0.25318529  0.19608699  1
  Se  Se242  1  0.09239065  0.23730246  0.69910026  1
  Se  Se243  1  0.08528137  0.59054916  0.19975454  1
  Se  Se244  1  0.07793004  0.58676261  0.69639924  1
  Se  Se245  1  0.09130391  0.91273214  0.18531815  1
  Se  Se246  1  0.08857467  0.90729615  0.69161776  1
  Se  Se247  1  0.42781708  0.23798552  0.19061163  1
  Se  Se248  1  0.42648584  0.24540451  0.68900912  1
  Se  Se249  1  0.42851998  0.57523332  0.18377869  1
  Se  Se250  1  0.42929936  0.57316014  0.68544028  1
  Se  Se251  1  0.42567550  0.90243350  0.19062748  1
  Se  Se252  1  0.41854674  0.91498013  0.69992814  1
  Se  Se253  1  0.74713129  0.24577718  0.19717867  1
  Se  Se254  1  0.75668016  0.25360836  0.69254529  1
  Se  Se255  1  0.76422843  0.57845825  0.21026670  1
  Se  Se256  1  0.74743449  0.58745260  0.69552861  1
  Se  Se257  1  0.74773511  0.92023039  0.19757313  1
  Se  Se258  1  0.74768968  0.91918600  0.69503564  1
