# generated using pymatgen
data_In86Cu29Se144
_symmetry_space_group_name_H-M   'P 1'
_cell_length_a   17.57540172
_cell_length_b   17.57573668
_cell_length_c   23.43698401
_cell_angle_alpha   90.00287798
_cell_angle_beta   90.01182133
_cell_angle_gamma   89.98619502
_symmetry_Int_Tables_number   1
_chemical_formula_structural   In86Cu29Se144
_chemical_formula_sum   'In86 Cu29 Se144'
_cell_volume   7239.69881560
_cell_formula_units_Z   1
loop_
 _symmetry_equiv_pos_site_id
 _symmetry_equiv_pos_as_xyz
  1  'x, y, z'
loop_
 _atom_site_type_symbol
 _atom_site_label
 _atom_site_symmetry_multiplicity
 _atom_site_fract_x
 _atom_site_fract_y
 _atom_site_fract_z
 _atom_site_occupancy
  In  In0  1  0.00552857  0.16389212  0.12522862  1
  In  In1  1  -0.00197197  0.16634816  0.62781926  1
  In  In2  1  -0.00027218  0.49964845  0.12910319  1
  In  In3  1  0.00147102  0.49345482  0.63149237  1
  In  In4  1  -0.00001940  0.83454695  0.12889169  1
  In  In5  1  0.01363175  0.82108694  0.64031328  1
  In  In6  1  0.32177863  0.15460761  0.12342893  1
  In  In7  1  0.31079618  0.14184365  0.59967323  1
  In  In8  1  0.34397214  0.50202745  0.13222665  1
  In  In9  1  0.33354516  0.50060204  0.60794317  1
  In  In10  1  0.32630796  0.84969937  0.14751193  1
  In  In11  1  0.33060604  0.84688521  0.61211186  1
  In  In12  1  0.67571594  0.17904104  0.12240047  1
  In  In13  1  0.66366357  0.15920952  0.61554595  1
  In  In14  1  0.66127272  0.50393330  0.13626450  1
  In  In15  1  0.66770091  0.51136885  0.62320150  1
  In  In16  1  0.65917434  0.82628062  0.13433003  1
  In  In17  1  0.65480896  0.82844401  0.62215361  1
  In  In18  1  0.16952857  0.00173119  0.38319644  1
  In  In19  1  0.17165219  0.00199357  0.86442765  1
  In  In20  1  0.15734985  0.33925764  0.37996056  1
  In  In21  1  0.13711753  0.31800454  0.86916227  1
  In  In22  1  0.16853789  0.66913614  0.37586213  1
  In  In23  1  0.15221360  0.67628510  0.87145201  1
  In  In24  1  0.48658159  0.00399815  0.38600953  1
  In  In25  1  0.50124554  0.01078650  0.87190211  1
  In  In26  1  0.50894453  0.32662484  0.37756193  1
  In  In27  1  0.49387189  0.32147888  0.87404570  1
  In  In28  1  0.49584950  0.66930024  0.37984177  1
  In  In29  1  0.50738603  0.65954877  0.86989651  1
  In  In30  1  0.85274752  -0.00136224  0.37569920  1
  In  In31  1  0.86869646  0.02005712  0.86773646  1
  In  In32  1  0.82955393  0.32786558  0.36925969  1
  In  In33  1  0.84130313  0.32002764  0.88248489  1
  In  In34  1  0.83557418  0.66517906  0.36914598  1
  In  In35  1  0.84844862  0.68736225  0.84995365  1
  In  In36  1  0.00260681  0.16663584  0.37967749  1
  In  In37  1  0.00391547  0.16802190  0.88080251  1
  In  In38  1  0.00854987  0.50373695  0.36885407  1
  In  In39  1  -0.01278776  0.49735043  0.86007239  1
  In  In40  1  0.01272324  0.84643514  0.36731963  1
  In  In41  1  0.01431248  0.84679467  0.84526408  1
  In  In42  1  0.33493253  0.15152832  0.38700867  1
  In  In43  1  0.33814840  0.15163929  0.87603732  1
  In  In44  1  0.32353101  0.51484671  0.38096788  1
  In  In45  1  0.34404011  0.49988374  0.87617320  1
  In  In46  1  0.33397597  0.83683620  0.38289821  1
  In  In47  1  0.31490634  0.84757893  0.86835202  1
  In  In48  1  0.66229519  0.17454818  0.37583403  1
  In  In49  1  0.66047930  0.17221129  0.88172846  1
  In  In50  1  0.66433970  0.49526475  0.37423187  1
  In  In51  1  0.66874863  0.51289695  0.86951514  1
  In  In52  1  0.66114646  0.81843150  0.37196280  1
  In  In53  1  0.68166991  0.82902993  0.86722998  1
  In  In54  1  0.15887467  0.01029970  0.13970650  1
  In  In55  1  0.16015056  0.00107148  0.62400091  1
  In  In56  1  0.16094087  0.31376394  0.12512420  1
  In  In57  1  0.15344963  0.32540605  0.61667389  1
  In  In58  1  0.16311107  0.67614064  0.13744270  1
  In  In59  1  0.16246790  0.66402426  0.61358472  1
  In  In60  1  0.48387118  0.00081897  0.13207084  1
  In  In61  1  0.48234362  -0.01757259  0.60103368  1
  In  In62  1  0.50737975  0.33324018  0.13057646  1
  In  In63  1  0.49087184  0.32305984  0.61271879  1
  In  In64  1  0.49917423  0.67933101  0.14898854  1
  In  In65  1  0.49767727  0.67222575  0.61481684  1
  In  In66  1  0.84179155  0.01639975  0.11917153  1
  In  In67  1  0.83646836  0.00924346  0.62401593  1
  In  In68  1  0.85180126  0.31475565  0.13842815  1
  In  In69  1  0.85028492  0.33437148  0.63171284  1
  In  In70  1  0.83280536  0.66587077  0.13378716  1
  In  In71  1  0.83961810  0.66077613  0.64185269  1
  In  In72  1  0.82776141  0.49492304  -0.00589872  1
  In  In73  1  0.33086281  0.67528180  0.74225681  1
  In  In74  1  0.83900303  0.49520507  0.50874884  1
  In  In75  1  0.83672074  0.84622088  -0.00718912  1
  In  In76  1  0.49809604  0.83640811  0.00932380  1
  In  In77  1  0.66733130  -0.00216631  0.25046929  1
  In  In78  1  0.66851684  -0.00524167  0.74785425  1
  In  In79  1  0.50648275  0.49023782  0.00930967  1
  In  In80  1  0.32744206  0.33290330  0.25512365  1
  In  In81  1  0.33035034  0.32960281  0.74469631  1
  In  In82  1  0.67525498  0.33580018  0.75500761  1
  In  In83  1  0.16961863  0.48519761  0.00110702  1
  In  In84  1  0.16050034  0.84172380  -0.00835656  1
  In  In85  1  0.83366135  0.83501916  0.50353310  1
  Cu  Cu86  1  0.49767439  0.16477107  0.25701931  1
  Cu  Cu87  1  -0.00346556  0.66406854  -0.00648125  1
  Cu  Cu88  1  0.17100377  0.50675011  0.74377119  1
  Cu  Cu89  1  0.16960376  0.83125992  0.26006617  1
  Cu  Cu90  1  0.49368039  0.83315282  0.73768136  1
  Cu  Cu91  1  0.66905630  0.32893151  0.49477681  1
  Cu  Cu92  1  0.84020946  0.16556519  0.24846299  1
  Cu  Cu93  1  0.49133986  0.15309426  0.74136237  1
  Cu  Cu94  1  0.83959465  0.83373029  0.25096667  1
  Cu  Cu95  1  0.66373213  0.00672591  -0.00228382  1
  Cu  Cu96  1  0.00368288  0.67453129  0.49736858  1
  Cu  Cu97  1  0.00087178  0.32989323  0.50166519  1
  Cu  Cu98  1  0.83157685  0.49899517  0.25254825  1
  Cu  Cu99  1  0.51172887  0.50078379  0.74093460  1
  Cu  Cu100  1  0.66692982  0.33480764  0.00674691  1
  Cu  Cu101  1  0.33036199  0.67096341  0.49636782  1
  Cu  Cu102  1  0.32928157  0.31586711  -0.00626383  1
  Cu  Cu103  1  0.16013167  0.50044744  0.25321828  1
  Cu  Cu104  1  0.33383216  0.67004198  0.01058357  1
  Cu  Cu105  1  0.66753101  0.00181841  0.49437277  1
  Cu  Cu106  1  0.49681314  0.50652540  0.25939046  1
  Cu  Cu107  1  0.16299047  0.16568801  0.74253395  1
  Cu  Cu108  1  0.66855517  0.67067406  0.00353264  1
  Cu  Cu109  1  0.66485140  0.66385925  0.49992319  1
  Cu  Cu110  1  0.00543244  0.00382811  0.50277590  1
  Cu  Cu111  1  0.32868528  0.00086087  0.00327623  1
  Cu  Cu112  1  0.83910726  0.16705464  0.75283008  1
  Cu  Cu113  1  0.33377570  0.33895941  0.49120278  1
  Cu  Cu114  1  0.16682524  0.15833505  0.25524619  1
  Se  Se115  1  0.09354368  0.08152702  0.05910843  1
  Se  Se116  1  0.08377934  0.09269966  0.55549487  1
  Se  Se117  1  0.07254782  0.40359107  0.05992038  1
  Se  Se118  1  0.07827495  0.42214482  0.55282867  1
  Se  Se119  1  0.07882363  0.74243506  0.05423128  1
  Se  Se120  1  0.08173464  0.76074735  0.55285254  1
  Se  Se121  1  0.41572109  0.08210470  0.05506520  1
  Se  Se122  1  0.44132579  0.10860208  0.55569742  1
  Se  Se123  1  0.40319058  0.39993617  0.05824295  1
  Se  Se124  1  0.42206165  0.41794733  0.54513306  1
  Se  Se125  1  0.40802131  0.74988977  0.07232883  1
  Se  Se126  1  0.41307348  0.75506173  0.54970927  1
  Se  Se127  1  0.74745284  0.08737079  0.05345262  1
  Se  Se128  1  0.75301699  0.08017318  0.54929208  1
  Se  Se129  1  0.74372167  0.41670577  0.06626833  1
  Se  Se130  1  0.74409136  0.40349009  0.56322573  1
  Se  Se131  1  0.75081521  0.75311212  0.05922770  1
  Se  Se132  1  0.75018675  0.73569010  0.56209094  1
  Se  Se133  1  0.24636254  0.24142489  0.05314924  1
  Se  Se134  1  0.25172024  0.25994636  0.54993013  1
  Se  Se135  1  0.25189268  0.58426100  0.06367478  1
  Se  Se136  1  0.24555039  0.58311859  0.54467710  1
  Se  Se137  1  0.25100162  0.91784883  0.06274799  1
  Se  Se138  1  0.25814579  0.94519341  0.54831734  1
  Se  Se139  1  0.57884604  0.25137531  0.05581501  1
  Se  Se140  1  0.58468568  0.24675772  0.54874558  1
  Se  Se141  1  0.58342641  0.59737201  0.06440152  1
  Se  Se142  1  0.57981612  0.58048078  0.55147755  1
  Se  Se143  1  0.59325209  0.92798562  0.06467132  1
  Se  Se144  1  0.58989213  0.91191849  0.54564449  1
  Se  Se145  1  0.91350187  0.24144499  0.05786524  1
  Se  Se146  1  0.91571861  0.25014296  0.55624839  1
  Se  Se147  1  0.91761356  0.58921107  0.05622429  1
  Se  Se148  1  0.92607996  0.59596315  0.56025352  1
  Se  Se149  1  0.93157288  0.92694827  0.05475373  1
  Se  Se150  1  0.92751184  0.91943480  0.56221231  1
  Se  Se151  1  0.08730330  0.24729879  0.44988720  1
  Se  Se152  1  0.09141309  0.24080155  0.95364198  1
  Se  Se153  1  0.08053734  0.58573723  0.44355949  1
  Se  Se154  1  0.07937880  0.57950906  0.93928972  1
  Se  Se155  1  0.08262160  0.91548238  0.44917383  1
  Se  Se156  1  0.06778843  0.92755199  0.93222035  1
  Se  Se157  1  0.41618043  0.25120363  0.44266171  1
  Se  Se158  1  0.42037035  0.23753757  0.94459189  1
  Se  Se159  1  0.41735668  0.58295499  0.45007196  1
  Se  Se160  1  0.41708214  0.59099265  0.94969557  1
  Se  Se161  1  0.41155597  0.91937910  0.45558301  1
  Se  Se162  1  0.40870439  0.92039716  0.94131672  1
  Se  Se163  1  0.75560358  0.24705925  0.44409989  1
  Se  Se164  1  0.74623230  0.25183028  0.94943032  1
  Se  Se165  1  0.75172110  0.58594040  0.44483017  1
  Se  Se166  1  0.74997810  0.59999107  0.93864762  1
  Se  Se167  1  0.74727728  0.91848698  0.43485755  1
  Se  Se168  1  0.74236524  0.93326446  0.93404974  1
  Se  Se169  1  0.25718373  0.06893368  0.45925430  1
  Se  Se170  1  0.24619808  0.07652271  0.94280610  1
  Se  Se171  1  0.24479544  0.42205413  0.44450680  1
  Se  Se172  1  0.25893409  0.40288378  0.93242367  1
  Se  Se173  1  0.24248473  0.75437999  0.44816793  1
  Se  Se174  1  0.25745045  0.74248096  0.94172748  1
  Se  Se175  1  0.58438916  0.08630372  0.44318704  1
  Se  Se176  1  0.57479849  0.08783197  0.94760864  1
  Se  Se177  1  0.58502519  0.41618260  0.44659393  1
  Se  Se178  1  0.59145371  0.41056453  0.93605741  1
  Se  Se179  1  0.58266806  0.75053018  0.45009958  1
  Se  Se180  1  0.58653170  0.74949175  0.94258977  1
  Se  Se181  1  0.91785424  0.08448545  0.45045072  1
  Se  Se182  1  0.90628759  0.10222472  0.95123191  1
  Se  Se183  1  0.92233441  0.41225125  0.43970909  1
  Se  Se184  1  0.93227268  0.41057930  0.94448570  1
  Se  Se185  1  0.92196011  0.75140825  0.43713227  1
  Se  Se186  1  0.92507215  0.75128446  0.93443892  1
  Se  Se187  1  0.24472388  0.24005898  0.31703203  1
  Se  Se188  1  0.24443936  0.24168094  0.80857003  1
  Se  Se189  1  0.24557986  0.58376852  0.30297353  1
  Se  Se190  1  0.25049531  0.58015101  0.80978273  1
  Se  Se191  1  0.24978878  0.91839753  0.31163618  1
  Se  Se192  1  0.23682717  0.91168889  0.79119110  1
  Se  Se193  1  0.58504456  0.25181705  0.29995857  1
  Se  Se194  1  0.57239862  0.23641784  0.79946098  1
  Se  Se195  1  0.58346794  0.58674116  0.31146935  1
  Se  Se196  1  0.58854592  0.58765007  0.79484618  1
  Se  Se197  1  0.57820925  0.91877704  0.31621833  1
  Se  Se198  1  0.57258658  0.90534229  0.80730903  1
  Se  Se199  1  0.92172120  0.24748413  0.30638344  1
  Se  Se200  1  0.92157472  0.25043363  0.80664902  1
  Se  Se201  1  0.91834525  0.58212798  0.30265982  1
  Se  Se202  1  0.93362155  0.59808530  0.79263464  1
  Se  Se203  1  0.92317357  0.92142039  0.29809218  1
  Se  Se204  1  0.88132348  0.89387233  0.81477991  1
  Se  Se205  1  0.08341724  0.07868364  0.31212426  1
  Se  Se206  1  0.08163606  0.08955492  0.80491450  1
  Se  Se207  1  0.08041118  0.40942946  0.30087631  1
  Se  Se208  1  0.09097199  0.42381560  0.80172758  1
  Se  Se209  1  0.08034456  0.74490409  0.30487163  1
  Se  Se210  1  0.09822530  0.75400498  0.78936115  1
  Se  Se211  1  0.41362206  0.08232408  0.30786187  1
  Se  Se212  1  0.41001831  0.07262796  0.79817156  1
  Se  Se213  1  0.41621959  0.42179506  0.31572040  1
  Se  Se214  1  0.43057704  0.42182079  0.80147186  1
  Se  Se215  1  0.40638348  0.74620899  0.31363092  1
  Se  Se216  1  0.42059291  0.75794582  0.81044741  1
  Se  Se217  1  0.75938841  0.08612335  0.31068480  1
  Se  Se218  1  0.75092990  0.09110376  0.81140075  1
  Se  Se219  1  0.74732603  0.41529024  0.30442492  1
  Se  Se220  1  0.76537880  0.42269285  0.81592626  1
  Se  Se221  1  0.75447735  0.75171347  0.30259978  1
  Se  Se222  1  0.72708007  0.72952807  0.79607113  1
  Se  Se223  1  0.25787137  0.07871724  0.20519786  1
  Se  Se224  1  0.24995519  0.08570364  0.69066939  1
  Se  Se225  1  0.23917371  0.42031267  0.18947037  1
  Se  Se226  1  0.24636835  0.42355736  0.68323690  1
  Se  Se227  1  0.25394062  0.74694431  0.20594547  1
  Se  Se228  1  0.24353975  0.76038029  0.67953629  1
  Se  Se229  1  0.58025743  0.09281655  0.19049393  1
  Se  Se230  1  0.57724548  0.07607639  0.68425304  1
  Se  Se231  1  0.57526192  0.42150172  0.20261493  1
  Se  Se232  1  0.58190315  0.40946095  0.68448674  1
  Se  Se233  1  0.59425513  0.74992292  0.21304065  1
  Se  Se234  1  0.57689121  0.74419249  0.69237129  1
  Se  Se235  1  0.92274190  0.08076120  0.19705102  1
  Se  Se236  1  0.91837833  0.08088394  0.69928529  1
  Se  Se237  1  0.91804649  0.41841327  0.19891665  1
  Se  Se238  1  0.91474414  0.42257654  0.70298173  1
  Se  Se239  1  0.92123816  0.74830220  0.19693572  1
  Se  Se240  1  0.90857528  0.75997948  0.70201114  1
  Se  Se241  1  0.08426193  0.24330847  0.20226843  1
  Se  Se242  1  0.07935945  0.25476464  0.69641255  1
  Se  Se243  1  0.07908559  0.58520329  0.19747939  1
  Se  Se244  1  0.08673860  0.58787432  0.69015922  1
  Se  Se245  1  0.08752722  0.90873064  0.19901465  1
  Se  Se246  1  0.06679982  0.93649605  0.69521271  1
  Se  Se247  1  0.41641172  0.24274972  0.19275950  1
  Se  Se248  1  0.41241934  0.23635019  0.68354086  1
  Se  Se249  1  0.41099573  0.58715488  0.20609586  1
  Se  Se250  1  0.41776302  0.57482593  0.68677099  1
  Se  Se251  1  0.43800282  0.90385700  0.20552631  1
  Se  Se252  1  0.41435338  0.92053664  0.68753491  1
  Se  Se253  1  0.74886951  0.25003808  0.20251675  1
  Se  Se254  1  0.75226524  0.23847628  0.69116536  1
  Se  Se255  1  0.74800654  0.58594706  0.20138858  1
  Se  Se256  1  0.75993027  0.56248981  0.69742686  1
  Se  Se257  1  0.76258165  0.91431729  0.18680071  1
  Se  Se258  1  0.75431079  0.90750019  0.68397792  1
