# generated using pymatgen
data_In86Cu29Se144
_symmetry_space_group_name_H-M   'P 1'
_cell_length_a   17.58331711
_cell_length_b   17.58423267
_cell_length_c   23.43917787
_cell_angle_alpha   90.00478574
_cell_angle_beta   89.99654666
_cell_angle_gamma   89.98382041
_symmetry_Int_Tables_number   1
_chemical_formula_structural   In86Cu29Se144
_chemical_formula_sum   'In86 Cu29 Se144'
_cell_volume   7247.13890317
_cell_formula_units_Z   1
loop_
 _symmetry_equiv_pos_site_id
 _symmetry_equiv_pos_as_xyz
  1  'x, y, z'
loop_
 _atom_site_type_symbol
 _atom_site_label
 _atom_site_symmetry_multiplicity
 _atom_site_fract_x
 _atom_site_fract_y
 _atom_site_fract_z
 _atom_site_occupancy
  In  In0  1  -0.00571985  0.17959800  0.11922328  1
  In  In1  1  0.00813824  0.17742171  0.63608474  1
  In  In2  1  -0.00677508  0.50921108  0.12542501  1
  In  In3  1  -0.01084431  0.49458769  0.62511574  1
  In  In4  1  -0.01267902  0.80560329  0.10225008  1
  In  In5  1  -0.01522809  0.84504258  0.62644276  1
  In  In6  1  0.33767317  0.16056376  0.12878996  1
  In  In7  1  0.33555870  0.14684644  0.63241566  1
  In  In8  1  0.31964735  0.50858253  0.14237627  1
  In  In9  1  0.35631878  0.49565195  0.62822429  1
  In  In10  1  0.34067808  0.83364386  0.12128471  1
  In  In11  1  0.35355852  0.81752532  0.64757107  1
  In  In12  1  0.66224342  0.15981455  0.11577995  1
  In  In13  1  0.65968361  0.18039721  0.64089479  1
  In  In14  1  0.68126707  0.50242061  0.12261640  1
  In  In15  1  0.65212028  0.50357783  0.64211663  1
  In  In16  1  0.66330616  0.83458722  0.12415666  1
  In  In17  1  0.67061462  0.82472429  0.63515589  1
  In  In18  1  0.17211701  -0.01224335  0.37127089  1
  In  In19  1  0.16346534  -0.00879430  0.87814953  1
  In  In20  1  0.17451828  0.34373625  0.35659710  1
  In  In21  1  0.15991920  0.34411917  0.87534058  1
  In  In22  1  0.17195226  0.66665674  0.35853042  1
  In  In23  1  0.17918635  0.67145827  0.87849214  1
  In  In24  1  0.50605711  0.00150237  0.37220111  1
  In  In25  1  0.50868734  -0.00510358  0.86803929  1
  In  In26  1  0.50102192  0.33879515  0.38675614  1
  In  In27  1  0.49407599  0.32013391  0.87790657  1
  In  In28  1  0.49536627  0.66230074  0.36754186  1
  In  In29  1  0.52172753  0.69275142  0.84759990  1
  In  In30  1  0.81421851  0.00175589  0.37004875  1
  In  In31  1  0.82004634  0.00827143  0.88280860  1
  In  In32  1  0.84174507  0.32757119  0.36712560  1
  In  In33  1  0.83440398  0.33352302  0.87660602  1
  In  In34  1  0.83818548  0.67149576  0.36487296  1
  In  In35  1  0.82213601  0.68023377  0.89406587  1
  In  In36  1  -0.00491528  0.18545541  0.36939770  1
  In  In37  1  -0.01377728  0.17540840  0.87801680  1
  In  In38  1  0.00684551  0.50498796  0.35832016  1
  In  In39  1  -0.00710877  0.48715538  0.88409539  1
  In  In40  1  -0.00006382  0.82369363  0.36771562  1
  In  In41  1  -0.00104330  0.83162654  0.89605657  1
  In  In42  1  0.34175684  0.17155809  0.37301545  1
  In  In43  1  0.35025398  0.16960358  0.88034060  1
  In  In44  1  0.34457035  0.50732149  0.36667207  1
  In  In45  1  0.32967812  0.50946290  0.87201186  1
  In  In46  1  0.33015070  0.83173301  0.36310435  1
  In  In47  1  0.33988428  0.83732371  0.87289409  1
  In  In48  1  0.66452851  0.15694827  0.37413130  1
  In  In49  1  0.67013449  0.15944054  0.86748198  1
  In  In50  1  0.65523507  0.50051415  0.37572739  1
  In  In51  1  0.66700672  0.51314160  0.86766833  1
  In  In52  1  0.67270702  0.83796681  0.36855857  1
  In  In53  1  0.66628690  0.83858867  0.87398427  1
  In  In54  1  0.18416806  -0.00629687  0.12484645  1
  In  In55  1  0.18091427  0.00458752  0.63006287  1
  In  In56  1  0.15734901  0.34805708  0.14225407  1
  In  In57  1  0.16076289  0.31978446  0.63317720  1
  In  In58  1  0.15868149  0.67204553  0.13050591  1
  In  In59  1  0.17501623  0.67349739  0.62084381  1
  In  In60  1  0.50385790  0.00047055  0.12411135  1
  In  In61  1  0.49190144  0.00400853  0.63242965  1
  In  In62  1  0.49802656  0.32032083  0.11981803  1
  In  In63  1  0.51147628  0.33851220  0.61882946  1
  In  In64  1  0.49086363  0.67483075  0.13004379  1
  In  In65  1  0.51679180  0.65642406  0.64967804  1
  In  In66  1  0.82209899  -0.01113973  0.11540888  1
  In  In67  1  0.82985715  -0.01039620  0.62542451  1
  In  In68  1  0.85075209  0.34644006  0.09796526  1
  In  In69  1  0.83468804  0.32884221  0.64167945  1
  In  In70  1  0.83113082  0.66668008  0.12289949  1
  In  In71  1  0.81657479  0.66857337  0.62869067  1
  In  In72  1  0.16916001  0.50075674  0.48370780  1
  In  In73  1  0.16963330  0.83375376  0.49498160  1
  In  In74  1  0.33099072  0.33225907  0.75383323  1
  In  In75  1  0.67184573  0.33297138  0.24382902  1
  In  In76  1  0.00446521  0.65906370  0.76453067  1
  In  In77  1  0.82782373  0.16779486  0.50137968  1
  In  In78  1  -0.00449370  0.00649289  0.76016257  1
  In  In79  1  0.00803738  -0.00262847  0.24143320  1
  In  In80  1  0.16653019  0.16976512  0.00157922  1
  In  In81  1  0.50046082  0.83029771  0.50514356  1
  In  In82  1  0.16723780  0.16357167  0.50650066  1
  In  In83  1  0.82413543  0.49887853  0.50169085  1
  In  In84  1  0.49626406  0.50171892  -0.00247068  1
  In  In85  1  0.16254472  0.50894611  0.00980582  1
  Cu  Cu86  1  0.33634859  -0.00467956  0.50649613  1
  Cu  Cu87  1  0.34690598  0.32640125  0.49982875  1
  Cu  Cu88  1  0.50383181  0.50079480  0.24963243  1
  Cu  Cu89  1  0.83812737  0.50421207  0.24170892  1
  Cu  Cu90  1  0.50096618  0.16450245  0.24821997  1
  Cu  Cu91  1  0.00080474  -0.00305236  0.00096677  1
  Cu  Cu92  1  0.82827010  0.16771788  0.23971104  1
  Cu  Cu93  1  0.50166462  0.16528807  0.75295485  1
  Cu  Cu94  1  0.83347911  0.83240374  0.24009533  1
  Cu  Cu95  1  0.66563505  0.33403115  0.50839905  1
  Cu  Cu96  1  0.15964436  0.50030350  0.75171115  1
  Cu  Cu97  1  0.66022797  0.67239405  -0.00284603  1
  Cu  Cu98  1  0.34345742  0.65591490  0.49739570  1
  Cu  Cu99  1  0.66057104  0.66884963  0.50817399  1
  Cu  Cu100  1  0.32687948  0.33793399  0.00920449  1
  Cu  Cu101  1  0.83132414  0.49828044  0.75322243  1
  Cu  Cu102  1  0.50106142  0.83736851  0.24694437  1
  Cu  Cu103  1  0.66341280  -0.00292456  -0.00365386  1
  Cu  Cu104  1  0.83447517  0.82814992  0.75854164  1
  Cu  Cu105  1  -0.01558037  0.00115114  0.50311450  1
  Cu  Cu106  1  0.00260700  0.33755928  0.49748236  1
  Cu  Cu107  1  0.16822493  0.16240669  0.24434449  1
  Cu  Cu108  1  -0.01156205  0.67994006  0.49259704  1
  Cu  Cu109  1  0.17224281  0.84091397  0.75322566  1
  Cu  Cu110  1  0.34421130  0.67765863  -0.00388303  1
  Cu  Cu111  1  0.34660312  -0.00183687  0.00083240  1
  Cu  Cu112  1  0.17071030  0.83485381  0.24114471  1
  Cu  Cu113  1  0.66261491  -0.00042268  0.49795660  1
  Cu  Cu114  1  0.66689819  0.32569763  -0.00603597  1
  Se  Se115  1  0.08103556  0.07524113  0.06367063  1
  Se  Se116  1  0.07046519  0.07359513  0.56363872  1
  Se  Se117  1  0.07562094  0.40813725  0.05934843  1
  Se  Se118  1  0.08518462  0.41601775  0.55670261  1
  Se  Se119  1  0.09824957  0.74391681  0.04696308  1
  Se  Se120  1  0.07212779  0.75036828  0.55771924  1
  Se  Se121  1  0.42119748  0.08748444  0.05560923  1
  Se  Se122  1  0.41884780  0.08260956  0.55440196  1
  Se  Se123  1  0.40680910  0.42222679  0.06612604  1
  Se  Se124  1  0.42463381  0.41743462  0.55025343  1
  Se  Se125  1  0.42910300  0.75717286  0.05062475  1
  Se  Se126  1  0.41395577  0.73703589  0.56310620  1
  Se  Se127  1  0.74957063  0.08102671  0.04775510  1
  Se  Se128  1  0.73959487  0.07952878  0.56190800  1
  Se  Se129  1  0.74229603  0.41718934  0.04533575  1
  Se  Se130  1  0.74548998  0.41080816  0.56992435  1
  Se  Se131  1  0.74453722  0.74955035  0.05525808  1
  Se  Se132  1  0.74735382  0.75398492  0.55524236  1
  Se  Se133  1  0.24751742  0.25852127  0.06862581  1
  Se  Se134  1  0.26147017  0.25595980  0.56275641  1
  Se  Se135  1  0.26878916  0.59304147  0.05674891  1
  Se  Se136  1  0.25635299  0.58034363  0.55552065  1
  Se  Se137  1  0.25800620  0.91560041  0.04994974  1
  Se  Se138  1  0.25978536  0.90990412  0.56441012  1
  Se  Se139  1  0.58093949  0.24651990  0.04784986  1
  Se  Se140  1  0.58687311  0.24082828  0.55557578  1
  Se  Se141  1  0.58545950  0.58897923  0.06053071  1
  Se  Se142  1  0.58211164  0.58618870  0.56522781  1
  Se  Se143  1  0.58179912  0.91636389  0.05283035  1
  Se  Se144  1  0.58857065  0.92197901  0.56402929  1
  Se  Se145  1  0.90569432  0.23254339  0.04206950  1
  Se  Se146  1  0.92389806  0.25851900  0.55859251  1
  Se  Se147  1  0.91232603  0.58372030  0.05352791  1
  Se  Se148  1  0.91879357  0.59461371  0.55689057  1
  Se  Se149  1  0.91392585  0.91244676  0.04926756  1
  Se  Se150  1  0.90328912  0.91021811  0.54869696  1
  Se  Se151  1  0.08789956  0.25866862  0.44035569  1
  Se  Se152  1  0.07576514  0.26237374  0.94619222  1
  Se  Se153  1  0.07216895  0.59934717  0.43498511  1
  Se  Se154  1  0.07983695  0.58963837  0.93843972  1
  Se  Se155  1  0.07051597  0.92540282  0.44231933  1
  Se  Se156  1  0.09222138  0.91522649  0.95563574  1
  Se  Se157  1  0.42655265  0.23900325  0.44831163  1
  Se  Se158  1  0.41327907  0.25529953  0.95743839  1
  Se  Se159  1  0.42723175  0.57651417  0.44330418  1
  Se  Se160  1  0.41882500  0.59629063  0.93402417  1
  Se  Se161  1  0.40833959  0.91479098  0.44025269  1
  Se  Se162  1  0.42508103  0.91739589  0.94194882  1
  Se  Se163  1  0.74232311  0.26281416  0.43917448  1
  Se  Se164  1  0.74863819  0.24322057  0.93965997  1
  Se  Se165  1  0.74154599  0.59452585  0.44160717  1
  Se  Se166  1  0.74071116  0.58052426  0.94938212  1
  Se  Se167  1  0.74691571  0.91776820  0.44531697  1
  Se  Se168  1  0.75135727  0.91048497  0.94846293  1
  Se  Se169  1  0.25463453  0.07225694  0.44358769  1
  Se  Se170  1  0.25927898  0.07864786  0.94420143  1
  Se  Se171  1  0.26478989  0.40289970  0.43735333  1
  Se  Se172  1  0.25469315  0.41778537  0.94598385  1
  Se  Se173  1  0.26048576  0.73650805  0.43863301  1
  Se  Se174  1  0.25495953  0.75846645  0.94628815  1
  Se  Se175  1  0.58036891  0.08414183  0.44669080  1
  Se  Se176  1  0.58448177  0.08153933  0.93948093  1
  Se  Se177  1  0.58745417  0.42102639  0.45347251  1
  Se  Se178  1  0.58586313  0.41189491  0.93773854  1
  Se  Se179  1  0.58759600  0.74576084  0.43963928  1
  Se  Se180  1  0.57910439  0.75080031  0.93911669  1
  Se  Se181  1  0.91931326  0.08361912  0.43539378  1
  Se  Se182  1  0.92019196  0.07919390  0.94558881  1
  Se  Se183  1  0.92179869  0.41828069  0.43816625  1
  Se  Se184  1  0.90882870  0.41293053  0.95343423  1
  Se  Se185  1  0.90583690  0.76053118  0.43911659  1
  Se  Se186  1  0.92378041  0.73955195  0.95894551  1
  Se  Se187  1  0.25180199  0.24156253  0.30219364  1
  Se  Se188  1  0.24535681  0.24561468  0.81859555  1
  Se  Se189  1  0.23818848  0.56164561  0.30254585  1
  Se  Se190  1  0.24282597  0.58512382  0.80216469  1
  Se  Se191  1  0.25207598  0.91940527  0.29493875  1
  Se  Se192  1  0.25344182  0.92506753  0.80605128  1
  Se  Se193  1  0.58085893  0.24886616  0.30803025  1
  Se  Se194  1  0.58191283  0.25073300  0.80608104  1
  Se  Se195  1  0.58805316  0.58504392  0.30106009  1
  Se  Se196  1  0.57580618  0.57635953  0.79512062  1
  Se  Se197  1  0.58497498  0.91849170  0.30272189  1
  Se  Se198  1  0.57638997  0.90084947  0.79811241  1
  Se  Se199  1  0.91428608  0.25035522  0.29049627  1
  Se  Se200  1  0.91588874  0.25471913  0.80325291  1
  Se  Se201  1  0.92005041  0.58934517  0.29545548  1
  Se  Se202  1  0.90434686  0.57896469  0.81943411  1
  Se  Se203  1  0.90981242  0.91602688  0.30451149  1
  Se  Se204  1  0.91524425  0.90639264  0.81887183  1
  Se  Se205  1  0.08769078  0.08958015  0.31175122  1
  Se  Se206  1  0.08922144  0.09405488  0.81680035  1
  Se  Se207  1  0.06197392  0.39535095  0.29962900  1
  Se  Se208  1  0.07593598  0.42129166  0.80528462  1
  Se  Se209  1  0.08594585  0.75302219  0.29570642  1
  Se  Se210  1  0.08815609  0.76486703  0.81380137  1
  Se  Se211  1  0.41901796  0.08223496  0.30540980  1
  Se  Se212  1  0.41749852  0.08408371  0.80658226  1
  Se  Se213  1  0.42988726  0.41390232  0.30766760  1
  Se  Se214  1  0.42185935  0.42233026  0.81127657  1
  Se  Se215  1  0.41848252  0.75055831  0.29955735  1
  Se  Se216  1  0.39511743  0.73548907  0.80351621  1
  Se  Se217  1  0.74683549  0.08934302  0.29706280  1
  Se  Se218  1  0.74943982  0.07107577  0.80042282  1
  Se  Se219  1  0.75898867  0.42732359  0.30739910  1
  Se  Se220  1  0.74866007  0.41750113  0.80833059  1
  Se  Se221  1  0.75045669  0.75219473  0.29895512  1
  Se  Se222  1  0.75026206  0.74469094  0.81039175  1
  Se  Se223  1  0.25502768  0.07777462  0.19803204  1
  Se  Se224  1  0.23212439  0.10087919  0.70148188  1
  Se  Se225  1  0.26845192  0.39789997  0.20213710  1
  Se  Se226  1  0.24314430  0.42443267  0.68914323  1
  Se  Se227  1  0.25591505  0.74981434  0.19072133  1
  Se  Se228  1  0.24352414  0.74732561  0.70042539  1
  Se  Se229  1  0.58653088  0.08559457  0.19386732  1
  Se  Se230  1  0.58356087  0.08003641  0.69922539  1
  Se  Se231  1  0.57784821  0.42141010  0.18418832  1
  Se  Se232  1  0.58707218  0.39863438  0.70082142  1
  Se  Se233  1  0.58319559  0.75150109  0.19556078  1
  Se  Se234  1  0.56962773  0.77131076  0.70525696  1
  Se  Se235  1  0.91113917  0.08263742  0.18436021  1
  Se  Se236  1  0.91062868  0.08655178  0.68948707  1
  Se  Se237  1  0.91065875  0.41379771  0.18622387  1
  Se  Se238  1  0.92066048  0.41830126  0.70283352  1
  Se  Se239  1  0.92009249  0.74901482  0.19081622  1
  Se  Se240  1  0.91528507  0.74821699  0.69782899  1
  Se  Se241  1  0.07957772  0.24351228  0.19571308  1
  Se  Se242  1  0.07923725  0.25728046  0.71007574  1
  Se  Se243  1  0.10299354  0.56117248  0.18806172  1
  Se  Se244  1  0.08571571  0.58127641  0.68591884  1
  Se  Se245  1  0.08380967  0.90294016  0.17742978  1
  Se  Se246  1  0.08510325  0.91477013  0.69337589  1
  Se  Se247  1  0.41849600  0.24933541  0.19621003  1
  Se  Se248  1  0.42148230  0.24599472  0.69039478  1
  Se  Se249  1  0.41792261  0.58645209  0.20074391  1
  Se  Se250  1  0.40311498  0.59288729  0.70075121  1
  Se  Se251  1  0.41759795  0.91959942  0.19283343  1
  Se  Se252  1  0.40229050  0.93249638  0.70195251  1
  Se  Se253  1  0.75673392  0.25109987  0.17663437  1
  Se  Se254  1  0.76016120  0.23937946  0.70680296  1
  Se  Se255  1  0.74815770  0.58780696  0.19664466  1
  Se  Se256  1  0.74854449  0.58408266  0.70208718  1
  Se  Se257  1  0.74715632  0.91835492  0.19460654  1
  Se  Se258  1  0.75553533  0.91096287  0.70050645  1
