# generated using pymatgen
data_In86Cu29Se144
_symmetry_space_group_name_H-M   'P 1'
_cell_length_a   17.57885146
_cell_length_b   17.57878770
_cell_length_c   23.43442730
_cell_angle_alpha   89.99658381
_cell_angle_beta   90.00445915
_cell_angle_gamma   89.99708245
_symmetry_Int_Tables_number   1
_chemical_formula_structural   In86Cu29Se144
_chemical_formula_sum   'In86 Cu29 Se144'
_cell_volume   7241.58711048
_cell_formula_units_Z   1
loop_
 _symmetry_equiv_pos_site_id
 _symmetry_equiv_pos_as_xyz
  1  'x, y, z'
loop_
 _atom_site_type_symbol
 _atom_site_label
 _atom_site_symmetry_multiplicity
 _atom_site_fract_x
 _atom_site_fract_y
 _atom_site_fract_z
 _atom_site_occupancy
  In  In0  1  0.00349957  0.17123283  0.12415063  1
  In  In1  1  -0.00008225  0.18587969  0.62749899  1
  In  In2  1  -0.00891954  0.51188590  0.13567481  1
  In  In3  1  -0.00806729  0.49526639  0.61118506  1
  In  In4  1  -0.00778661  0.82482106  0.12180528  1
  In  In5  1  0.00431165  0.81385068  0.61958839  1
  In  In6  1  0.31939010  0.16588421  0.12446754  1
  In  In7  1  0.33450874  0.15079952  0.63051342  1
  In  In8  1  0.33910343  0.49544730  0.12044359  1
  In  In9  1  0.34073504  0.50552454  0.60454954  1
  In  In10  1  0.34550758  0.83803741  0.12143312  1
  In  In11  1  0.33842014  0.83460362  0.61776975  1
  In  In12  1  0.67865254  0.17024051  0.12331844  1
  In  In13  1  0.67884705  0.17758699  0.61847731  1
  In  In14  1  0.66710333  0.49760434  0.12940348  1
  In  In15  1  0.64661912  0.48165614  0.60558052  1
  In  In16  1  0.65582710  0.82227638  0.12133290  1
  In  In17  1  0.65565781  0.84494877  0.62313248  1
  In  In18  1  0.17126404  -0.01724616  0.37410063  1
  In  In19  1  0.17851587  -0.00892402  0.88170025  1
  In  In20  1  0.16386409  0.36505863  0.38163204  1
  In  In21  1  0.14721199  0.33857000  0.87347938  1
  In  In22  1  0.15767410  0.67095807  0.38522671  1
  In  In23  1  0.18013700  0.67784749  0.87823995  1
  In  In24  1  0.49275581  0.00921640  0.37683110  1
  In  In25  1  0.48795778  -0.00006951  0.87198494  1
  In  In26  1  0.50065560  0.32812971  0.38503195  1
  In  In27  1  0.51929725  0.33475087  0.86323458  1
  In  In28  1  0.52020223  0.64844556  0.39856172  1
  In  In29  1  0.49856150  0.66358162  0.88692325  1
  In  In30  1  0.84187622  0.00758916  0.37611517  1
  In  In31  1  0.83746698  -0.00197763  0.88618731  1
  In  In32  1  0.83397227  0.33803751  0.37350311  1
  In  In33  1  0.83282401  0.33678344  0.87735241  1
  In  In34  1  0.81717184  0.65328792  0.36952629  1
  In  In35  1  0.83347777  0.66424119  0.88655829  1
  In  In36  1  -0.01504750  0.16863653  0.37674503  1
  In  In37  1  -0.01029580  0.17719297  0.88302194  1
  In  In38  1  -0.00294384  0.50068429  0.37144408  1
  In  In39  1  -0.00289623  0.48830438  0.87292107  1
  In  In40  1  0.01318618  0.83088759  0.37775055  1
  In  In41  1  0.00308990  0.83215369  0.88698270  1
  In  In42  1  0.34587893  0.17421000  0.37397071  1
  In  In43  1  0.34224922  0.15025466  0.86966152  1
  In  In44  1  0.33298004  0.50297670  0.39800148  1
  In  In45  1  0.34468107  0.50576546  0.87339854  1
  In  In46  1  0.33125632  0.82904449  0.38027971  1
  In  In47  1  0.32684582  0.83514751  0.88409141  1
  In  In48  1  0.65630047  0.18244954  0.37919164  1
  In  In49  1  0.67102177  0.18244256  0.87428439  1
  In  In50  1  0.67435030  0.50234360  0.37728187  1
  In  In51  1  0.67012406  0.49861949  0.87714557  1
  In  In52  1  0.66407073  0.81700538  0.37496544  1
  In  In53  1  0.66791212  0.83044446  0.88545675  1
  In  In54  1  0.17354633  0.00646984  0.12595948  1
  In  In55  1  0.18107108  -0.00015666  0.62967383  1
  In  In56  1  0.16499239  0.32178928  0.12447823  1
  In  In57  1  0.15346799  0.33270339  0.62993182  1
  In  In58  1  0.15361973  0.66190401  0.12730562  1
  In  In59  1  0.17729247  0.67221776  0.59677999  1
  In  In60  1  0.49745693  -0.01545756  0.12680315  1
  In  In61  1  0.48914405  -0.01006661  0.61851176  1
  In  In62  1  0.49980317  0.35084162  0.12442787  1
  In  In63  1  0.50884039  0.34167735  0.61904859  1
  In  In64  1  0.50675919  0.67393840  0.12143905  1
  In  In65  1  0.49297221  0.65875709  0.60094871  1
  In  In66  1  0.83607276  0.00307101  0.11724999  1
  In  In67  1  0.81492339  0.00107300  0.62346114  1
  In  In68  1  0.83152197  0.33442892  0.12857607  1
  In  In69  1  0.83185417  0.33743301  0.62390770  1
  In  In70  1  0.83112354  0.66139813  0.12679291  1
  In  In71  1  0.82972345  0.64669201  0.61248683  1
  In  In72  1  0.00139699  0.65791953  0.73999314  1
  In  In73  1  0.66688007  -0.00126394  0.24169450  1
  In  In74  1  0.65496244  0.01288362  0.75518785  1
  In  In75  1  0.65927397  0.66007686  0.74122483  1
  In  In76  1  0.16298748  0.50400016  -0.00196907  1
  In  In77  1  0.83285420  0.83802767  0.49489274  1
  In  In78  1  0.50274306  0.16773159  -0.01220023  1
  In  In79  1  0.33764004  0.66691354  0.25866660  1
  In  In80  1  0.33444838  0.33581318  0.25733866  1
  In  In81  1  0.33544527  0.33107497  0.74477459  1
  In  In82  1  0.33674013  0.66521935  0.73862550  1
  In  In83  1  0.00226111  0.00642232  0.75179995  1
  In  In84  1  0.16577105  0.16857882  0.50545629  1
  In  In85  1  0.00368954  -0.00284618  0.24952704  1
  Cu  Cu86  1  0.49939492  0.82766711  0.25021038  1
  Cu  Cu87  1  0.16662567  0.16713489  0.75187764  1
  Cu  Cu88  1  -0.00181109  0.00334282  0.49972472  1
  Cu  Cu89  1  -0.00716901  0.33496770  0.00307560  1
  Cu  Cu90  1  0.49927603  0.17104623  0.25408095  1
  Cu  Cu91  1  0.16269097  0.49977117  0.25497241  1
  Cu  Cu92  1  0.83207527  0.82713348  0.75535236  1
  Cu  Cu93  1  0.83159663  0.49762506  0.25086013  1
  Cu  Cu94  1  0.17031271  0.83530580  0.75430697  1
  Cu  Cu95  1  0.83181293  0.48875888  0.74831363  1
  Cu  Cu96  1  0.50657078  0.50208634  0.25595004  1
  Cu  Cu97  1  0.17187746  0.82503619  0.25499001  1
  Cu  Cu98  1  0.67660977  0.33715594  0.49635993  1
  Cu  Cu99  1  0.33057401  -0.00255328  0.49958597  1
  Cu  Cu100  1  0.67093338  -0.00415061  0.00419169  1
  Cu  Cu101  1  0.33412201  0.33359052  0.00021155  1
  Cu  Cu102  1  0.33591876  0.00010301  0.00014513  1
  Cu  Cu103  1  0.66932351  0.33880147  -0.00104104  1
  Cu  Cu104  1  0.48937925  0.83275061  0.74640678  1
  Cu  Cu105  1  0.66833880  0.65945960  0.00566667  1
  Cu  Cu106  1  0.83568202  0.17889266  0.75051356  1
  Cu  Cu107  1  0.83492000  0.82061346  0.24755185  1
  Cu  Cu108  1  0.82745782  0.17644349  0.25287397  1
  Cu  Cu109  1  -0.00323422  0.66620353  0.00606078  1
  Cu  Cu110  1  0.65729501  0.00843979  0.49814902  1
  Cu  Cu111  1  0.01064543  0.00417408  0.00314268  1
  Cu  Cu112  1  0.16579330  0.16768149  0.24883073  1
  Cu  Cu113  1  0.16415147  0.50177494  0.74251133  1
  Cu  Cu114  1  -0.00769780  0.33556258  0.49859705  1
  Se  Se115  1  0.08991825  0.08914735  0.05819284  1
  Se  Se116  1  0.07563959  0.07764831  0.56745389  1
  Se  Se117  1  0.07650902  0.41573334  0.06252333  1
  Se  Se118  1  0.08462990  0.41010999  0.55127143  1
  Se  Se119  1  0.08436047  0.74919103  0.05446003  1
  Se  Se120  1  0.08062172  0.75308925  0.53960564  1
  Se  Se121  1  0.41726556  0.08356255  0.05864910  1
  Se  Se122  1  0.41292811  0.08261209  0.55173138  1
  Se  Se123  1  0.41952322  0.41944717  0.04692056  1
  Se  Se124  1  0.42682114  0.41661981  0.54635138  1
  Se  Se125  1  0.41774018  0.74794157  0.05494646  1
  Se  Se126  1  0.40641883  0.74877464  0.54509745  1
  Se  Se127  1  0.75187110  0.08685015  0.05077476  1
  Se  Se128  1  0.75001695  0.08475020  0.54792912  1
  Se  Se129  1  0.75056767  0.41759043  0.05799746  1
  Se  Se130  1  0.75988437  0.42232510  0.54969324  1
  Se  Se131  1  0.75048074  0.74702879  0.05727675  1
  Se  Se132  1  0.74683715  0.75563447  0.56269921  1
  Se  Se133  1  0.24924616  0.25053582  0.05027545  1
  Se  Se134  1  0.25373706  0.25200261  0.56974462  1
  Se  Se135  1  0.25353920  0.58978265  0.06018738  1
  Se  Se136  1  0.23804525  0.56433406  0.53983113  1
  Se  Se137  1  0.25407517  0.92034716  0.05839302  1
  Se  Se138  1  0.24549628  0.91654459  0.55350405  1
  Se  Se139  1  0.58525546  0.25611666  0.05686407  1
  Se  Se140  1  0.59142257  0.25529640  0.55046492  1
  Se  Se141  1  0.58281202  0.57772257  0.05862293  1
  Se  Se142  1  0.60851228  0.60192441  0.54892020  1
  Se  Se143  1  0.58214534  0.91504607  0.05338250  1
  Se  Se144  1  0.57797516  0.91746355  0.54710395  1
  Se  Se145  1  0.91314091  0.24939929  0.05865065  1
  Se  Se146  1  0.91299106  0.25023306  0.55369859  1
  Se  Se147  1  0.91455820  0.57901250  0.05557555  1
  Se  Se148  1  0.94044707  0.60603496  0.54923894  1
  Se  Se149  1  0.92385533  0.92026654  0.05408335  1
  Se  Se150  1  0.92106952  0.92308337  0.56405862  1
  Se  Se151  1  0.07822073  0.25635157  0.43997822  1
  Se  Se152  1  0.08092415  0.25530196  0.95004494  1
  Se  Se153  1  0.10654039  0.55173350  0.43667632  1
  Se  Se154  1  0.07292288  0.59392381  0.93535188  1
  Se  Se155  1  0.08266490  0.91994546  0.44925346  1
  Se  Se156  1  0.08972620  0.91596956  0.95027780  1
  Se  Se157  1  0.41008854  0.25245079  0.45222797  1
  Se  Se158  1  0.41169440  0.26082999  0.93175024  1
  Se  Se159  1  0.41539070  0.58859466  0.46144421  1
  Se  Se160  1  0.40231854  0.59045566  0.94985558  1
  Se  Se161  1  0.41567419  0.91929353  0.44329536  1
  Se  Se162  1  0.42002544  0.91691349  0.94718451  1
  Se  Se163  1  0.75642034  0.24909722  0.44331910  1
  Se  Se164  1  0.75332951  0.25205983  0.94907879  1
  Se  Se165  1  0.74246885  0.59075333  0.45153166  1
  Se  Se166  1  0.75074867  0.57715172  0.94989667  1
  Se  Se167  1  0.73855181  0.92895985  0.43559620  1
  Se  Se168  1  0.75530384  0.91126065  0.95123200  1
  Se  Se169  1  0.25160185  0.08051954  0.43946211  1
  Se  Se170  1  0.25612518  0.08589073  0.94567240  1
  Se  Se171  1  0.27900110  0.38139543  0.44707047  1
  Se  Se172  1  0.25317382  0.41255714  0.93669751  1
  Se  Se173  1  0.24508548  0.75223140  0.44837310  1
  Se  Se174  1  0.24815824  0.75372825  0.95458950  1
  Se  Se175  1  0.57564230  0.09330048  0.44421523  1
  Se  Se176  1  0.59643023  0.07199837  0.93547363  1
  Se  Se177  1  0.58819611  0.41759807  0.44463442  1
  Se  Se178  1  0.58193962  0.41517665  0.94335089  1
  Se  Se179  1  0.57905079  0.76266871  0.45310894  1
  Se  Se180  1  0.58624389  0.74537356  0.95154910  1
  Se  Se181  1  0.91252778  0.08769075  0.45237133  1
  Se  Se182  1  0.92056173  0.08345623  0.95121711  1
  Se  Se183  1  0.91309203  0.42225066  0.44404718  1
  Se  Se184  1  0.91407417  0.42106233  0.94834143  1
  Se  Se185  1  0.91352268  0.74564797  0.43246557  1
  Se  Se186  1  0.91429107  0.75187542  0.95171144  1
  Se  Se187  1  0.23830821  0.24910759  0.31445471  1
  Se  Se188  1  0.24528814  0.24995259  0.81288575  1
  Se  Se189  1  0.25025703  0.57223158  0.31556293  1
  Se  Se190  1  0.24279597  0.57930681  0.80426283  1
  Se  Se191  1  0.25737199  0.91017665  0.30300552  1
  Se  Se192  1  0.25634422  0.91513783  0.80588489  1
  Se  Se193  1  0.57822201  0.25891181  0.30433235  1
  Se  Se194  1  0.57807128  0.23187134  0.79929905  1
  Se  Se195  1  0.58555005  0.58716039  0.31072341  1
  Se  Se196  1  0.57376511  0.57959859  0.81018510  1
  Se  Se197  1  0.58007354  0.91460698  0.30802242  1
  Se  Se198  1  0.57817718  0.90211452  0.80789340  1
  Se  Se199  1  0.91800418  0.25429794  0.30298972  1
  Se  Se200  1  0.91987890  0.25763530  0.80648829  1
  Se  Se201  1  0.91380644  0.58402730  0.30306117  1
  Se  Se202  1  0.90625364  0.57866164  0.80589924  1
  Se  Se203  1  0.90943024  0.90641995  0.30772000  1
  Se  Se204  1  0.91447741  0.90872279  0.81025315  1
  Se  Se205  1  0.08897115  0.08755355  0.31399458  1
  Se  Se206  1  0.08948131  0.08927249  0.81764031  1
  Se  Se207  1  0.07676869  0.41160600  0.30082995  1
  Se  Se208  1  0.07994880  0.42087914  0.79611873  1
  Se  Se209  1  0.08435656  0.74477624  0.30521676  1
  Se  Se210  1  0.08427720  0.75259375  0.80707088  1
  Se  Se211  1  0.41376973  0.08544174  0.30105776  1
  Se  Se212  1  0.42965636  0.08681599  0.79612819  1
  Se  Se213  1  0.42036680  0.42933707  0.31658368  1
  Se  Se214  1  0.42550033  0.42498812  0.80157353  1
  Se  Se215  1  0.43295552  0.74732067  0.31942294  1
  Se  Se216  1  0.41754643  0.75004555  0.81017467  1
  Se  Se217  1  0.74946972  0.08848539  0.30877861  1
  Se  Se218  1  0.76452987  0.08847242  0.81019134  1
  Se  Se219  1  0.74668906  0.41572222  0.30422603  1
  Se  Se220  1  0.74673473  0.41344240  0.80605900  1
  Se  Se221  1  0.74432978  0.74533258  0.29970693  1
  Se  Se222  1  0.74943067  0.74545644  0.81018840  1
  Se  Se223  1  0.25254048  0.08328724  0.20146046  1
  Se  Se224  1  0.25122957  0.07960919  0.70598853  1
  Se  Se225  1  0.24329979  0.42310135  0.19176547  1
  Se  Se226  1  0.25149008  0.42732852  0.68421886  1
  Se  Se227  1  0.25029685  0.74888744  0.19027298  1
  Se  Se228  1  0.23783994  0.75333710  0.68564570  1
  Se  Se229  1  0.57336382  0.09328671  0.18649159  1
  Se  Se230  1  0.58129193  0.08593620  0.67728691  1
  Se  Se231  1  0.58359220  0.41494115  0.20069327  1
  Se  Se232  1  0.58725462  0.41935073  0.69310126  1
  Se  Se233  1  0.58524463  0.74466446  0.19974403  1
  Se  Se234  1  0.56655931  0.75296322  0.68468942  1
  Se  Se235  1  0.90707139  0.08912641  0.19606109  1
  Se  Se236  1  0.90594019  0.08903415  0.69008600  1
  Se  Se237  1  0.91681055  0.41475848  0.19805503  1
  Se  Se238  1  0.92226569  0.41823766  0.69084044  1
  Se  Se239  1  0.92152253  0.74080206  0.19545808  1
  Se  Se240  1  0.90125676  0.74928351  0.68816738  1
  Se  Se241  1  0.08091461  0.25098343  0.19861206  1
  Se  Se242  1  0.07995522  0.25243622  0.70563981  1
  Se  Se243  1  0.08093890  0.58677732  0.20457483  1
  Se  Se244  1  0.09644501  0.58277447  0.67595402  1
  Se  Se245  1  0.09268918  0.90538102  0.19129035  1
  Se  Se246  1  0.08390903  0.90707558  0.69174347  1
  Se  Se247  1  0.41913014  0.24847543  0.18845152  1
  Se  Se248  1  0.42699106  0.24487143  0.68605513  1
  Se  Se249  1  0.42262630  0.57583638  0.19394052  1
  Se  Se250  1  0.42846580  0.57434222  0.68329572  1
  Se  Se251  1  0.41508553  0.91444083  0.20195146  1
  Se  Se252  1  0.40746428  0.91722528  0.69451306  1
  Se  Se253  1  0.74231321  0.25600667  0.19877930  1
  Se  Se254  1  0.74959510  0.25676566  0.69589290  1
  Se  Se255  1  0.74804949  0.58260665  0.19809318  1
  Se  Se256  1  0.75224425  0.56735411  0.68753697  1
  Se  Se257  1  0.76030484  0.90653240  0.18683184  1
  Se  Se258  1  0.74867044  0.91088413  0.70103456  1
