# generated using pymatgen
data_In86Cu29Se144
_symmetry_space_group_name_H-M   'P 1'
_cell_length_a   17.58361151
_cell_length_b   17.58697430
_cell_length_c   23.43986010
_cell_angle_alpha   90.02615560
_cell_angle_beta   89.98954298
_cell_angle_gamma   90.00148653
_symmetry_Int_Tables_number   1
_chemical_formula_structural   In86Cu29Se144
_chemical_formula_sum   'In86 Cu29 Se144'
_cell_volume   7248.60061367
_cell_formula_units_Z   1
loop_
 _symmetry_equiv_pos_site_id
 _symmetry_equiv_pos_as_xyz
  1  'x, y, z'
loop_
 _atom_site_type_symbol
 _atom_site_label
 _atom_site_symmetry_multiplicity
 _atom_site_fract_x
 _atom_site_fract_y
 _atom_site_fract_z
 _atom_site_occupancy
  In  In0  1  0.01516456  0.16754499  0.12124872  1
  In  In1  1  -0.00826864  0.17883093  0.63793742  1
  In  In2  1  -0.00202410  0.49787174  0.12774407  1
  In  In3  1  -0.01529717  0.50460252  0.63100586  1
  In  In4  1  -0.00131086  0.82431597  0.11746845  1
  In  In5  1  0.00731301  0.83808462  0.62233086  1
  In  In6  1  0.33195829  0.16567512  0.12196908  1
  In  In7  1  0.32527500  0.16225933  0.62742794  1
  In  In8  1  0.32004657  0.51609995  0.13569178  1
  In  In9  1  0.34555081  0.48848242  0.61785379  1
  In  In10  1  0.32562926  0.82392328  0.12391834  1
  In  In11  1  0.33594054  0.84194087  0.62528102  1
  In  In12  1  0.64568715  0.16561613  0.11679368  1
  In  In13  1  0.66382876  0.16347296  0.63799953  1
  In  In14  1  0.67507492  0.50009667  0.11694796  1
  In  In15  1  0.67194247  0.50560798  0.63074161  1
  In  In16  1  0.66810960  0.82795034  0.10718689  1
  In  In17  1  0.67600754  0.81817131  0.63861142  1
  In  In18  1  0.16513575  -0.01593507  0.36998267  1
  In  In19  1  0.16867060  0.00065957  0.87994906  1
  In  In20  1  0.16672821  0.33946613  0.36684499  1
  In  In21  1  0.16635055  0.33171711  0.88492434  1
  In  In22  1  0.16460938  0.67556460  0.36464155  1
  In  In23  1  0.16629014  0.66748090  0.88671445  1
  In  In24  1  0.48981090  0.00601382  0.37430805  1
  In  In25  1  0.50346568  -0.00130220  0.88086204  1
  In  In26  1  0.50189462  0.34220196  0.37764338  1
  In  In27  1  0.49942111  0.32452259  0.87412206  1
  In  In28  1  0.48469685  0.66336620  0.37086156  1
  In  In29  1  0.53510495  0.67187228  0.87977251  1
  In  In30  1  0.82396901  -0.00326922  0.37883166  1
  In  In31  1  0.82814079  -0.01589728  0.86680919  1
  In  In32  1  0.84624681  0.34572156  0.37195737  1
  In  In33  1  0.83853799  0.34912185  0.86174937  1
  In  In34  1  0.84416793  0.66110324  0.38040965  1
  In  In35  1  0.82595977  0.66123741  0.87947438  1
  In  In36  1  -0.00759028  0.17965493  0.37045562  1
  In  In37  1  0.01305423  0.17170251  0.87440563  1
  In  In38  1  -0.00957696  0.50347629  0.36442226  1
  In  In39  1  0.00381534  0.49559974  0.88056549  1
  In  In40  1  0.00772970  0.82712578  0.37868198  1
  In  In41  1  -0.00754611  0.83330498  0.88090121  1
  In  In42  1  0.32843420  0.16158416  0.36266755  1
  In  In43  1  0.34394182  0.14913941  0.89463018  1
  In  In44  1  0.33433689  0.49963323  0.37087498  1
  In  In45  1  0.33533522  0.48914899  0.88011793  1
  In  In46  1  0.31081398  0.81845797  0.35339197  1
  In  In47  1  0.32788242  0.84963244  0.89128003  1
  In  In48  1  0.66028998  0.16754398  0.37799784  1
  In  In49  1  0.66356692  0.15735195  0.86590515  1
  In  In50  1  0.67123629  0.49883236  0.38473864  1
  In  In51  1  0.67943443  0.52006764  0.84414100  1
  In  In52  1  0.67076615  0.83865908  0.38055069  1
  In  In53  1  0.66618015  0.82983769  0.88162923  1
  In  In54  1  0.17858619  0.00338323  0.11406680  1
  In  In55  1  0.17446500  -0.00488199  0.63249725  1
  In  In56  1  0.16415221  0.33787538  0.12688910  1
  In  In57  1  0.16898466  0.32396076  0.62704280  1
  In  In58  1  0.16975908  0.66880403  0.12208608  1
  In  In59  1  0.15188748  0.66677539  0.62145994  1
  In  In60  1  0.44629480  -0.02887782  0.07706165  1
  In  In61  1  0.49462537  -0.00297218  0.63787179  1
  In  In62  1  0.49280124  0.32046566  0.11843768  1
  In  In63  1  0.50583565  0.35758729  0.62878960  1
  In  In64  1  0.48765810  0.65987854  0.12480323  1
  In  In65  1  0.51161503  0.66417445  0.63045499  1
  In  In66  1  0.84190960  -0.01220042  0.12025595  1
  In  In67  1  0.84280446  -0.00587897  0.63706086  1
  In  In68  1  0.83574821  0.34920551  0.12449781  1
  In  In69  1  0.81715997  0.35574215  0.64626676  1
  In  In70  1  0.83887705  0.67313567  0.11929318  1
  In  In71  1  0.82321146  0.65721672  0.61989029  1
  In  In72  1  0.16485491  0.16574954  0.50767441  1
  In  In73  1  0.66163426  0.00520759  0.25120248  1
  In  In74  1  0.83624983  0.17076938  0.50033480  1
  In  In75  1  0.33607821  0.32551362  0.75126224  1
  In  In76  1  0.66681133  0.66736312  0.24246216  1
  In  In77  1  0.00802189  -0.00265612  0.24150163  1
  In  In78  1  0.34109512  0.67654724  0.75569474  1
  In  In79  1  0.83449783  0.16394460  -0.01304943  1
  In  In80  1  -0.00828452  0.66815047  0.75856118  1
  In  In81  1  0.50491909  0.50135473  -0.00251560  1
  In  In82  1  0.50028811  0.16728937  0.50252279  1
  In  In83  1  0.66415826  0.33553876  0.25351893  1
  In  In84  1  0.16675735  0.50481293  0.49182554  1
  In  In85  1  0.50006273  0.83065972  0.50143164  1
  Cu  Cu86  1  0.48630878  0.15964987  0.24131723  1
  Cu  Cu87  1  0.48902223  0.84166907  0.23980116  1
  Cu  Cu88  1  0.16582487  0.17131530  0.24348026  1
  Cu  Cu89  1  0.49917072  0.49440542  0.24932995  1
  Cu  Cu90  1  0.83764200  0.83145414  0.24667808  1
  Cu  Cu91  1  0.33036264  0.66578081  0.48991719  1
  Cu  Cu92  1  0.17161454  0.84048407  0.75262268  1
  Cu  Cu93  1  0.32539186  -0.01045569  0.49843453  1
  Cu  Cu94  1  -0.00226425  0.34457572  0.50162573  1
  Cu  Cu95  1  0.67259781  0.34278458  0.50802706  1
  Cu  Cu96  1  0.66839149  0.66288231  0.50648097  1
  Cu  Cu97  1  0.49522918  0.15922958  0.75705646  1
  Cu  Cu98  1  0.16593776  0.49408078  0.75991396  1
  Cu  Cu99  1  0.17147956  0.16037520  0.75549101  1
  Cu  Cu100  1  0.00142463  -0.00507430  0.50608364  1
  Cu  Cu101  1  0.32515466  0.33796145  0.00643621  1
  Cu  Cu102  1  0.67089307  0.34078885  -0.00723799  1
  Cu  Cu103  1  0.84190336  0.16269095  0.75827144  1
  Cu  Cu104  1  0.33546459  0.66701343  0.00108050  1
  Cu  Cu105  1  0.67458713  -0.01060034  0.51026572  1
  Cu  Cu106  1  0.67010606  0.00360280  -0.00747035  1
  Cu  Cu107  1  -0.00702197  0.67705696  0.50022566  1
  Cu  Cu108  1  -0.00386294  0.33542230  -0.00086807  1
  Cu  Cu109  1  0.49873647  0.83966953  0.76120940  1
  Cu  Cu110  1  0.16275892  0.50281294  0.24747961  1
  Cu  Cu111  1  0.83333114  0.83057365  0.75389430  1
  Cu  Cu112  1  0.00251683  -0.01073432  -0.00112884  1
  Cu  Cu113  1  0.00236780  0.65687042  0.00309884  1
  Cu  Cu114  1  0.83519160  0.17935070  0.24386370  1
  Se  Se115  1  0.08161393  0.07840758  0.04992745  1
  Se  Se116  1  0.07198273  0.08058642  0.56767513  1
  Se  Se117  1  0.07945754  0.41613566  0.05574348  1
  Se  Se118  1  0.08393926  0.41790158  0.56224131  1
  Se  Se119  1  0.08640836  0.74663526  0.04933376  1
  Se  Se120  1  0.08495648  0.75457716  0.54957764  1
  Se  Se121  1  0.43728447  0.11308751  0.05443656  1
  Se  Se122  1  0.40800252  0.06941921  0.55741531  1
  Se  Se123  1  0.40858603  0.42266199  0.06227559  1
  Se  Se124  1  0.42029450  0.40593518  0.54811962  1
  Se  Se125  1  0.41950158  0.74884143  0.05399052  1
  Se  Se126  1  0.40907566  0.73822496  0.55949780  1
  Se  Se127  1  0.75007504  0.08086154  0.05878365  1
  Se  Se128  1  0.74894377  0.08145947  0.56348387  1
  Se  Se129  1  0.75571568  0.41832850  0.04719798  1
  Se  Se130  1  0.75786134  0.42404060  0.55972907  1
  Se  Se131  1  0.75609447  0.74663298  0.04623517  1
  Se  Se132  1  0.74844621  0.75332527  0.55527465  1
  Se  Se133  1  0.24380209  0.25140983  0.05793362  1
  Se  Se134  1  0.26527794  0.25991780  0.55384170  1
  Se  Se135  1  0.25099070  0.58161075  0.05189556  1
  Se  Se136  1  0.25671042  0.58978526  0.55983011  1
  Se  Se137  1  0.25885360  0.91464087  0.05048741  1
  Se  Se138  1  0.24337581  0.91100891  0.55571211  1
  Se  Se139  1  0.58462896  0.25918420  0.04429014  1
  Se  Se140  1  0.59427098  0.25429406  0.56178027  1
  Se  Se141  1  0.59205100  0.59584191  0.05703685  1
  Se  Se142  1  0.58367466  0.58006581  0.55786219  1
  Se  Se143  1  0.59064006  0.93312712  0.05849125  1
  Se  Se144  1  0.58641538  0.91625189  0.56801431  1
  Se  Se145  1  0.91631275  0.25006836  0.05733551  1
  Se  Se146  1  0.91916053  0.26339092  0.56176008  1
  Se  Se147  1  0.91500213  0.57764349  0.05553104  1
  Se  Se148  1  0.91880283  0.58560645  0.55326198  1
  Se  Se149  1  0.91465261  0.90642554  0.04741122  1
  Se  Se150  1  0.91289558  0.91658487  0.55833506  1
  Se  Se151  1  0.07701362  0.25940717  0.44478508  1
  Se  Se152  1  0.08301380  0.24816745  0.95350498  1
  Se  Se153  1  0.07332687  0.59605719  0.43819534  1
  Se  Se154  1  0.08790938  0.57539777  0.94986439  1
  Se  Se155  1  0.08418020  0.91763119  0.44748839  1
  Se  Se156  1  0.08736885  0.90814429  0.94503491  1
  Se  Se157  1  0.41098966  0.24663821  0.43596387  1
  Se  Se158  1  0.40983593  0.26142405  0.94817885  1
  Se  Se159  1  0.41605950  0.57818817  0.44477434  1
  Se  Se160  1  0.41645443  0.59367806  0.93600360  1
  Se  Se161  1  0.40802536  0.91266995  0.43774371  1
  Se  Se162  1  0.41866626  0.92883749  0.95645761  1
  Se  Se163  1  0.74383015  0.26274852  0.44006806  1
  Se  Se164  1  0.74656207  0.25767173  0.93058681  1
  Se  Se165  1  0.75395203  0.58577354  0.44861276  1
  Se  Se166  1  0.73375159  0.57461272  0.93662356  1
  Se  Se167  1  0.75626635  0.91074193  0.45305316  1
  Se  Se168  1  0.75500262  0.91507279  0.94710291  1
  Se  Se169  1  0.25070421  0.07821261  0.44114504  1
  Se  Se170  1  0.23515030  0.09085842  0.95280170  1
  Se  Se171  1  0.25660450  0.40622667  0.44241398  1
  Se  Se172  1  0.24587097  0.42210227  0.95117545  1
  Se  Se173  1  0.24778875  0.75106709  0.43958115  1
  Se  Se174  1  0.25013540  0.75195665  0.95160916  1
  Se  Se175  1  0.59295972  0.06681281  0.44804899  1
  Se  Se176  1  0.58582994  0.09037659  0.94532759  1
  Se  Se177  1  0.58480504  0.41648479  0.44999602  1
  Se  Se178  1  0.59046082  0.41790815  0.93109294  1
  Se  Se179  1  0.58823706  0.73707181  0.43983504  1
  Se  Se180  1  0.57362808  0.76759320  0.95544356  1
  Se  Se181  1  0.92791601  0.07676840  0.44122019  1
  Se  Se182  1  0.92564830  0.06897810  0.93440993  1
  Se  Se183  1  0.91880509  0.42761727  0.44545323  1
  Se  Se184  1  0.91157584  0.41563874  0.94498211  1
  Se  Se185  1  0.91060165  0.76068367  0.44629311  1
  Se  Se186  1  0.92031911  0.73637529  0.94400801  1
  Se  Se187  1  0.24791045  0.25281524  0.30021854  1
  Se  Se188  1  0.25194749  0.23980663  0.81699107  1
  Se  Se189  1  0.24723641  0.58100727  0.30543983  1
  Se  Se190  1  0.24813539  0.58040209  0.81186120  1
  Se  Se191  1  0.25543123  0.92917694  0.29545830  1
  Se  Se192  1  0.25358982  0.91817579  0.80988203  1
  Se  Se193  1  0.56918668  0.23611318  0.30459858  1
  Se  Se194  1  0.58073725  0.24713663  0.80183832  1
  Se  Se195  1  0.58122606  0.57561965  0.30828729  1
  Se  Se196  1  0.56445881  0.58451161  0.79585761  1
  Se  Se197  1  0.57188549  0.90695376  0.30902319  1
  Se  Se198  1  0.58827358  0.91855687  0.81184165  1
  Se  Se199  1  0.91737210  0.26106979  0.29789618  1
  Se  Se200  1  0.92328975  0.25043319  0.80782480  1
  Se  Se201  1  0.92002370  0.59961952  0.29980168  1
  Se  Se202  1  0.90702526  0.56827018  0.80932754  1
  Se  Se203  1  0.91091055  0.91871565  0.30697959  1
  Se  Se204  1  0.92482396  0.91172060  0.80135614  1
  Se  Se205  1  0.08688156  0.09311841  0.30898234  1
  Se  Se206  1  0.08461944  0.07833734  0.80665054  1
  Se  Se207  1  0.07961280  0.41935135  0.30190740  1
  Se  Se208  1  0.08533094  0.40996922  0.81178905  1
  Se  Se209  1  0.08519646  0.76453757  0.29947185  1
  Se  Se210  1  0.09359656  0.75454183  0.81003675  1
  Se  Se211  1  0.40966449  0.07313023  0.29733161  1
  Se  Se212  1  0.41369659  0.07877517  0.81232346  1
  Se  Se213  1  0.41721074  0.41185156  0.30409741  1
  Se  Se214  1  0.42467613  0.42299205  0.80467976  1
  Se  Se215  1  0.41871922  0.75081636  0.29726727  1
  Se  Se216  1  0.42100893  0.76139959  0.82479100  1
  Se  Se217  1  0.75950926  0.09905890  0.30723620  1
  Se  Se218  1  0.75254413  0.07657621  0.80140775  1
  Se  Se219  1  0.75591190  0.43042585  0.30514247  1
  Se  Se220  1  0.73562299  0.40342650  0.79316654  1
  Se  Se221  1  0.75223306  0.75731291  0.30784465  1
  Se  Se222  1  0.75056513  0.75020296  0.80971382  1
  Se  Se223  1  0.24674662  0.08514572  0.19193037  1
  Se  Se224  1  0.25624970  0.07922471  0.70153935  1
  Se  Se225  1  0.24885388  0.41715143  0.19825122  1
  Se  Se226  1  0.24696212  0.42386348  0.69297785  1
  Se  Se227  1  0.26043288  0.73347079  0.19544245  1
  Se  Se228  1  0.24125711  0.75265132  0.69072779  1
  Se  Se229  1  0.56843842  0.07821239  0.18539717  1
  Se  Se230  1  0.58191180  0.07662514  0.70360182  1
  Se  Se231  1  0.57810568  0.42086031  0.18477400  1
  Se  Se232  1  0.60230706  0.40885954  0.69962188  1
  Se  Se233  1  0.57651830  0.76136702  0.18620850  1
  Se  Se234  1  0.57598009  0.75290103  0.70432968  1
  Se  Se235  1  0.91012378  0.09087032  0.18735471  1
  Se  Se236  1  0.92502776  0.08030616  0.70289990  1
  Se  Se237  1  0.91898050  0.41341853  0.19878437  1
  Se  Se238  1  0.93676698  0.40205047  0.69928574  1
  Se  Se239  1  0.91984163  0.74929641  0.19342659  1
  Se  Se240  1  0.91191023  0.75380476  0.68886310  1
  Se  Se241  1  0.07807709  0.25468348  0.19639214  1
  Se  Se242  1  0.09244119  0.24870521  0.70152723  1
  Se  Se243  1  0.08404732  0.58603484  0.19090674  1
  Se  Se244  1  0.08887503  0.57738373  0.69922594  1
  Se  Se245  1  0.09422726  0.90914441  0.18124639  1
  Se  Se246  1  0.08314144  0.91659621  0.69768749  1
  Se  Se247  1  0.40947418  0.25420161  0.19435840  1
  Se  Se248  1  0.42882408  0.24080464  0.68652920  1
  Se  Se249  1  0.41652437  0.58539504  0.20320173  1
  Se  Se250  1  0.41675715  0.57732060  0.69222209  1
  Se  Se251  1  0.41476403  0.92145511  0.18008035  1
  Se  Se252  1  0.41034877  0.91313589  0.70415642  1
  Se  Se253  1  0.74388191  0.24543069  0.18407089  1
  Se  Se254  1  0.75847771  0.24042180  0.69970017  1
  Se  Se255  1  0.76029005  0.57599893  0.18994833  1
  Se  Se256  1  0.75248528  0.58975917  0.70000314  1
  Se  Se257  1  0.75077153  0.91096461  0.19140800  1
  Se  Se258  1  0.74939204  0.91615390  0.70105957  1
