# generated using pymatgen
data_In86Cu29Se144
_symmetry_space_group_name_H-M   'P 1'
_cell_length_a   17.75159865
_cell_length_b   17.73680520
_cell_length_c   23.56489984
_cell_angle_alpha   89.96782959
_cell_angle_beta   90.00091571
_cell_angle_gamma   89.99768981
_symmetry_Int_Tables_number   1
_chemical_formula_structural   In86Cu29Se144
_chemical_formula_sum   'In86 Cu29 Se144'
_cell_volume   7419.56417945
_cell_formula_units_Z   1
loop_
 _symmetry_equiv_pos_site_id
 _symmetry_equiv_pos_as_xyz
  1  'x, y, z'
loop_
 _atom_site_type_symbol
 _atom_site_label
 _atom_site_symmetry_multiplicity
 _atom_site_fract_x
 _atom_site_fract_y
 _atom_site_fract_z
 _atom_site_occupancy
  In  In0  1  0.00193891  0.16154119  0.12514285  1
  In  In1  1  0.00850723  0.16766776  0.62132559  1
  In  In2  1  0.00570586  0.50939972  0.11813518  1
  In  In3  1  -0.01268769  0.49809254  0.63100694  1
  In  In4  1  0.01329771  0.83481478  0.14004199  1
  In  In5  1  -0.00286175  0.84264487  0.62050929  1
  In  In6  1  0.33886371  0.17672137  0.11245182  1
  In  In7  1  0.32153885  0.15661940  0.62773207  1
  In  In8  1  0.36730805  0.55334372  0.07610113  1
  In  In9  1  0.32858088  0.49788999  0.63602660  1
  In  In10  1  0.32949708  0.81488798  0.11215366  1
  In  In11  1  0.35651578  0.83742723  0.62896927  1
  In  In12  1  0.66731005  0.17160229  0.12015062  1
  In  In13  1  0.68069310  0.14519208  0.63885092  1
  In  In14  1  0.68289562  0.50413131  0.12186057  1
  In  In15  1  0.66868909  0.49670232  0.63667476  1
  In  In16  1  0.65969945  0.84972778  0.12669319  1
  In  In17  1  0.67408179  0.83015808  0.62017915  1
  In  In18  1  0.16652949  0.01164896  0.37121687  1
  In  In19  1  0.17898239  -0.01431196  0.88344009  1
  In  In20  1  0.15841871  0.32050448  0.37287051  1
  In  In21  1  0.16307103  0.33922140  0.88436231  1
  In  In22  1  0.16724576  0.67669960  0.35572191  1
  In  In23  1  0.21163836  0.61262524  0.93127036  1
  In  In24  1  0.50357353  -0.00555020  0.37387131  1
  In  In25  1  0.49019663  0.00867069  0.86716728  1
  In  In26  1  0.49357530  0.32690394  0.36912581  1
  In  In27  1  0.53700721  0.25642171  0.93819046  1
  In  In28  1  0.50232314  0.66550312  0.35863208  1
  In  In29  1  0.50283085  0.65282731  0.88630425  1
  In  In30  1  0.82595689  0.00389798  0.37640382  1
  In  In31  1  0.82598483  0.00945797  0.87256746  1
  In  In32  1  0.82348786  0.33646466  0.37303143  1
  In  In33  1  0.82615807  0.31877593  0.88242134  1
  In  In34  1  0.83975374  0.67788769  0.36203361  1
  In  In35  1  0.81715342  0.66687991  0.87293967  1
  In  In36  1  0.00230227  0.16080311  0.37967417  1
  In  In37  1  -0.00779533  0.17182336  0.87953830  1
  In  In38  1  -0.00911497  0.50075864  0.36912939  1
  In  In39  1  0.00484149  0.48335591  0.88632649  1
  In  In40  1  -0.01106189  0.82688484  0.36253180  1
  In  In41  1  0.01136989  0.82805914  0.87807956  1
  In  In42  1  0.33175978  0.15901337  0.37837709  1
  In  In43  1  0.33917081  0.15603346  0.89036727  1
  In  In44  1  0.32503283  0.49872151  0.36593765  1
  In  In45  1  0.38776855  0.43431160  0.93355451  1
  In  In46  1  0.34463254  0.82950937  0.36861312  1
  In  In47  1  0.33194063  0.82528674  0.88356173  1
  In  In48  1  0.66921208  0.17893832  0.37000189  1
  In  In49  1  0.67242519  0.16443341  0.86553312  1
  In  In50  1  0.65989081  0.49704092  0.35865567  1
  In  In51  1  0.66121684  0.49012018  0.88782189  1
  In  In52  1  0.67089707  0.84323775  0.36613418  1
  In  In53  1  0.66069549  0.83037736  0.87104237  1
  In  In54  1  0.16548609  -0.00858183  0.12183952  1
  In  In55  1  0.16239957  0.00286356  0.62863850  1
  In  In56  1  0.17804748  0.34601956  0.10756850  1
  In  In57  1  0.17193759  0.32233913  0.63386083  1
  In  In58  1  0.16293633  0.67325779  0.12322533  1
  In  In59  1  0.16662198  0.66379754  0.62737524  1
  In  In60  1  0.50890643  0.00657229  0.11272173  1
  In  In61  1  0.54036682  -0.03396652  0.70029308  1
  In  In62  1  0.53571751  0.39005174  0.07372356  1
  In  In63  1  0.50452849  0.34069907  0.63229581  1
  In  In64  1  0.51086229  0.67882227  0.12179247  1
  In  In65  1  0.51194549  0.66834190  0.62746433  1
  In  In66  1  0.82380551  0.02206448  0.12124408  1
  In  In67  1  0.82999253  -0.00257139  0.61569633  1
  In  In68  1  0.82471448  0.32319433  0.11665252  1
  In  In69  1  0.83678499  0.32379290  0.63294196  1
  In  In70  1  0.84300059  0.66843821  0.13042160  1
  In  In71  1  0.82107857  0.66096696  0.62238020  1
  In  In72  1  -0.00227164  0.66426447  0.75736779  1
  In  In73  1  0.82444263  0.84869759  0.00313421  1
  In  In74  1  0.33724743  -0.00212472  0.24330582  1
  In  In75  1  0.83048696  0.50165851  0.49134557  1
  In  In76  1  0.34786399  0.32551238  0.77522643  1
  In  In77  1  0.50087569  0.49634382  0.50558111  1
  In  In78  1  0.15877895  0.49218455  0.49023222  1
  In  In79  1  0.16272316  0.83505999  0.48914427  1
  In  In80  1  0.50779963  0.83443799  0.50542324  1
  In  In81  1  0.34145657  0.34212477  0.23194767  1
  In  In82  1  -0.00106445  -0.00160099  0.75219293  1
  In  In83  1  0.49976533  0.15851072  0.52177919  1
  In  In84  1  0.33358419  0.66122315  0.76683417  1
  In  In85  1  -0.00069884  0.33425972  0.24402912  1
  Cu  Cu86  1  0.67309419  0.67244058  0.49356584  1
  Cu  Cu87  1  0.83295168  0.50137596  0.24707878  1
  Cu  Cu88  1  0.83195983  0.83343692  0.74693392  1
  Cu  Cu89  1  0.50093177  0.83497904  0.24430582  1
  Cu  Cu90  1  0.66140959  0.00336271  0.50132128  1
  Cu  Cu91  1  0.67190568  0.66965387  -0.00075609  1
  Cu  Cu92  1  0.67056112  0.33512601  0.49817854  1
  Cu  Cu93  1  -0.00930618  0.67341774  0.00420778  1
  Cu  Cu94  1  0.16592599  0.49487152  0.76473771  1
  Cu  Cu95  1  -0.01008070  0.00212876  0.49741714  1
  Cu  Cu96  1  -0.00440381  0.67305121  0.48903158  1
  Cu  Cu97  1  0.32712411  0.31909725  0.50590346  1
  Cu  Cu98  1  0.00345004  0.32463424  0.50663862  1
  Cu  Cu99  1  0.82644652  0.84530421  0.24557601  1
  Cu  Cu100  1  0.82517588  0.49108404  0.75777402  1
  Cu  Cu101  1  0.17512377  0.82310676  0.75709866  1
  Cu  Cu102  1  0.50167577  0.50573220  0.22588455  1
  Cu  Cu103  1  0.33755699  -0.00177343  -0.00040495  1
  Cu  Cu104  1  0.17183545  0.17113561  0.24802286  1
  Cu  Cu105  1  0.50767392  0.16767024  0.24204542  1
  Cu  Cu106  1  0.83328560  0.16846311  0.75242864  1
  Cu  Cu107  1  0.50630588  0.50091302  0.76148694  1
  Cu  Cu108  1  0.00205586  -0.00447435  0.00324411  1
  Cu  Cu109  1  -0.00527007  0.32910186  0.00096865  1
  Cu  Cu110  1  0.33252488  0.65464344  0.49514167  1
  Cu  Cu111  1  0.15988681  0.16493647  0.75235237  1
  Cu  Cu112  1  0.82874319  0.16661955  0.24728809  1
  Cu  Cu113  1  0.32318180  0.00049261  0.50259499  1
  Cu  Cu114  1  0.16610716  0.51003183  0.24290922  1
  Se  Se115  1  0.08408100  0.07893601  0.05664619  1
  Se  Se116  1  0.07949359  0.07319161  0.55507554  1
  Se  Se117  1  0.07611357  0.41857419  0.04950827  1
  Se  Se118  1  0.07771977  0.41211376  0.56389737  1
  Se  Se119  1  0.07247433  0.75497626  0.05842219  1
  Se  Se120  1  0.07803359  0.74200917  0.55520881  1
  Se  Se121  1  0.41872301  0.08623395  0.04872899  1
  Se  Se122  1  0.40676013  0.06378383  0.56837473  1
  Se  Se123  1  0.39124571  0.40905461  0.06002439  1
  Se  Se124  1  0.40187066  0.40821244  0.56114819  1
  Se  Se125  1  0.42115184  0.74218081  0.04752544  1
  Se  Se126  1  0.41193024  0.73450778  0.55541939  1
  Se  Se127  1  0.75557581  0.10568934  0.04503258  1
  Se  Se128  1  0.74769886  0.08687581  0.55202336  1
  Se  Se129  1  0.74738167  0.41104466  0.05131380  1
  Se  Se130  1  0.74797804  0.41592097  0.55956410  1
  Se  Se131  1  0.74705653  0.74976914  0.06304503  1
  Se  Se132  1  0.75586540  0.74981475  0.54948586  1
  Se  Se133  1  0.23658501  0.23866505  0.04950025  1
  Se  Se134  1  0.24153997  0.24162071  0.55836818  1
  Se  Se135  1  0.22713580  0.58150984  0.04829966  1
  Se  Se136  1  0.25195059  0.57933041  0.55587101  1
  Se  Se137  1  0.25552790  0.91733289  0.05467053  1
  Se  Se138  1  0.25093810  0.91052311  0.56098202  1
  Se  Se139  1  0.57594097  0.25008682  0.04916029  1
  Se  Se140  1  0.59144281  0.26222977  0.56270834  1
  Se  Se141  1  0.59360830  0.58871893  0.05779394  1
  Se  Se142  1  0.59942922  0.58880367  0.55546132  1
  Se  Se143  1  0.57850731  0.90930511  0.04869918  1
  Se  Se144  1  0.58450458  0.92969403  0.56585071  1
  Se  Se145  1  0.91956339  0.24391107  0.05715158  1
  Se  Se146  1  0.91537307  0.24805866  0.55930814  1
  Se  Se147  1  0.91126051  0.58623624  0.05439015  1
  Se  Se148  1  0.92419405  0.58918244  0.55284150  1
  Se  Se149  1  0.91940354  0.92480753  0.06681520  1
  Se  Se150  1  0.91317888  0.91302014  0.54921687  1
  Se  Se151  1  0.08435428  0.24588276  0.44809194  1
  Se  Se152  1  0.07974626  0.24931788  0.94696529  1
  Se  Se153  1  0.07788231  0.59311206  0.43313184  1
  Se  Se154  1  0.06060943  0.60408516  0.93209750  1
  Se  Se155  1  0.07142227  0.92596665  0.43473648  1
  Se  Se156  1  0.08362357  0.91260576  0.94904399  1
  Se  Se157  1  0.41563669  0.24812797  0.44727167  1
  Se  Se158  1  0.38900178  0.27642674  0.94064520  1
  Se  Se159  1  0.41581480  0.58017820  0.43601385  1
  Se  Se160  1  0.41647954  0.57926312  0.95763399  1
  Se  Se161  1  0.40831975  0.92221861  0.44522692  1
  Se  Se162  1  0.41757698  0.92185263  0.93914929  1
  Se  Se163  1  0.75104364  0.25193341  0.44481605  1
  Se  Se164  1  0.76978933  0.20781389  0.94487369  1
  Se  Se165  1  0.74133645  0.58798915  0.42958197  1
  Se  Se166  1  0.74961393  0.58270091  0.94687172  1
  Se  Se167  1  0.73979595  0.92073990  0.44396790  1
  Se  Se168  1  0.73372268  0.92949822  0.93891794  1
  Se  Se169  1  0.24585243  0.08435482  0.44727913  1
  Se  Se170  1  0.24558373  0.07948689  0.95258977  1
  Se  Se171  1  0.25860044  0.40080954  0.43884717  1
  Se  Se172  1  0.23608177  0.44644746  0.93728487  1
  Se  Se173  1  0.25852995  0.73977704  0.43765588  1
  Se  Se174  1  0.23474985  0.75737250  0.94765105  1
  Se  Se175  1  0.58161909  0.08487566  0.44247308  1
  Se  Se176  1  0.56859429  0.10118613  0.93384913  1
  Se  Se177  1  0.58666337  0.41002981  0.43877207  1
  Se  Se178  1  0.56225016  0.41986733  0.95235372  1
  Se  Se179  1  0.58422295  0.74436088  0.43566274  1
  Se  Se180  1  0.58779343  0.74761971  0.94402285  1
  Se  Se181  1  0.90991281  0.08714328  0.44467699  1
  Se  Se182  1  0.92330589  0.06990070  0.94053847  1
  Se  Se183  1  0.92806710  0.40465081  0.44296723  1
  Se  Se184  1  0.90865430  0.40830779  0.94772942  1
  Se  Se185  1  0.91090454  0.75483200  0.43958414  1
  Se  Se186  1  0.90893136  0.75267443  0.94153454  1
  Se  Se187  1  0.25652216  0.24965305  0.30494971  1
  Se  Se188  1  0.23911616  0.24015101  0.81709454  1
  Se  Se189  1  0.25359514  0.58627832  0.29741051  1
  Se  Se190  1  0.24344018  0.57503355  0.82221524  1
  Se  Se191  1  0.24983297  0.91495269  0.31017610  1
  Se  Se192  1  0.25485964  0.90821768  0.80928300  1
  Se  Se193  1  0.58079946  0.25426982  0.30114326  1
  Se  Se194  1  0.58973510  0.27949249  0.83630999  1
  Se  Se195  1  0.58107992  0.58122827  0.29114279  1
  Se  Se196  1  0.58987950  0.58078474  0.81506866  1
  Se  Se197  1  0.58016261  0.92064037  0.29995391  1
  Se  Se198  1  0.58857030  0.93120137  0.80349290  1
  Se  Se199  1  0.91142134  0.24707794  0.30749299  1
  Se  Se200  1  0.91402517  0.25008461  0.80677255  1
  Se  Se201  1  0.91739747  0.58384731  0.29914257  1
  Se  Se202  1  0.90793845  0.57305773  0.81412243  1
  Se  Se203  1  0.90713313  0.92283886  0.30567484  1
  Se  Se204  1  0.91154134  0.90546489  0.81123653  1
  Se  Se205  1  0.08610765  0.09491400  0.30299469  1
  Se  Se206  1  0.08851965  0.08056134  0.81565092  1
  Se  Se207  1  0.09343008  0.42469411  0.30539893  1
  Se  Se208  1  0.07828402  0.40909654  0.80826476  1
  Se  Se209  1  0.08601337  0.76388928  0.29619217  1
  Se  Se210  1  0.09599724  0.74264034  0.81368582  1
  Se  Se211  1  0.42659070  0.09258551  0.30532265  1
  Se  Se212  1  0.40907133  0.10014659  0.80577782  1
  Se  Se213  1  0.42941682  0.43079072  0.29974197  1
  Se  Se214  1  0.41146801  0.44055872  0.81983221  1
  Se  Se215  1  0.41718847  0.74995816  0.29524981  1
  Se  Se216  1  0.43018871  0.75100701  0.81508744  1
  Se  Se217  1  0.74620855  0.08820730  0.30585062  1
  Se  Se218  1  0.74822013  0.07789969  0.79425849  1
  Se  Se219  1  0.75107654  0.41500039  0.29824388  1
  Se  Se220  1  0.74771551  0.41189763  0.81756434  1
  Se  Se221  1  0.74802082  0.75628274  0.29890445  1
  Se  Se222  1  0.74711677  0.75407890  0.80123842  1
  Se  Se223  1  0.25214966  0.09415259  0.18709053  1
  Se  Se224  1  0.24124269  0.07955011  0.70086195  1
  Se  Se225  1  0.24469181  0.43129297  0.18354578  1
  Se  Se226  1  0.24765005  0.41448615  0.70463757  1
  Se  Se227  1  0.24874165  0.75334370  0.19000833  1
  Se  Se228  1  0.25366388  0.74907837  0.69090562  1
  Se  Se229  1  0.58601120  0.08403269  0.18714949  1
  Se  Se230  1  0.55151572  0.10788302  0.67810248  1
  Se  Se231  1  0.58268580  0.41863018  0.17710941  1
  Se  Se232  1  0.58377462  0.41792417  0.70383852  1
  Se  Se233  1  0.59083075  0.75561588  0.19546821  1
  Se  Se234  1  0.58034145  0.76307823  0.68950680  1
  Se  Se235  1  0.91439275  0.08733365  0.19496306  1
  Se  Se236  1  0.91241710  0.08696845  0.69010721  1
  Se  Se237  1  0.91059237  0.42239320  0.18464002  1
  Se  Se238  1  0.91121769  0.41560276  0.69991415  1
  Se  Se239  1  0.91352276  0.75975328  0.19868681  1
  Se  Se240  1  0.91378325  0.75261359  0.68856548  1
  Se  Se241  1  0.09639368  0.25280786  0.18643005  1
  Se  Se242  1  0.07920909  0.24720702  0.69823394  1
  Se  Se243  1  0.07849570  0.58947212  0.19251798  1
  Se  Se244  1  0.09203302  0.57023328  0.69601309  1
  Se  Se245  1  0.08443732  0.93236014  0.20152634  1
  Se  Se246  1  0.09152390  0.90075535  0.69727297  1
  Se  Se247  1  0.43075825  0.24784788  0.18208604  1
  Se  Se248  1  0.40927976  0.25366141  0.68858642  1
  Se  Se249  1  0.41582604  0.58842206  0.17779700  1
  Se  Se250  1  0.42825107  0.57719439  0.69463722  1
  Se  Se251  1  0.42309222  0.91203703  0.18085402  1
  Se  Se252  1  0.40032009  0.92534710  0.70706714  1
  Se  Se253  1  0.74777155  0.25046770  0.19367867  1
  Se  Se254  1  0.74532782  0.24949564  0.69937690  1
  Se  Se255  1  0.75340793  0.58846324  0.19600322  1
  Se  Se256  1  0.75395453  0.58130954  0.69973316  1
  Se  Se257  1  0.75033978  0.92986081  0.18920252  1
  Se  Se258  1  0.75541023  0.91581994  0.68878621  1
