# generated using pymatgen
data_In86Cu29Se144
_symmetry_space_group_name_H-M   'P 1'
_cell_length_a   17.57591388
_cell_length_b   17.57306481
_cell_length_c   23.43946517
_cell_angle_alpha   89.98910575
_cell_angle_beta   90.02252603
_cell_angle_gamma   89.98764855
_symmetry_Int_Tables_number   1
_chemical_formula_structural   In86Cu29Se144
_chemical_formula_sum   'In86 Cu29 Se144'
_cell_volume   7239.57502430
_cell_formula_units_Z   1
loop_
 _symmetry_equiv_pos_site_id
 _symmetry_equiv_pos_as_xyz
  1  'x, y, z'
loop_
 _atom_site_type_symbol
 _atom_site_label
 _atom_site_symmetry_multiplicity
 _atom_site_fract_x
 _atom_site_fract_y
 _atom_site_fract_z
 _atom_site_occupancy
  In  In0  1  -0.02337236  0.13730733  0.09400304  1
  In  In1  1  -0.00017559  0.16440108  0.61548652  1
  In  In2  1  0.00944811  0.49862849  0.12362656  1
  In  In3  1  0.01567170  0.51578274  0.61711227  1
  In  In4  1  -0.00313391  0.83835233  0.12388058  1
  In  In5  1  -0.00283083  0.83307933  0.62281167  1
  In  In6  1  0.33052896  0.15938975  0.11804646  1
  In  In7  1  0.33057877  0.17925754  0.63194902  1
  In  In8  1  0.32796624  0.49716807  0.11577707  1
  In  In9  1  0.28721787  0.53536569  0.66498063  1
  In  In10  1  0.32395204  0.82926675  0.11480407  1
  In  In11  1  0.32330508  0.81915935  0.61951951  1
  In  In12  1  0.65248394  0.14638495  0.12472925  1
  In  In13  1  0.66542971  0.15683348  0.62633524  1
  In  In14  1  0.66587595  0.51282357  0.12003415  1
  In  In15  1  0.67018104  0.49229936  0.62237340  1
  In  In16  1  0.67679741  0.84552497  0.11995107  1
  In  In17  1  0.67708631  0.84375016  0.61929937  1
  In  In18  1  0.16437307  0.00166821  0.37749324  1
  In  In19  1  0.16378573  -0.01630568  0.88905138  1
  In  In20  1  0.16974629  0.33443472  0.38334339  1
  In  In21  1  0.17254078  0.33333903  0.87237368  1
  In  In22  1  0.14634692  0.68337565  0.38795237  1
  In  In23  1  0.16299466  0.66598933  0.87504908  1
  In  In24  1  0.49369702  -0.01139110  0.37034557  1
  In  In25  1  0.51114590  -0.01113102  0.88108048  1
  In  In26  1  0.50349671  0.33007145  0.37405319  1
  In  In27  1  0.48870274  0.34268319  0.88475772  1
  In  In28  1  0.51209198  0.67433480  0.37502705  1
  In  In29  1  0.48417282  0.67752015  0.87851097  1
  In  In30  1  0.83674209  -0.00180843  0.37335767  1
  In  In31  1  0.83799070  -0.00249789  0.88303835  1
  In  In32  1  0.83478246  0.33256003  0.37912737  1
  In  In33  1  0.82962361  0.32778234  0.87700890  1
  In  In34  1  0.85249376  0.66013331  0.37973269  1
  In  In35  1  0.87447598  0.68612834  0.87806152  1
  In  In36  1  0.00733983  0.15960154  0.37733971  1
  In  In37  1  0.00747515  0.15140928  0.89154947  1
  In  In38  1  -0.01024782  0.51530814  0.38058705  1
  In  In39  1  0.02241469  0.52097962  0.86401252  1
  In  In40  1  0.00263475  0.83197645  0.37407020  1
  In  In41  1  0.03472636  0.80512583  0.94220765  1
  In  In42  1  0.32531142  0.15825679  0.37649635  1
  In  In43  1  0.32492366  0.17488642  0.88159770  1
  In  In44  1  0.32697982  0.49024305  0.37626016  1
  In  In45  1  0.32384573  0.50806789  0.87163156  1
  In  In46  1  0.33070617  0.83599821  0.38323813  1
  In  In47  1  0.33455211  0.82770456  0.87455698  1
  In  In48  1  0.68019984  0.16561393  0.37035178  1
  In  In49  1  0.67728863  0.15168118  0.88295222  1
  In  In50  1  0.67987117  0.51498853  0.37228102  1
  In  In51  1  0.67074294  0.48838401  0.87841539  1
  In  In52  1  0.66485151  0.84509031  0.37845041  1
  In  In53  1  0.66068029  0.83905002  0.87648859  1
  In  In54  1  0.13585651  -0.01948204  0.09550399  1
  In  In55  1  0.15964914  -0.00830037  0.61852520  1
  In  In56  1  0.16151769  0.33030495  0.11662959  1
  In  In57  1  0.17183262  0.33890234  0.62294976  1
  In  In58  1  0.15810180  0.66644905  0.12049974  1
  In  In59  1  0.16142587  0.67517737  0.62810080  1
  In  In60  1  0.51028495  0.00572566  0.12154833  1
  In  In61  1  0.51532330  0.00353896  0.63077013  1
  In  In62  1  0.49160387  0.32445677  0.11410447  1
  In  In63  1  0.49010634  0.32792732  0.62890463  1
  In  In64  1  0.49845608  0.66447235  0.11033785  1
  In  In65  1  0.48553284  0.66554764  0.62575268  1
  In  In66  1  0.83454441  -0.00952843  0.12700725  1
  In  In67  1  0.82960601  -0.00443802  0.62037915  1
  In  In68  1  0.84828228  0.32868698  0.12426492  1
  In  In69  1  0.83729747  0.33531798  0.61466633  1
  In  In70  1  0.83908831  0.67865039  0.12339187  1
  In  In71  1  0.84751482  0.67991487  0.61738123  1
  In  In72  1  0.32436613  0.66917704  0.24061116  1
  In  In73  1  0.83532834  0.50067287  -0.00326785  1
  In  In74  1  0.00155767  0.33577149  0.75504659  1
  In  In75  1  0.33407880  -0.00449626  0.76158316  1
  In  In76  1  0.32652612  -0.00277629  0.25054839  1
  In  In77  1  0.32904538  0.32686736  0.23409317  1
  In  In78  1  0.00478700  0.33212025  0.24458950  1
  In  In79  1  0.67574975  0.67606269  0.24348671  1
  In  In80  1  0.66551571  0.32777454  0.75001694  1
  In  In81  1  0.00060510  -0.01233940  0.75570287  1
  In  In82  1  0.49789383  0.16624153  0.50152746  1
  In  In83  1  0.66372494  0.66915789  0.75161543  1
  In  In84  1  0.67134157  0.32757399  0.25376185  1
  In  In85  1  0.49381607  0.50147037  0.50754916  1
  Cu  Cu86  1  0.32809724  0.66485163  -0.00358589  1
  Cu  Cu87  1  0.67093596  0.33876642  0.49508873  1
  Cu  Cu88  1  0.00507354  0.33906625  -0.00676329  1
  Cu  Cu89  1  0.16011312  0.16088612  0.24549066  1
  Cu  Cu90  1  0.67332768  0.67544082  0.49610360  1
  Cu  Cu91  1  0.84305456  0.50972434  0.74364616  1
  Cu  Cu92  1  0.83230006  0.83605024  0.74745896  1
  Cu  Cu93  1  0.66650140  -0.00312942  0.00271818  1
  Cu  Cu94  1  -0.00125967  -0.00138619  0.49527479  1
  Cu  Cu95  1  0.50354988  0.49243931  0.24318255  1
  Cu  Cu96  1  0.49917697  0.83492749  0.24755428  1
  Cu  Cu97  1  0.66270540  0.66261318  -0.00793382  1
  Cu  Cu98  1  0.00194074  0.66801916  0.50193518  1
  Cu  Cu99  1  0.16938263  0.16501664  0.75203216  1
  Cu  Cu100  1  0.84005373  0.83482725  0.25077590  1
  Cu  Cu101  1  0.00024007  0.32968811  0.49782592  1
  Cu  Cu102  1  0.33025025  0.66258923  0.50629863  1
  Cu  Cu103  1  0.33198783  -0.00141642  0.50064100  1
  Cu  Cu104  1  0.33856225  -0.00328510  -0.00357793  1
  Cu  Cu105  1  0.67045377  0.00215746  0.50026442  1
  Cu  Cu106  1  0.83460531  0.15765383  0.75500610  1
  Cu  Cu107  1  0.15802178  0.51075558  0.25471103  1
  Cu  Cu108  1  0.33725199  0.34094469  -0.00574646  1
  Cu  Cu109  1  0.50435050  0.16760704  0.75544079  1
  Cu  Cu110  1  0.83757390  0.15699704  0.24502279  1
  Cu  Cu111  1  0.49922266  0.83783970  0.75165370  1
  Cu  Cu112  1  0.66542826  0.32522161  -0.00002418  1
  Cu  Cu113  1  0.32414858  0.33817282  0.50893549  1
  Cu  Cu114  1  0.49194456  0.49945927  0.76078013  1
  Se  Se115  1  0.10892153  0.11228819  0.05221678  1
  Se  Se116  1  0.08393348  0.08006158  0.55037029  1
  Se  Se117  1  0.08636325  0.42102136  0.04911977  1
  Se  Se118  1  0.08105407  0.41185312  0.55488239  1
  Se  Se119  1  0.08258530  0.75818720  0.05189940  1
  Se  Se120  1  0.08393030  0.75439179  0.55375167  1
  Se  Se121  1  0.41904670  0.07937713  0.05256586  1
  Se  Se122  1  0.40972370  0.07811055  0.56477985  1
  Se  Se123  1  0.42060312  0.42201370  0.05042891  1
  Se  Se124  1  0.40331319  0.41828979  0.56859128  1
  Se  Se125  1  0.41232342  0.75003626  0.04820505  1
  Se  Se126  1  0.41887540  0.74970870  0.55040129  1
  Se  Se127  1  0.74986202  0.07745629  0.05963089  1
  Se  Se128  1  0.75139163  0.08783569  0.55363940  1
  Se  Se129  1  0.74606704  0.40857228  0.05972478  1
  Se  Se130  1  0.75379224  0.42200881  0.54889205  1
  Se  Se131  1  0.73776563  0.73918603  0.05717951  1
  Se  Se132  1  0.75611574  0.75738176  0.55185602  1
  Se  Se133  1  0.25982762  0.25849420  0.05420930  1
  Se  Se134  1  0.24580604  0.24338257  0.55565037  1
  Se  Se135  1  0.24495999  0.58542553  0.05338838  1
  Se  Se136  1  0.24822118  0.58345760  0.56413945  1
  Se  Se137  1  0.24752925  0.91309461  0.04311048  1
  Se  Se138  1  0.24971555  0.91292325  0.55301016  1
  Se  Se139  1  0.58446190  0.24150640  0.05483996  1
  Se  Se140  1  0.59137562  0.26131909  0.55853361  1
  Se  Se141  1  0.58053066  0.57707189  0.04435913  1
  Se  Se142  1  0.59325663  0.59500440  0.55887622  1
  Se  Se143  1  0.57911942  0.91162978  0.05236871  1
  Se  Se144  1  0.58373620  0.92199547  0.55412289  1
  Se  Se145  1  0.91749687  0.25696986  0.04428527  1
  Se  Se146  1  0.91426713  0.24575124  0.54859362  1
  Se  Se147  1  0.92469128  0.58923448  0.05650280  1
  Se  Se148  1  0.91542954  0.58183697  0.55178691  1
  Se  Se149  1  0.89624695  0.89581969  0.05297755  1
  Se  Se150  1  0.91718346  0.91733508  0.55353278  1
  Se  Se151  1  0.08602310  0.24676919  0.44582142  1
  Se  Se152  1  0.08952163  0.25319183  0.94303191  1
  Se  Se153  1  0.08515000  0.57870973  0.45160362  1
  Se  Se154  1  0.08298329  0.58586029  0.94951643  1
  Se  Se155  1  0.08501382  0.91467052  0.44509826  1
  Se  Se156  1  0.05009795  0.95177427  0.95377770  1
  Se  Se157  1  0.40498767  0.26160829  0.44435315  1
  Se  Se158  1  0.41853579  0.24559048  0.95007140  1
  Se  Se159  1  0.41132508  0.59098220  0.43772908  1
  Se  Se160  1  0.41312479  0.58157040  0.94386455  1
  Se  Se161  1  0.41907684  0.91745913  0.44876615  1
  Se  Se162  1  0.41837395  0.90959776  0.94350307  1
  Se  Se163  1  0.74970526  0.24869372  0.44523635  1
  Se  Se164  1  0.75343255  0.24619701  0.94826486  1
  Se  Se165  1  0.75644843  0.58718242  0.44779899  1
  Se  Se166  1  0.75282411  0.59334206  0.93147678  1
  Se  Se167  1  0.75452644  0.91881681  0.44685154  1
  Se  Se168  1  0.74684456  0.91471640  0.94668903  1
  Se  Se169  1  0.24743273  0.08305531  0.44932497  1
  Se  Se170  1  0.25126314  0.07769212  0.94470995  1
  Se  Se171  1  0.24566309  0.42321320  0.45273399  1
  Se  Se172  1  0.24821911  0.42029126  0.94290013  1
  Se  Se173  1  0.25143034  0.74778002  0.44947732  1
  Se  Se174  1  0.24749713  0.75152437  0.94403938  1
  Se  Se175  1  0.58671250  0.07924923  0.43847090  1
  Se  Se176  1  0.58207378  0.08175461  0.94997945  1
  Se  Se177  1  0.58816166  0.42022660  0.43871987  1
  Se  Se178  1  0.58646112  0.41472007  0.94943541  1
  Se  Se179  1  0.58434871  0.75710279  0.44723167  1
  Se  Se180  1  0.57970680  0.75105723  0.94288388  1
  Se  Se181  1  0.91532419  0.08452424  0.44383801  1
  Se  Se182  1  0.90253141  0.09366433  0.95323098  1
  Se  Se183  1  0.91882785  0.41595168  0.44475809  1
  Se  Se184  1  0.92757982  0.41866399  0.92984242  1
  Se  Se185  1  0.91987107  0.75410568  0.44831269  1
  Se  Se186  1  0.89252436  0.76931449  0.96831748  1
  Se  Se187  1  0.24080267  0.24397078  0.30368627  1
  Se  Se188  1  0.25321617  0.24933029  0.80234548  1
  Se  Se189  1  0.24598989  0.58361074  0.31229508  1
  Se  Se190  1  0.25117408  0.59691746  0.80155468  1
  Se  Se191  1  0.24015304  0.90323346  0.30876742  1
  Se  Se192  1  0.23432476  0.90421285  0.80862106  1
  Se  Se193  1  0.57366063  0.23618327  0.30572339  1
  Se  Se194  1  0.58188331  0.24694233  0.81926584  1
  Se  Se195  1  0.57910583  0.57872274  0.30054003  1
  Se  Se196  1  0.57954729  0.57734897  0.81518435  1
  Se  Se197  1  0.58338857  0.91549217  0.30121851  1
  Se  Se198  1  0.58658778  0.91954335  0.80056495  1
  Se  Se199  1  0.91210945  0.24303553  0.30566977  1
  Se  Se200  1  0.91736228  0.23641874  0.81300562  1
  Se  Se201  1  0.91981750  0.58600609  0.30021845  1
  Se  Se202  1  0.92179587  0.59090585  0.80102438  1
  Se  Se203  1  0.92281226  0.91928202  0.30454365  1
  Se  Se204  1  0.91343364  0.90168641  0.81663989  1
  Se  Se205  1  0.08269300  0.07839692  0.30376954  1
  Se  Se206  1  0.09269660  0.08340725  0.81177788  1
  Se  Se207  1  0.08694910  0.42026508  0.31251390  1
  Se  Se208  1  0.10273111  0.42811928  0.79813987  1
  Se  Se209  1  0.07840960  0.74380486  0.30413937  1
  Se  Se210  1  0.05774423  0.75941057  0.83820031  1
  Se  Se211  1  0.42008440  0.09144587  0.30671796  1
  Se  Se212  1  0.42493618  0.08879873  0.81722089  1
  Se  Se213  1  0.41986620  0.41652612  0.30226946  1
  Se  Se214  1  0.40850498  0.41384910  0.80936694  1
  Se  Se215  1  0.41939298  0.75338770  0.30602371  1
  Se  Se216  1  0.41418147  0.75181440  0.79879073  1
  Se  Se217  1  0.75255680  0.07806084  0.30058870  1
  Se  Se218  1  0.75391288  0.07421465  0.80816972  1
  Se  Se219  1  0.76155310  0.42531683  0.30541935  1
  Se  Se220  1  0.76410104  0.42395427  0.80080706  1
  Se  Se221  1  0.75861816  0.75705554  0.31373038  1
  Se  Se222  1  0.75851112  0.75230227  0.81249585  1
  Se  Se223  1  0.23944470  0.08080228  0.18541179  1
  Se  Se224  1  0.24534735  0.07962893  0.69241791  1
  Se  Se225  1  0.23417611  0.42876877  0.19171289  1
  Se  Se226  1  0.26367363  0.39755392  0.69614228  1
  Se  Se227  1  0.23207345  0.76446400  0.19046841  1
  Se  Se228  1  0.25683419  0.74374306  0.69782920  1
  Se  Se229  1  0.58409545  0.07080484  0.20308722  1
  Se  Se230  1  0.58987580  0.08553587  0.70450503  1
  Se  Se231  1  0.58394256  0.41380284  0.18478013  1
  Se  Se232  1  0.57304549  0.42592520  0.69582489  1
  Se  Se233  1  0.57469157  0.75430558  0.18454353  1
  Se  Se234  1  0.57821332  0.75876481  0.68752815  1
  Se  Se235  1  0.92326996  0.08076705  0.18776956  1
  Se  Se236  1  0.91739250  0.08405175  0.69204582  1
  Se  Se237  1  0.91023406  0.42790340  0.19351430  1
  Se  Se238  1  0.91729246  0.42170921  0.68638228  1
  Se  Se239  1  0.92120936  0.75129862  0.19708245  1
  Se  Se240  1  0.91884710  0.75284043  0.69692198  1
  Se  Se241  1  0.08164895  0.23708714  0.18168674  1
  Se  Se242  1  0.08466994  0.24060915  0.69192990  1
  Se  Se243  1  0.07868635  0.58847185  0.19529868  1
  Se  Se244  1  0.08388715  0.58597125  0.69700235  1
  Se  Se245  1  0.07954994  0.92827844  0.18745291  1
  Se  Se246  1  0.09452263  0.90301919  0.69494368  1
  Se  Se247  1  0.42747360  0.23245623  0.19054552  1
  Se  Se248  1  0.41813578  0.24903831  0.70465651  1
  Se  Se249  1  0.42201473  0.57585139  0.18749909  1
  Se  Se250  1  0.41815671  0.58569979  0.70259292  1
  Se  Se251  1  0.41497005  0.90905834  0.18617481  1
  Se  Se252  1  0.41791637  0.91530698  0.68875077  1
  Se  Se253  1  0.75772630  0.24125733  0.18726532  1
  Se  Se254  1  0.76298134  0.24287559  0.69176514  1
  Se  Se255  1  0.76252929  0.57667482  0.19073624  1
  Se  Se256  1  0.75433617  0.58384214  0.68693639  1
  Se  Se257  1  0.74961557  0.91486974  0.20065045  1
  Se  Se258  1  0.74989942  0.92153865  0.69668733  1
