# generated using pymatgen
data_In86Cu29Se144
_symmetry_space_group_name_H-M   'P 1'
_cell_length_a   17.58217224
_cell_length_b   17.58900956
_cell_length_c   23.44485032
_cell_angle_alpha   90.00414365
_cell_angle_beta   89.98486473
_cell_angle_gamma   89.99530112
_symmetry_Int_Tables_number   1
_chemical_formula_structural   In86Cu29Se144
_chemical_formula_sum   'In86 Cu29 Se144'
_cell_volume   7250.38989380
_cell_formula_units_Z   1
loop_
 _symmetry_equiv_pos_site_id
 _symmetry_equiv_pos_as_xyz
  1  'x, y, z'
loop_
 _atom_site_type_symbol
 _atom_site_label
 _atom_site_symmetry_multiplicity
 _atom_site_fract_x
 _atom_site_fract_y
 _atom_site_fract_z
 _atom_site_occupancy
  In  In0  1  0.00379096  0.16422719  0.12274288  1
  In  In1  1  0.00275812  0.16076474  0.63468028  1
  In  In2  1  -0.00122838  0.49600148  0.12228499  1
  In  In3  1  -0.01043863  0.50468637  0.63425862  1
  In  In4  1  0.01392587  0.82741983  0.13620954  1
  In  In5  1  0.01002236  0.82930278  0.62616193  1
  In  In6  1  0.32996725  0.17689115  0.12938174  1
  In  In7  1  0.31084274  0.15572841  0.60602169  1
  In  In8  1  0.33308698  0.49703885  0.12885836  1
  In  In9  1  0.33683320  0.50358653  0.62648819  1
  In  In10  1  0.30747398  0.83432570  0.13650250  1
  In  In11  1  0.33422183  0.83821305  0.60846745  1
  In  In12  1  0.68758527  0.15296149  0.13458094  1
  In  In13  1  0.66802480  0.17306752  0.61296898  1
  In  In14  1  0.66673247  0.50344723  0.12686846  1
  In  In15  1  0.67376261  0.48596489  0.62119408  1
  In  In16  1  0.66134642  0.84205328  0.13443036  1
  In  In17  1  0.66162539  0.84330721  0.61410921  1
  In  In18  1  0.15668351  0.00048909  0.37678508  1
  In  In19  1  0.12050754  0.03189772  0.91948111  1
  In  In20  1  0.16563066  0.32916608  0.36673587  1
  In  In21  1  0.15432996  0.34910645  0.88816751  1
  In  In22  1  0.17840952  0.68143696  0.35384811  1
  In  In23  1  0.15401145  0.67565908  0.88514342  1
  In  In24  1  0.51284856  -0.00270460  0.38383561  1
  In  In25  1  0.49794506  0.01453663  0.87618358  1
  In  In26  1  0.49285763  0.32153142  0.36747220  1
  In  In27  1  0.51124280  0.33512387  0.88053331  1
  In  In28  1  0.50555569  0.67472537  0.36693406  1
  In  In29  1  0.48540961  0.66862998  0.87851730  1
  In  In30  1  0.83993227  0.00401849  0.36906994  1
  In  In31  1  0.85574447  -0.01056986  0.88805928  1
  In  In32  1  0.84622195  0.34602201  0.36701908  1
  In  In33  1  0.83680958  0.32853641  0.88382725  1
  In  In34  1  0.83034633  0.66505264  0.36880830  1
  In  In35  1  0.84563736  0.65079258  0.88509515  1
  In  In36  1  0.00246197  0.17016595  0.37145528  1
  In  In37  1  -0.00582998  0.17394728  0.88053873  1
  In  In38  1  -0.00133184  0.49757793  0.37040352  1
  In  In39  1  -0.00409579  0.50116453  0.87822048  1
  In  In40  1  0.01550330  0.84681996  0.35691412  1
  In  In41  1  0.01175799  0.84056423  0.86702851  1
  In  In42  1  0.32906884  0.17759090  0.37959070  1
  In  In43  1  0.32210031  0.15141130  0.87253944  1
  In  In44  1  0.32943612  0.49578896  0.36350900  1
  In  In45  1  0.33458178  0.50250226  0.88736441  1
  In  In46  1  0.33382434  0.83188929  0.37440603  1
  In  In47  1  0.32244967  0.82381250  0.87556153  1
  In  In48  1  0.65732998  0.15837583  0.36794571  1
  In  In49  1  0.66547395  0.17616811  0.88164087  1
  In  In50  1  0.67717962  0.51022394  0.36702570  1
  In  In51  1  0.67640704  0.48605593  0.89565285  1
  In  In52  1  0.66499580  0.83126482  0.36893841  1
  In  In53  1  0.67499120  0.83570397  0.87728136  1
  In  In54  1  0.15078185  -0.01456134  0.11066580  1
  In  In55  1  0.15603970  -0.00394399  0.61239836  1
  In  In56  1  0.16650679  0.33144489  0.12419236  1
  In  In57  1  0.15434064  0.30744012  0.61972722  1
  In  In58  1  0.16706264  0.66144191  0.13048588  1
  In  In59  1  0.15497377  0.66468635  0.62178574  1
  In  In60  1  0.50932846  0.00743147  0.12872207  1
  In  In61  1  0.50282085  0.00462427  0.59886714  1
  In  In62  1  0.49261211  0.34395407  0.13546536  1
  In  In63  1  0.50334431  0.33545206  0.61715614  1
  In  In64  1  0.50984437  0.65740904  0.13636638  1
  In  In65  1  0.48836617  0.67210316  0.61716215  1
  In  In66  1  0.83203350  0.01101923  0.12710058  1
  In  In67  1  0.83901970  0.00822454  0.62430503  1
  In  In68  1  0.83327339  0.33358590  0.12484007  1
  In  In69  1  0.83381149  0.33957490  0.62008433  1
  In  In70  1  0.84532062  0.65763140  0.12970051  1
  In  In71  1  0.84789807  0.66395210  0.62493669  1
  In  In72  1  0.83290952  0.16343555  0.49070302  1
  In  In73  1  0.67468651  0.66171023  0.75057682  1
  In  In74  1  0.32149085  0.66554574  0.74661137  1
  In  In75  1  0.33230280  0.00841700  0.25806819  1
  In  In76  1  0.49217903  0.82892848  0.01461276  1
  In  In77  1  0.67761765  0.00313728  0.74927573  1
  In  In78  1  0.16114465  0.49648337  0.49416361  1
  In  In79  1  0.68049478  0.33030587  0.75818498  1
  In  In80  1  0.32727914  0.33138503  0.74389491  1
  In  In81  1  0.83688302  0.83332921  0.49564447  1
  In  In82  1  0.31492793  -0.01629355  0.74299107  1
  In  In83  1  0.83683375  0.83390841  0.01316719  1
  In  In84  1  0.49846995  0.17509427  0.00370042  1
  In  In85  1  0.50286929  0.49882239  0.49891908  1
  Cu  Cu86  1  0.50858230  0.16866060  0.24769394  1
  Cu  Cu87  1  -0.00050034  0.33242630  0.00543539  1
  Cu  Cu88  1  0.49423227  0.83565945  0.25331448  1
  Cu  Cu89  1  0.00061263  0.33304766  0.49311865  1
  Cu  Cu90  1  0.00140197  0.66347579  0.00621571  1
  Cu  Cu91  1  0.66142737  0.33550490  0.01237437  1
  Cu  Cu92  1  0.84619134  0.82777047  0.74985073  1
  Cu  Cu93  1  0.51082215  0.49947782  0.76274780  1
  Cu  Cu94  1  0.33334738  0.33506323  0.00588811  1
  Cu  Cu95  1  0.16364444  0.84227349  0.75250406  1
  Cu  Cu96  1  0.33205689  -0.00754975  0.00256722  1
  Cu  Cu97  1  0.84190335  0.16231416  0.75752031  1
  Cu  Cu98  1  0.83703106  0.17283901  0.25084475  1
  Cu  Cu99  1  0.33176529  0.66982500  0.48970303  1
  Cu  Cu100  1  0.50577027  0.84164334  0.74128721  1
  Cu  Cu101  1  0.66089347  0.66645438  0.00562135  1
  Cu  Cu102  1  0.33105612  0.00148347  0.48881855  1
  Cu  Cu103  1  0.16437317  0.16307985  0.24873262  1
  Cu  Cu104  1  0.83229376  0.83626081  0.24788580  1
  Cu  Cu105  1  0.66947665  0.66444536  0.48978397  1
  Cu  Cu106  1  0.16127823  0.49449899  0.24476274  1
  Cu  Cu107  1  0.15456416  0.16699262  0.75861535  1
  Cu  Cu108  1  0.15844028  0.49608486  0.75371140  1
  Cu  Cu109  1  0.49299716  0.16286630  0.73565869  1
  Cu  Cu110  1  0.33311974  0.65806108  0.00872305  1
  Cu  Cu111  1  0.00146398  0.66708029  0.49617602  1
  Cu  Cu112  1  0.50383452  0.49895844  0.25294227  1
  Cu  Cu113  1  0.66615194  0.33270232  0.49191549  1
  Cu  Cu114  1  0.83321067  0.49965080  0.24515251  1
  Se  Se115  1  0.09025946  0.09002130  0.04911910  1
  Se  Se116  1  0.09314348  0.10680444  0.55808522  1
  Se  Se117  1  0.08611002  0.41606739  0.05454570  1
  Se  Se118  1  0.07379142  0.41240266  0.56052408  1
  Se  Se119  1  0.08455057  0.74579238  0.05980897  1
  Se  Se120  1  0.08544034  0.75032196  0.54938945  1
  Se  Se121  1  0.40927651  0.07578414  0.06048002  1
  Se  Se122  1  0.41197941  0.08996336  0.54134700  1
  Se  Se123  1  0.41827640  0.41698289  0.05674010  1
  Se  Se124  1  0.40363878  0.41205869  0.55391984  1
  Se  Se125  1  0.40361136  0.74067036  0.07389875  1
  Se  Se126  1  0.41776314  0.75217908  0.54228965  1
  Se  Se127  1  0.75190912  0.08433187  0.05157485  1
  Se  Se128  1  0.74197519  0.07050590  0.55214057  1
  Se  Se129  1  0.74971505  0.42020840  0.05778897  1
  Se  Se130  1  0.75166770  0.41344008  0.54564519  1
  Se  Se131  1  0.73928146  0.74463178  0.06725570  1
  Se  Se132  1  0.74668600  0.74001311  0.55829514  1
  Se  Se133  1  0.25034601  0.24782176  0.05358425  1
  Se  Se134  1  0.25500940  0.26579487  0.54778452  1
  Se  Se135  1  0.24710733  0.57711290  0.05979807  1
  Se  Se136  1  0.25776423  0.58974487  0.55393943  1
  Se  Se137  1  0.24882644  0.90596386  0.05039963  1
  Se  Se138  1  0.24707530  0.92050341  0.54534252  1
  Se  Se139  1  0.58609686  0.25087536  0.07277207  1
  Se  Se140  1  0.58187486  0.25265869  0.54643252  1
  Se  Se141  1  0.57739367  0.58096562  0.05614799  1
  Se  Se142  1  0.59334312  0.59079566  0.56000332  1
  Se  Se143  1  0.59085084  0.92687884  0.05511521  1
  Se  Se144  1  0.57783491  0.90788732  0.53991363  1
  Se  Se145  1  0.91571393  0.24843464  0.05703407  1
  Se  Se146  1  0.92096781  0.25059498  0.55515211  1
  Se  Se147  1  0.91371768  0.57870185  0.05186663  1
  Se  Se148  1  0.92360619  0.58224588  0.55207752  1
  Se  Se149  1  0.92966125  0.92194718  0.06824814  1
  Se  Se150  1  0.92461735  0.92084570  0.55918321  1
  Se  Se151  1  0.08561684  0.25178696  0.44153850  1
  Se  Se152  1  0.08401461  0.25038388  0.95079990  1
  Se  Se153  1  0.08442932  0.59339842  0.43295488  1
  Se  Se154  1  0.08226771  0.57989280  0.94949591  1
  Se  Se155  1  0.08424713  0.90526621  0.44276312  1
  Se  Se156  1  0.08551708  0.89703061  0.95168198  1
  Se  Se157  1  0.42202885  0.25027858  0.44652489  1
  Se  Se158  1  0.40458294  0.25446768  0.93590642  1
  Se  Se159  1  0.41321827  0.58469507  0.43496317  1
  Se  Se160  1  0.42246851  0.58265549  0.95390181  1
  Se  Se161  1  0.41643068  0.91510592  0.44215973  1
  Se  Se162  1  0.41493414  0.91840805  0.93930603  1
  Se  Se163  1  0.74957483  0.25782618  0.43080489  1
  Se  Se164  1  0.74295176  0.25624578  0.95257355  1
  Se  Se165  1  0.75705820  0.58076751  0.44421077  1
  Se  Se166  1  0.75051248  0.58649840  0.95452991  1
  Se  Se167  1  0.74764753  0.92290130  0.43678359  1
  Se  Se168  1  0.74467081  0.92325844  0.94910366  1
  Se  Se169  1  0.24539539  0.08514625  0.43989703  1
  Se  Se170  1  0.25212888  0.08467008  0.95437294  1
  Se  Se171  1  0.25646507  0.40999889  0.43848730  1
  Se  Se172  1  0.24971182  0.42086967  0.95327385  1
  Se  Se173  1  0.24308484  0.74979687  0.43941421  1
  Se  Se174  1  0.25447427  0.74243591  0.95105651  1
  Se  Se175  1  0.58634116  0.09068830  0.44915689  1
  Se  Se176  1  0.59026394  0.07803073  0.94898282  1
  Se  Se177  1  0.58768422  0.41543553  0.43211913  1
  Se  Se178  1  0.57593597  0.41640693  0.95829930  1
  Se  Se179  1  0.58513914  0.74990852  0.44206900  1
  Se  Se180  1  0.58573564  0.74862933  0.94413259  1
  Se  Se181  1  0.93249869  0.07238760  0.44368043  1
  Se  Se182  1  0.91394402  0.09128231  0.95131934  1
  Se  Se183  1  0.91784612  0.42155654  0.44625851  1
  Se  Se184  1  0.91777074  0.41593816  0.94966458  1
  Se  Se185  1  0.92499814  0.74742143  0.43394502  1
  Se  Se186  1  0.92456972  0.75012118  0.94570181  1
  Se  Se187  1  0.25142658  0.24522647  0.29966934  1
  Se  Se188  1  0.24045504  0.24914264  0.81297915  1
  Se  Se189  1  0.24884592  0.57791087  0.29507604  1
  Se  Se190  1  0.24243901  0.57591328  0.81355151  1
  Se  Se191  1  0.24132977  0.91143041  0.30664928  1
  Se  Se192  1  0.23285632  0.91838937  0.82146969  1
  Se  Se193  1  0.59035633  0.25521883  0.29985029  1
  Se  Se194  1  0.57120922  0.23843786  0.80222208  1
  Se  Se195  1  0.58676331  0.58794242  0.30099079  1
  Se  Se196  1  0.58707947  0.58055960  0.82226274  1
  Se  Se197  1  0.58045065  0.91890969  0.30420063  1
  Se  Se198  1  0.57841252  0.91579699  0.80905184  1
  Se  Se199  1  0.92369097  0.25461193  0.30188766  1
  Se  Se200  1  0.91571185  0.25568385  0.80709525  1
  Se  Se201  1  0.91465080  0.58037825  0.30254809  1
  Se  Se202  1  0.92180631  0.58719593  0.80608975  1
  Se  Se203  1  0.91735131  0.92263728  0.29706854  1
  Se  Se204  1  0.91946080  0.91966227  0.80327034  1
  Se  Se205  1  0.08126675  0.08210659  0.30313656  1
  Se  Se206  1  0.08145199  0.08183570  0.81844156  1
  Se  Se207  1  0.07988332  0.41302165  0.30181725  1
  Se  Se208  1  0.07745806  0.41375841  0.80785185  1
  Se  Se209  1  0.06238443  0.73193925  0.29840305  1
  Se  Se210  1  0.08793639  0.74659545  0.80132454  1
  Se  Se211  1  0.42937985  0.09267279  0.31396089  1
  Se  Se212  1  0.41503048  0.08281989  0.79584304  1
  Se  Se213  1  0.41738432  0.41268225  0.30007749  1
  Se  Se214  1  0.41957571  0.41783542  0.81129463  1
  Se  Se215  1  0.41079167  0.74901821  0.30190508  1
  Se  Se216  1  0.42184196  0.76088221  0.79998834  1
  Se  Se217  1  0.75428925  0.08642272  0.30299348  1
  Se  Se218  1  0.75806284  0.08793976  0.81877304  1
  Se  Se219  1  0.75089390  0.41711844  0.30039843  1
  Se  Se220  1  0.76167570  0.42965975  0.81368569  1
  Se  Se221  1  0.74984068  0.75122838  0.30082018  1
  Se  Se222  1  0.76359460  0.75356924  0.81122981  1
  Se  Se223  1  0.24282945  0.08173595  0.18747203  1
  Se  Se224  1  0.23578986  0.09192635  0.69296530  1
  Se  Se225  1  0.24970142  0.41109132  0.19578436  1
  Se  Se226  1  0.23677872  0.42402753  0.68626942  1
  Se  Se227  1  0.24125300  0.74424884  0.20541695  1
  Se  Se228  1  0.24360535  0.76492472  0.68631296  1
  Se  Se229  1  0.59146037  0.07946762  0.20138176  1
  Se  Se230  1  0.58212504  0.08472236  0.68297671  1
  Se  Se231  1  0.58884161  0.41839623  0.19864085  1
  Se  Se232  1  0.58046490  0.41702420  0.69735790  1
  Se  Se233  1  0.58171201  0.75468063  0.20048954  1
  Se  Se234  1  0.58172899  0.75152305  0.68785213  1
  Se  Se235  1  0.91885567  0.08817872  0.19635713  1
  Se  Se236  1  0.91864969  0.07613065  0.70158094  1
  Se  Se237  1  0.91763882  0.41489287  0.19384643  1
  Se  Se238  1  0.91247630  0.40889346  0.69505366  1
  Se  Se239  1  0.91554711  0.75101535  0.19698015  1
  Se  Se240  1  0.92710397  0.74563752  0.69475746  1
  Se  Se241  1  0.08414422  0.24815480  0.19359148  1
  Se  Se242  1  0.07600959  0.25353827  0.70389094  1
  Se  Se243  1  0.07649101  0.57912338  0.19459999  1
  Se  Se244  1  0.08454123  0.58442065  0.69679929  1
  Se  Se245  1  0.08881298  0.92421194  0.19828570  1
  Se  Se246  1  0.08487414  0.92313735  0.69330913  1
  Se  Se247  1  0.41733137  0.24811788  0.19970863  1
  Se  Se248  1  0.41295751  0.24260177  0.67779198  1
  Se  Se249  1  0.41677784  0.57899024  0.19951344  1
  Se  Se250  1  0.43139856  0.57722506  0.69855197  1
  Se  Se251  1  0.41851989  0.91621987  0.19078355  1
  Se  Se252  1  0.42406038  0.91782879  0.68090280  1
  Se  Se253  1  0.75104649  0.25493496  0.19865164  1
  Se  Se254  1  0.75926020  0.23525886  0.69178621  1
  Se  Se255  1  0.74901764  0.58748191  0.19592684  1
  Se  Se256  1  0.75950635  0.57001136  0.68955104  1
  Se  Se257  1  0.75122983  0.92396593  0.19636934  1
  Se  Se258  1  0.76104066  0.90303146  0.68935125  1
