# generated using pymatgen
data_In86Cu29Se144
_symmetry_space_group_name_H-M   'P 1'
_cell_length_a   17.57232979
_cell_length_b   17.57070721
_cell_length_c   23.42810865
_cell_angle_alpha   89.98789923
_cell_angle_beta   90.00419540
_cell_angle_gamma   90.00531121
_symmetry_Int_Tables_number   1
_chemical_formula_structural   In86Cu29Se144
_chemical_formula_sum   'In86 Cu29 Se144'
_cell_volume   7233.62189039
_cell_formula_units_Z   1
loop_
 _symmetry_equiv_pos_site_id
 _symmetry_equiv_pos_as_xyz
  1  'x, y, z'
loop_
 _atom_site_type_symbol
 _atom_site_label
 _atom_site_symmetry_multiplicity
 _atom_site_fract_x
 _atom_site_fract_y
 _atom_site_fract_z
 _atom_site_occupancy
  In  In0  1  -0.00197672  0.16888327  0.13617981  1
  In  In1  1  0.00149166  0.16980837  0.62250279  1
  In  In2  1  0.00220501  0.49309826  0.13319070  1
  In  In3  1  -0.00664170  0.49054215  0.62645235  1
  In  In4  1  0.00010318  0.83462955  0.12326008  1
  In  In5  1  0.01348737  0.83480915  0.62403767  1
  In  In6  1  0.34018410  0.17318040  0.13040067  1
  In  In7  1  0.33700657  0.16178246  0.62570631  1
  In  In8  1  0.33178647  0.50312256  0.12667740  1
  In  In9  1  0.31880016  0.48463313  0.62904322  1
  In  In10  1  0.31170045  0.82962015  0.11902009  1
  In  In11  1  0.35513145  0.83902309  0.61886536  1
  In  In12  1  0.65968773  0.16076610  0.13397568  1
  In  In13  1  0.64955460  0.14423255  0.60211686  1
  In  In14  1  0.67491485  0.51782405  0.12701057  1
  In  In15  1  0.68036001  0.49279133  0.62471852  1
  In  In16  1  0.67668706  0.82556557  0.13105590  1
  In  In17  1  0.65344772  0.84648851  0.63040958  1
  In  In18  1  0.17282904  0.01449693  0.37907893  1
  In  In19  1  0.15652108  -0.00477649  0.85834667  1
  In  In20  1  0.16483900  0.32480819  0.37266711  1
  In  In21  1  0.17700978  0.34870282  0.85677273  1
  In  In22  1  0.15742353  0.65498831  0.36103393  1
  In  In23  1  0.16303381  0.66734971  0.89184995  1
  In  In24  1  0.50522169  -0.01761346  0.40110550  1
  In  In25  1  0.50682562  0.00627143  0.86576214  1
  In  In26  1  0.48513630  0.33139297  0.37429975  1
  In  In27  1  0.49167379  0.34444725  0.87711079  1
  In  In28  1  0.51109332  0.67091353  0.36077846  1
  In  In29  1  0.49326004  0.65389998  0.87694774  1
  In  In30  1  0.83398982  0.00091812  0.37632995  1
  In  In31  1  0.83566819  -0.00425510  0.86797796  1
  In  In32  1  0.84308537  0.32408543  0.38209465  1
  In  In33  1  0.83601494  0.32712742  0.87401069  1
  In  In34  1  0.82528248  0.65599361  0.36168829  1
  In  In35  1  0.84216984  0.68457537  0.87890879  1
  In  In36  1  0.00460732  0.16521272  0.37827787  1
  In  In37  1  0.01062041  0.17453952  0.85243810  1
  In  In38  1  -0.01514522  0.48279406  0.35566884  1
  In  In39  1  0.02512812  0.50550875  0.87554862  1
  In  In40  1  -0.00563051  0.82897333  0.36528430  1
  In  In41  1  -0.00499235  0.83497691  0.88190879  1
  In  In42  1  0.32512140  0.16199931  0.38789051  1
  In  In43  1  0.32998406  0.17173056  0.85547340  1
  In  In44  1  0.33854308  0.49058746  0.35770081  1
  In  In45  1  0.33125898  0.50105562  0.88074918  1
  In  In46  1  0.34385956  0.83595647  0.37514908  1
  In  In47  1  0.32415450  0.82879267  0.87539564  1
  In  In48  1  0.67154727  0.15039225  0.39323599  1
  In  In49  1  0.67864453  0.16101260  0.86648797  1
  In  In50  1  0.66898314  0.51403669  0.36654779  1
  In  In51  1  0.64769963  0.50166454  0.87857367  1
  In  In52  1  0.66251874  0.83228599  0.37247885  1
  In  In53  1  0.67915398  0.84214771  0.86931084  1
  In  In54  1  0.15982812  -0.01416006  0.12108840  1
  In  In55  1  0.15326375  0.01986608  0.64263058  1
  In  In56  1  0.15557867  0.34495890  0.13021249  1
  In  In57  1  0.18814596  0.30671943  0.65822042  1
  In  In58  1  0.16535204  0.66756010  0.12573664  1
  In  In59  1  0.15729648  0.66014746  0.62763990  1
  In  In60  1  0.50529100  0.00836903  0.13022106  1
  In  In61  1  0.50187209  0.00075881  0.62256725  1
  In  In62  1  0.47782999  0.33897817  0.13686560  1
  In  In63  1  0.49742777  0.32280558  0.62284344  1
  In  In64  1  0.51292294  0.65044378  0.14012466  1
  In  In65  1  0.50080492  0.68153476  0.62073304  1
  In  In66  1  0.84591159  -0.01088034  0.13489762  1
  In  In67  1  0.82287685  0.01081111  0.62437022  1
  In  In68  1  0.84695568  0.34866375  0.13241246  1
  In  In69  1  0.83945671  0.33268578  0.61608077  1
  In  In70  1  0.82340660  0.67228389  0.13327421  1
  In  In71  1  0.83010465  0.64923515  0.62142796  1
  In  In72  1  0.33533736  0.66960135  0.75069305  1
  In  In73  1  0.83392958  0.16283721  -0.00521292  1
  In  In74  1  -0.00162629  0.66525138  0.75401044  1
  In  In75  1  0.49863239  0.16923900  -0.00464667  1
  In  In76  1  0.82668470  0.83703629  0.49867875  1
  In  In77  1  0.50553877  0.50417086  0.48781003  1
  In  In78  1  0.66886754  0.32473465  0.74278035  1
  In  In79  1  0.33295251  0.00117001  0.25227983  1
  In  In80  1  0.83673428  0.51034060  0.00693213  1
  In  In81  1  0.16186043  0.49672747  0.50275660  1
  In  In82  1  0.17869988  0.84462146  0.49847995  1
  In  In83  1  0.49919805  0.82594076  0.00329379  1
  In  In84  1  0.16399333  0.16763757  -0.01023126  1
  In  In85  1  0.67073801  0.33069462  0.25388598  1
  Cu  Cu86  1  0.83533575  0.16418467  0.26138974  1
  Cu  Cu87  1  0.00679813  0.32900385  0.49894948  1
  Cu  Cu88  1  0.33219811  0.66112629  0.00523880  1
  Cu  Cu89  1  0.00070917  -0.00240752  -0.00407568  1
  Cu  Cu90  1  0.82665406  0.50211370  0.74962777  1
  Cu  Cu91  1  0.33443449  0.67000059  0.49426988  1
  Cu  Cu92  1  0.49371325  0.50333887  0.75339900  1
  Cu  Cu93  1  0.65300922  0.33860748  0.00472599  1
  Cu  Cu94  1  0.67627512  0.33653462  0.49883515  1
  Cu  Cu95  1  0.32103624  0.34106565  0.00209100  1
  Cu  Cu96  1  0.50199828  0.16607155  0.74092212  1
  Cu  Cu97  1  0.82855318  0.15770907  0.73841672  1
  Cu  Cu98  1  0.50305500  0.15878686  0.26048004  1
  Cu  Cu99  1  0.83746316  0.83288025  0.74983418  1
  Cu  Cu100  1  0.32797094  0.33054693  0.50435605  1
  Cu  Cu101  1  0.67996941  -0.00823406  0.00009552  1
  Cu  Cu102  1  0.00289543  0.00568120  0.50079197  1
  Cu  Cu103  1  0.00211509  0.33834874  0.00057568  1
  Cu  Cu104  1  0.49892497  0.83801141  0.25210567  1
  Cu  Cu105  1  0.66638401  0.67109211  0.00489156  1
  Cu  Cu106  1  0.16785499  0.16839033  0.25564114  1
  Cu  Cu107  1  0.82799397  0.84002237  0.25082991  1
  Cu  Cu108  1  -0.00619258  0.65964229  0.49533660  1
  Cu  Cu109  1  0.51322420  0.83811560  0.74564810  1
  Cu  Cu110  1  0.17230418  0.83671347  0.74932615  1
  Cu  Cu111  1  0.33031123  -0.00101781  -0.00786230  1
  Cu  Cu112  1  0.17640306  0.49815599  0.24399093  1
  Cu  Cu113  1  0.66709069  0.66941896  0.49264863  1
  Cu  Cu114  1  0.15935397  0.83185047  0.24486949  1
  Se  Se115  1  0.07437015  0.08399773  0.05659045  1
  Se  Se116  1  0.08739699  0.08466730  0.55581541  1
  Se  Se117  1  0.08237397  0.42266887  0.05403208  1
  Se  Se118  1  0.08467106  0.40242063  0.56552927  1
  Se  Se119  1  0.10595579  0.77309670  0.06173842  1
  Se  Se120  1  0.08071724  0.74036809  0.54971648  1
  Se  Se121  1  0.40772373  0.07581046  0.05602557  1
  Se  Se122  1  0.43697707  0.10254035  0.55741648  1
  Se  Se123  1  0.41204175  0.41479364  0.05619417  1
  Se  Se124  1  0.41357330  0.41856622  0.55447900  1
  Se  Se125  1  0.41337022  0.73911696  0.06700308  1
  Se  Se126  1  0.42113415  0.75215619  0.54393228  1
  Se  Se127  1  0.74816880  0.07889895  0.06294476  1
  Se  Se128  1  0.75665728  0.08199414  0.54289905  1
  Se  Se129  1  0.74557337  0.41003244  0.06065299  1
  Se  Se130  1  0.75913519  0.42254464  0.54860205  1
  Se  Se131  1  0.75339319  0.75264324  0.05420780  1
  Se  Se132  1  0.74218224  0.74424163  0.56089030  1
  Se  Se133  1  0.24920757  0.25108704  0.06027060  1
  Se  Se134  1  0.24799663  0.25411965  0.56554048  1
  Se  Se135  1  0.24491947  0.57934167  0.05640674  1
  Se  Se136  1  0.25870157  0.59169658  0.55821711  1
  Se  Se137  1  0.24578596  0.91928387  0.04577929  1
  Se  Se138  1  0.24740096  0.92544899  0.57464163  1
  Se  Se139  1  0.58005419  0.25439386  0.06572945  1
  Se  Se140  1  0.58638388  0.25926936  0.55012990  1
  Se  Se141  1  0.58381996  0.58509431  0.05527958  1
  Se  Se142  1  0.59105867  0.58685487  0.55729241  1
  Se  Se143  1  0.58903541  0.92229828  0.05931778  1
  Se  Se144  1  0.57653393  0.91131897  0.55250302  1
  Se  Se145  1  0.92134195  0.25617174  0.05773856  1
  Se  Se146  1  0.91772790  0.24558454  0.54800812  1
  Se  Se147  1  0.92493977  0.59452521  0.06917342  1
  Se  Se148  1  0.91850742  0.57484823  0.55295637  1
  Se  Se149  1  0.91680340  0.92009854  0.05311874  1
  Se  Se150  1  0.92537166  0.91969959  0.55853720  1
  Se  Se151  1  0.09225526  0.24483470  0.44804219  1
  Se  Se152  1  0.07439969  0.26042390  0.93394291  1
  Se  Se153  1  0.07360836  0.57888378  0.43648427  1
  Se  Se154  1  0.06498889  0.59652136  0.95417707  1
  Se  Se155  1  0.07411554  0.91854074  0.43869323  1
  Se  Se156  1  0.08890942  0.92190311  0.94025003  1
  Se  Se157  1  0.41288862  0.25148810  0.44947078  1
  Se  Se158  1  0.39819569  0.25574643  0.94130537  1
  Se  Se159  1  0.40869797  0.58891249  0.43102214  1
  Se  Se160  1  0.41654511  0.57882221  0.95174758  1
  Se  Se161  1  0.38741780  0.92721031  0.45334021  1
  Se  Se162  1  0.41970235  0.92245030  0.93810412  1
  Se  Se163  1  0.75651422  0.24599325  0.45011668  1
  Se  Se164  1  0.73408591  0.25926790  0.94448726  1
  Se  Se165  1  0.75144991  0.58477101  0.44236379  1
  Se  Se166  1  0.74305613  0.58998515  0.94022222  1
  Se  Se167  1  0.73397525  0.92765500  0.44436949  1
  Se  Se168  1  0.76289072  0.91349792  0.94424391  1
  Se  Se169  1  0.25046012  0.07582171  0.45837628  1
  Se  Se170  1  0.25634777  0.08027343  0.93006889  1
  Se  Se171  1  0.25839243  0.41576720  0.44023590  1
  Se  Se172  1  0.23875879  0.41830181  0.94322206  1
  Se  Se173  1  0.24569658  0.73977890  0.43429840  1
  Se  Se174  1  0.25498025  0.75100717  0.95270298  1
  Se  Se175  1  0.56195412  0.09683526  0.45588612  1
  Se  Se176  1  0.59895198  0.07709476  0.94346108  1
  Se  Se177  1  0.59561568  0.40879371  0.43316061  1
  Se  Se178  1  0.57089629  0.42076599  0.95152933  1
  Se  Se179  1  0.57914074  0.74820012  0.44103595  1
  Se  Se180  1  0.59032914  0.74600628  0.93710263  1
  Se  Se181  1  0.91710430  0.08309841  0.44505197  1
  Se  Se182  1  0.93087361  0.08423833  0.93265721  1
  Se  Se183  1  0.92677690  0.41605057  0.44489154  1
  Se  Se184  1  0.91678124  0.41646196  0.94166713  1
  Se  Se185  1  0.91498665  0.74430555  0.43948218  1
  Se  Se186  1  0.92905820  0.74429274  0.95337842  1
  Se  Se187  1  0.25744746  0.24361558  0.30939777  1
  Se  Se188  1  0.23907161  0.24793008  0.79202575  1
  Se  Se189  1  0.25621894  0.58430255  0.29792506  1
  Se  Se190  1  0.24191183  0.58803444  0.81295213  1
  Se  Se191  1  0.23904877  0.90947410  0.30930210  1
  Se  Se192  1  0.25947284  0.91665264  0.80174232  1
  Se  Se193  1  0.58532340  0.24107186  0.31770270  1
  Se  Se194  1  0.57430320  0.24514301  0.81084996  1
  Se  Se195  1  0.57663683  0.57348430  0.29507122  1
  Se  Se196  1  0.58066851  0.58604626  0.80253289  1
  Se  Se197  1  0.57230653  0.92162933  0.31277402  1
  Se  Se198  1  0.59331046  0.92233671  0.80167793  1
  Se  Se199  1  0.92316690  0.24885757  0.30743672  1
  Se  Se200  1  0.90127891  0.24431727  0.79804950  1
  Se  Se201  1  0.93731899  0.60247847  0.30359343  1
  Se  Se202  1  0.90800048  0.57464105  0.81453738  1
  Se  Se203  1  0.91379499  0.92130480  0.30372612  1
  Se  Se204  1  0.92395621  0.91254348  0.80328728  1
  Se  Se205  1  0.08535292  0.08172510  0.30606334  1
  Se  Se206  1  0.09081299  0.08783695  0.78910560  1
  Se  Se207  1  0.09601276  0.41641195  0.30265814  1
  Se  Se208  1  0.05591570  0.39901926  0.80591139  1
  Se  Se209  1  0.07721988  0.74642256  0.29765405  1
  Se  Se210  1  0.09367928  0.75405756  0.81068053  1
  Se  Se211  1  0.42114955  0.07912026  0.31993824  1
  Se  Se212  1  0.42039807  0.08362558  0.79769441  1
  Se  Se213  1  0.43262133  0.41615991  0.29470507  1
  Se  Se214  1  0.40942551  0.42082773  0.80554619  1
  Se  Se215  1  0.41405579  0.75256411  0.30132061  1
  Se  Se216  1  0.43034196  0.76058189  0.80858623  1
  Se  Se217  1  0.74561394  0.08388050  0.31019149  1
  Se  Se218  1  0.75049512  0.07458307  0.79657902  1
  Se  Se219  1  0.76262624  0.41790099  0.31236046  1
  Se  Se220  1  0.74600226  0.42026851  0.81125889  1
  Se  Se221  1  0.74542907  0.75304192  0.30257735  1
  Se  Se222  1  0.75531082  0.74886060  0.80329142  1
  Se  Se223  1  0.24011874  0.08748395  0.18792849  1
  Se  Se224  1  0.25814823  0.08497010  0.70047498  1
  Se  Se225  1  0.25766531  0.40774819  0.19467602  1
  Se  Se226  1  0.24191036  0.42644201  0.70940235  1
  Se  Se227  1  0.24956501  0.74963676  0.19830496  1
  Se  Se228  1  0.24674201  0.75640181  0.68489554  1
  Se  Se229  1  0.58647814  0.07676469  0.20685558  1
  Se  Se230  1  0.58957012  0.08294263  0.69198473  1
  Se  Se231  1  0.58861358  0.41647277  0.18608662  1
  Se  Se232  1  0.57438701  0.42327458  0.69087723  1
  Se  Se233  1  0.58367702  0.75436454  0.19881361  1
  Se  Se234  1  0.58837645  0.74413407  0.69637452  1
  Se  Se235  1  0.91711245  0.08318965  0.20213192  1
  Se  Se236  1  0.92088017  0.07853340  0.68990417  1
  Se  Se237  1  0.92554131  0.41494183  0.20828251  1
  Se  Se238  1  0.90450004  0.41529797  0.69570810  1
  Se  Se239  1  0.91154834  0.76016377  0.19420474  1
  Se  Se240  1  0.91231673  0.75131283  0.68549538  1
  Se  Se241  1  0.08562664  0.25151004  0.19931953  1
  Se  Se242  1  0.05719060  0.26738396  0.69524386  1
  Se  Se243  1  0.08779575  0.58144651  0.19602481  1
  Se  Se244  1  0.08767851  0.56861229  0.69825622  1
  Se  Se245  1  0.07678382  0.92147326  0.19738215  1
  Se  Se246  1  0.07988418  0.91500359  0.70084577  1
  Se  Se247  1  0.41807124  0.24186989  0.20823645  1
  Se  Se248  1  0.41476528  0.25390453  0.69686121  1
  Se  Se249  1  0.40939439  0.58496273  0.19869595  1
  Se  Se250  1  0.41938846  0.57843143  0.68430083  1
  Se  Se251  1  0.41727197  0.90981099  0.18590897  1
  Se  Se252  1  0.42292586  0.91808874  0.69656724  1
  Se  Se253  1  0.76393282  0.24171642  0.19099778  1
  Se  Se254  1  0.74837958  0.23670952  0.67657918  1
  Se  Se255  1  0.75932103  0.57738429  0.20321450  1
  Se  Se256  1  0.74354476  0.58518398  0.69799318  1
  Se  Se257  1  0.74245509  0.92401843  0.19817073  1
  Se  Se258  1  0.75549756  0.91430115  0.69267760  1
