# generated using pymatgen
data_In86Cu29Se144
_symmetry_space_group_name_H-M   'P 1'
_cell_length_a   17.58908573
_cell_length_b   17.59660297
_cell_length_c   23.45638101
_cell_angle_alpha   90.00466336
_cell_angle_beta   89.98053405
_cell_angle_gamma   89.99500736
_symmetry_Int_Tables_number   1
_chemical_formula_structural   In86Cu29Se144
_chemical_formula_sum   'In86 Cu29 Se144'
_cell_volume   7259.94081450
_cell_formula_units_Z   1
loop_
 _symmetry_equiv_pos_site_id
 _symmetry_equiv_pos_as_xyz
  1  'x, y, z'
loop_
 _atom_site_type_symbol
 _atom_site_label
 _atom_site_symmetry_multiplicity
 _atom_site_fract_x
 _atom_site_fract_y
 _atom_site_fract_z
 _atom_site_occupancy
  In  In0  1  -0.00282279  0.16432926  0.12463217  1
  In  In1  1  -0.00734646  0.17798169  0.62577938  1
  In  In2  1  -0.00024204  0.50107151  0.13654644  1
  In  In3  1  -0.00850235  0.51132915  0.61914010  1
  In  In4  1  -0.00281317  0.83438558  0.13211694  1
  In  In5  1  0.00630638  0.83960754  0.62334255  1
  In  In6  1  0.33496879  0.16873039  0.12113653  1
  In  In7  1  0.33882278  0.16355483  0.62844036  1
  In  In8  1  0.34051884  0.49140833  0.13132902  1
  In  In9  1  0.35332028  0.50365557  0.61552492  1
  In  In10  1  0.32387227  0.84333752  0.12957924  1
  In  In11  1  0.33040112  0.82926190  0.62922393  1
  In  In12  1  0.66505863  0.16443026  0.12606021  1
  In  In13  1  0.68610352  0.15399186  0.65343319  1
  In  In14  1  0.65675696  0.50419453  0.12784865  1
  In  In15  1  0.66545954  0.50336744  0.62271602  1
  In  In16  1  0.67771675  0.82801441  0.13517176  1
  In  In17  1  0.65579121  0.83740623  0.63723981  1
  In  In18  1  0.16383663  -0.00170023  0.36296974  1
  In  In19  1  0.15961299  0.00411372  0.89015479  1
  In  In20  1  0.16320986  0.32763776  0.36311128  1
  In  In21  1  0.16266827  0.32619539  0.88147853  1
  In  In22  1  0.17566366  0.66585761  0.36727919  1
  In  In23  1  0.18064979  0.66569096  0.87904546  1
  In  In24  1  0.50436889  0.00568291  0.36327625  1
  In  In25  1  0.51850796  0.00496086  0.87080778  1
  In  In26  1  0.51106542  0.34461917  0.36870342  1
  In  In27  1  0.51812909  0.31731403  0.89206513  1
  In  In28  1  0.49462585  0.65458895  0.37325602  1
  In  In29  1  0.49104065  0.66937197  0.87170743  1
  In  In30  1  0.83637387  0.00456822  0.36443063  1
  In  In31  1  0.81253651  0.01350879  0.89033394  1
  In  In32  1  0.82707312  0.33258250  0.37243440  1
  In  In33  1  0.81665163  0.32278935  0.87114475  1
  In  In34  1  0.81959876  0.65857376  0.36110352  1
  In  In35  1  0.83457809  0.67946609  0.87889129  1
  In  In36  1  -0.01282426  0.15598398  0.36448803  1
  In  In37  1  -0.00073272  0.16191549  0.88616552  1
  In  In38  1  -0.01050038  0.48629041  0.36543624  1
  In  In39  1  0.00015967  0.50209340  0.87828705  1
  In  In40  1  -0.01111111  0.83457664  0.35039283  1
  In  In41  1  -0.00757428  0.84013929  0.89127289  1
  In  In42  1  0.32837469  0.16047212  0.36232896  1
  In  In43  1  0.33071981  0.16966230  0.88340748  1
  In  In44  1  0.35089558  0.51094701  0.36984425  1
  In  In45  1  0.34138465  0.51856763  0.87313138  1
  In  In46  1  0.33463706  0.82706661  0.36641784  1
  In  In47  1  0.33805011  0.81941051  0.88275712  1
  In  In48  1  0.66612644  0.17142759  0.37117762  1
  In  In49  1  0.66720918  0.16515354  0.87603968  1
  In  In50  1  0.66780037  0.50070682  0.37571063  1
  In  In51  1  0.65496899  0.49131206  0.87371911  1
  In  In52  1  0.67535034  0.83619480  0.36040993  1
  In  In53  1  0.66999313  0.84140746  0.86841247  1
  In  In54  1  0.16744820  0.00100129  0.12148101  1
  In  In55  1  0.17815136  -0.00271764  0.62619817  1
  In  In56  1  0.17189594  0.32679277  0.12809330  1
  In  In57  1  0.16519881  0.32948496  0.62469187  1
  In  In58  1  0.15875287  0.67582269  0.13376346  1
  In  In59  1  0.16828961  0.67848280  0.62688809  1
  In  In60  1  0.49147576  0.00582348  0.13075733  1
  In  In61  1  0.52120358  0.01558073  0.62223100  1
  In  In62  1  0.50125479  0.33182670  0.12369071  1
  In  In63  1  0.50318583  0.34577998  0.62293134  1
  In  In64  1  0.50654985  0.66017069  0.12891989  1
  In  In65  1  0.50845104  0.66211280  0.63075664  1
  In  In66  1  0.82952610  -0.00008649  0.13084091  1
  In  In67  1  0.81714362  0.00571409  0.62198069  1
  In  In68  1  0.84138230  0.31903031  0.13239751  1
  In  In69  1  0.81286074  0.31666806  0.60691367  1
  In  In70  1  0.82768084  0.67900074  0.14086265  1
  In  In71  1  0.82796627  0.65594311  0.61658093  1
  In  In72  1  -0.00122291  0.67068814  0.74906672  1
  In  In73  1  0.15972052  0.16327344  0.50417294  1
  In  In74  1  0.34240078  0.33667877  0.75658123  1
  In  In75  1  0.16023244  0.82886269  0.47547101  1
  In  In76  1  0.50296257  0.82743015  0.50564516  1
  In  In77  1  0.16573484  0.49469967  0.50299735  1
  In  In78  1  0.83254265  0.49598887  0.00213610  1
  In  In79  1  0.34139048  -0.00261646  0.75630789  1
  In  In80  1  0.50627170  0.17319309  0.49790395  1
  In  In81  1  -0.00680527  0.33552761  0.75421400  1
  In  In82  1  0.82881216  0.82992013  0.48507450  1
  In  In83  1  -0.00433877  0.00364171  0.76148006  1
  In  In84  1  0.17223856  0.50121876  -0.00025826  1
  In  In85  1  0.50455080  0.83788074  -0.00062797  1
  Cu  Cu86  1  0.82670717  0.49490753  0.24792633  1
  Cu  Cu87  1  -0.01407994  0.00618245  0.49442018  1
  Cu  Cu88  1  0.33507064  0.33564287  0.48987644  1
  Cu  Cu89  1  0.82825900  0.17062489  0.24827926  1
  Cu  Cu90  1  0.16572951  0.16603096  0.24065429  1
  Cu  Cu91  1  0.66432868  0.33870767  0.49671426  1
  Cu  Cu92  1  0.67061971  0.66788657  0.00772502  1
  Cu  Cu93  1  0.33383135  0.00444398  0.00515603  1
  Cu  Cu94  1  0.17218978  0.82958279  0.75794977  1
  Cu  Cu95  1  0.17955417  0.49891317  0.74939547  1
  Cu  Cu96  1  0.66723919  0.32662469  0.00231660  1
  Cu  Cu97  1  0.17116719  0.49724824  0.25146512  1
  Cu  Cu98  1  0.82767645  0.83253077  0.75151617  1
  Cu  Cu99  1  -0.00123884  0.65939932  0.49003413  1
  Cu  Cu100  1  -0.00213148  -0.00424696  0.01019692  1
  Cu  Cu101  1  0.17450728  0.83606924  0.24549308  1
  Cu  Cu102  1  -0.01326495  0.32852117  0.49032404  1
  Cu  Cu103  1  0.33909839  0.33602282  0.00610112  1
  Cu  Cu104  1  0.66381058  0.66610700  0.49776588  1
  Cu  Cu105  1  0.50367668  0.50341941  0.74856788  1
  Cu  Cu106  1  0.50257293  0.49692300  0.25027059  1
  Cu  Cu107  1  0.49585011  0.16891761  0.24548103  1
  Cu  Cu108  1  0.50162636  0.82847211  0.24758085  1
  Cu  Cu109  1  0.33463851  0.66843381  0.00341565  1
  Cu  Cu110  1  -0.00228969  0.67436284  0.01278257  1
  Cu  Cu111  1  -0.00008295  0.32860709  0.00423340  1
  Cu  Cu112  1  0.67225469  -0.00049538  0.00294074  1
  Cu  Cu113  1  0.33342569  -0.00941093  0.49510818  1
  Cu  Cu114  1  0.82696325  0.49924187  0.74394876  1
  Se  Se115  1  0.08289118  0.08529646  0.05467599  1
  Se  Se116  1  0.07154333  0.06863009  0.56269900  1
  Se  Se117  1  0.07718891  0.41629621  0.05895938  1
  Se  Se118  1  0.06648311  0.40238011  0.55694059  1
  Se  Se119  1  0.08612508  0.75701535  0.05977150  1
  Se  Se120  1  0.07453471  0.74346732  0.54978602  1
  Se  Se121  1  0.42193997  0.08595079  0.05340978  1
  Se  Se122  1  0.41067965  0.07444752  0.55370258  1
  Se  Se123  1  0.42192877  0.42218612  0.05500589  1
  Se  Se124  1  0.42109692  0.41340919  0.54496929  1
  Se  Se125  1  0.41501934  0.75089261  0.06279757  1
  Se  Se126  1  0.40859032  0.74011778  0.56100965  1
  Se  Se127  1  0.75263618  0.08398533  0.05789147  1
  Se  Se128  1  0.74139335  0.09846089  0.56024914  1
  Se  Se129  1  0.74644657  0.40765854  0.06460651  1
  Se  Se130  1  0.74853391  0.42413515  0.54978105  1
  Se  Se131  1  0.75455561  0.74934590  0.05975730  1
  Se  Se132  1  0.74059413  0.75207849  0.55717784  1
  Se  Se133  1  0.24992580  0.25286505  0.05222047  1
  Se  Se134  1  0.26183980  0.25576268  0.55473386  1
  Se  Se135  1  0.25487391  0.58925995  0.06494598  1
  Se  Se136  1  0.25182245  0.59097235  0.55901315  1
  Se  Se137  1  0.25003543  0.91644901  0.05140254  1
  Se  Se138  1  0.24742569  0.91143501  0.54949011  1
  Se  Se139  1  0.58142673  0.24508218  0.05495615  1
  Se  Se140  1  0.59319301  0.25662279  0.56194668  1
  Se  Se141  1  0.58210616  0.58327669  0.05208218  1
  Se  Se142  1  0.58054581  0.58492103  0.55302711  1
  Se  Se143  1  0.59151342  0.92140889  0.06581466  1
  Se  Se144  1  0.59781995  0.92411164  0.55362424  1
  Se  Se145  1  0.91288464  0.24535236  0.05325050  1
  Se  Se146  1  0.91218698  0.24080112  0.54668025  1
  Se  Se147  1  0.91778787  0.58626176  0.06466374  1
  Se  Se148  1  0.91175524  0.58192205  0.54351850  1
  Se  Se149  1  0.91296930  0.91445363  0.06222340  1
  Se  Se150  1  0.91617956  0.91760022  0.55521614  1
  Se  Se151  1  0.07549562  0.24955497  0.43761542  1
  Se  Se152  1  0.08546054  0.24590330  0.95229018  1
  Se  Se153  1  0.08316329  0.58014966  0.43384247  1
  Se  Se154  1  0.07399917  0.59651829  0.94699166  1
  Se  Se155  1  0.06353886  0.92735993  0.43197786  1
  Se  Se156  1  0.08449205  0.91372032  0.95683817  1
  Se  Se157  1  0.41137562  0.24997969  0.43225132  1
  Se  Se158  1  0.41745000  0.24644697  0.95257857  1
  Se  Se159  1  0.42071059  0.58031274  0.45042395  1
  Se  Se160  1  0.42035581  0.58843436  0.95004755  1
  Se  Se161  1  0.41843632  0.91724964  0.43665064  1
  Se  Se162  1  0.41293392  0.92819815  0.93950985  1
  Se  Se163  1  0.74425535  0.25199919  0.44385487  1
  Se  Se164  1  0.75171234  0.24398392  0.94976740  1
  Se  Se165  1  0.75137160  0.58750922  0.44352659  1
  Se  Se166  1  0.74521040  0.58685274  0.94129490  1
  Se  Se167  1  0.74101398  0.92906600  0.43616703  1
  Se  Se168  1  0.74750343  0.90686244  0.95002464  1
  Se  Se169  1  0.25089743  0.07545927  0.44096911  1
  Se  Se170  1  0.24780090  0.08862855  0.95251807  1
  Se  Se171  1  0.25007916  0.41221338  0.43358841  1
  Se  Se172  1  0.26380776  0.41320767  0.93859783  1
  Se  Se173  1  0.26711856  0.73552229  0.44281219  1
  Se  Se174  1  0.24695305  0.75111219  0.95426588  1
  Se  Se175  1  0.58838977  0.07519310  0.44075012  1
  Se  Se176  1  0.58734555  0.08159553  0.94918348  1
  Se  Se177  1  0.58048611  0.42292237  0.44648147  1
  Se  Se178  1  0.58592311  0.41902442  0.95546060  1
  Se  Se179  1  0.59221701  0.74987386  0.43478457  1
  Se  Se180  1  0.59181760  0.74396279  0.94180667  1
  Se  Se181  1  0.90467340  0.08921076  0.44189229  1
  Se  Se182  1  0.91706196  0.07713735  0.95206057  1
  Se  Se183  1  0.90802459  0.41935823  0.44257228  1
  Se  Se184  1  0.92209388  0.40426298  0.93931841  1
  Se  Se185  1  0.92484282  0.74253189  0.42888160  1
  Se  Se186  1  0.91142523  0.75082924  0.95587698  1
  Se  Se187  1  0.24941748  0.24774080  0.29655921  1
  Se  Se188  1  0.24381103  0.24629922  0.80757892  1
  Se  Se189  1  0.25749738  0.58145233  0.30069836  1
  Se  Se190  1  0.25404456  0.58999504  0.80134341  1
  Se  Se191  1  0.25664946  0.91864255  0.30166418  1
  Se  Se192  1  0.24370416  0.91588416  0.81883169  1
  Se  Se193  1  0.57952873  0.24891870  0.30185610  1
  Se  Se194  1  0.59202342  0.25974450  0.81003950  1
  Se  Se195  1  0.58514927  0.58193710  0.30428745  1
  Se  Se196  1  0.58117828  0.58539910  0.80839250  1
  Se  Se197  1  0.58361821  0.91696239  0.29777060  1
  Se  Se198  1  0.56852138  0.90260496  0.80305020  1
  Se  Se199  1  0.91324776  0.25326587  0.30241288  1
  Se  Se200  1  0.91126468  0.23557116  0.80972151  1
  Se  Se201  1  0.91376522  0.57824668  0.29944564  1
  Se  Se202  1  0.90821230  0.57583324  0.80716119  1
  Se  Se203  1  0.91451780  0.92840015  0.28955755  1
  Se  Se204  1  0.90566654  0.90891800  0.81481567  1
  Se  Se205  1  0.08311836  0.08541692  0.29836555  1
  Se  Se206  1  0.09365528  0.09314697  0.81189915  1
  Se  Se207  1  0.08111623  0.41299050  0.29775373  1
  Se  Se208  1  0.09537314  0.42675345  0.80919657  1
  Se  Se209  1  0.09348908  0.75274509  0.30221303  1
  Se  Se210  1  0.08336681  0.75531203  0.81659627  1
  Se  Se211  1  0.41350411  0.07982273  0.29614298  1
  Se  Se212  1  0.42399529  0.09694210  0.81155656  1
  Se  Se213  1  0.41514942  0.41341289  0.30141791  1
  Se  Se214  1  0.43157714  0.42440320  0.81656726  1
  Se  Se215  1  0.42046074  0.74342343  0.30237859  1
  Se  Se216  1  0.41424043  0.75684265  0.80345495  1
  Se  Se217  1  0.74497434  0.08679858  0.30148802  1
  Se  Se218  1  0.74744601  0.07852093  0.80736804  1
  Se  Se219  1  0.74332675  0.41476263  0.30371214  1
  Se  Se220  1  0.75056511  0.42096647  0.80645291  1
  Se  Se221  1  0.76295741  0.75985461  0.29409236  1
  Se  Se222  1  0.74912739  0.74560250  0.80479700  1
  Se  Se223  1  0.25232067  0.08392472  0.18957860  1
  Se  Se224  1  0.24477269  0.09030455  0.69742263  1
  Se  Se225  1  0.25060226  0.41278829  0.19638550  1
  Se  Se226  1  0.25347691  0.42016965  0.68590756  1
  Se  Se227  1  0.25767727  0.74617912  0.19791187  1
  Se  Se228  1  0.25171863  0.74820325  0.70143662  1
  Se  Se229  1  0.58232763  0.08282574  0.19704330  1
  Se  Se230  1  0.57597771  0.08963765  0.70589609  1
  Se  Se231  1  0.58353618  0.41273419  0.19594157  1
  Se  Se232  1  0.58617361  0.42040723  0.69523088  1
  Se  Se233  1  0.58671234  0.74499396  0.19743938  1
  Se  Se234  1  0.57693013  0.75081792  0.70096526  1
  Se  Se235  1  0.91409531  0.08734847  0.19696020  1
  Se  Se236  1  0.91276139  0.08548867  0.69140386  1
  Se  Se237  1  0.91524847  0.41307873  0.19850852  1
  Se  Se238  1  0.91168604  0.42229428  0.68675948  1
  Se  Se239  1  0.93832254  0.73273769  0.19975323  1
  Se  Se240  1  0.90871951  0.75918842  0.68654558  1
  Se  Se241  1  0.07878436  0.25126651  0.19306128  1
  Se  Se242  1  0.09084286  0.24332306  0.69695951  1
  Se  Se243  1  0.08676333  0.58265362  0.20107620  1
  Se  Se244  1  0.09198460  0.57563457  0.69160816  1
  Se  Se245  1  0.08905813  0.91932860  0.19444026  1
  Se  Se246  1  0.09339058  0.91284267  0.69934924  1
  Se  Se247  1  0.41327356  0.25303362  0.19261462  1
  Se  Se248  1  0.42778379  0.24726238  0.69211360  1
  Se  Se249  1  0.41898133  0.58162384  0.19724499  1
  Se  Se250  1  0.41518085  0.58201831  0.69625814  1
  Se  Se251  1  0.41688560  0.91400262  0.19780517  1
  Se  Se252  1  0.42343532  0.92232429  0.68138248  1
  Se  Se253  1  0.74119893  0.25292249  0.19722868  1
  Se  Se254  1  0.76340473  0.26103815  0.70006313  1
  Se  Se255  1  0.74480173  0.58123784  0.19655460  1
  Se  Se256  1  0.74766665  0.58831078  0.69331615  1
  Se  Se257  1  0.75539220  0.91395564  0.20269289  1
  Se  Se258  1  0.75050241  0.91907547  0.69638987  1
