# generated using pymatgen
data_In86Cu29Se144
_symmetry_space_group_name_H-M   'P 1'
_cell_length_a   17.57397403
_cell_length_b   17.57328656
_cell_length_c   23.42944538
_cell_angle_alpha   90.00783160
_cell_angle_beta   90.00864946
_cell_angle_gamma   89.97402497
_symmetry_Int_Tables_number   1
_chemical_formula_structural   In86Cu29Se144
_chemical_formula_sum   'In86 Cu29 Se144'
_cell_volume   7235.77286593
_cell_formula_units_Z   1
loop_
 _symmetry_equiv_pos_site_id
 _symmetry_equiv_pos_as_xyz
  1  'x, y, z'
loop_
 _atom_site_type_symbol
 _atom_site_label
 _atom_site_symmetry_multiplicity
 _atom_site_fract_x
 _atom_site_fract_y
 _atom_site_fract_z
 _atom_site_occupancy
  In  In0  1  -0.01585302  0.17030011  0.13793384  1
  In  In1  1  -0.02782303  0.16929213  0.62590383  1
  In  In2  1  -0.00524443  0.49052326  0.14326716  1
  In  In3  1  0.01053696  0.51002787  0.61060866  1
  In  In4  1  0.01238651  0.82357430  0.13337141  1
  In  In5  1  0.00084750  0.83370524  0.62265746  1
  In  In6  1  0.33776398  0.16902711  0.14386494  1
  In  In7  1  0.33693495  0.16608135  0.62142422  1
  In  In8  1  0.34173612  0.49555239  0.13716669  1
  In  In9  1  0.34087507  0.51534458  0.61936515  1
  In  In10  1  0.32920927  0.83084118  0.12748076  1
  In  In11  1  0.31984225  0.82389122  0.61422487  1
  In  In12  1  0.67057805  0.16278247  0.11981837  1
  In  In13  1  0.69352488  0.15546049  0.64258688  1
  In  In14  1  0.66684775  0.50935620  0.12261044  1
  In  In15  1  0.66656141  0.49614390  0.61713729  1
  In  In16  1  0.65933390  0.84569902  0.11995037  1
  In  In17  1  0.67763807  0.84213626  0.61679230  1
  In  In18  1  0.16010288  -0.00856436  0.37139756  1
  In  In19  1  0.14556112  -0.01033095  0.87448221  1
  In  In20  1  0.17511824  0.34236787  0.37001459  1
  In  In21  1  0.16347748  0.33276532  0.87592455  1
  In  In22  1  0.16814594  0.66887117  0.37492341  1
  In  In23  1  0.17595718  0.67098600  0.86803724  1
  In  In24  1  0.48895773  0.00142266  0.37112348  1
  In  In25  1  0.49920172  -0.00935372  0.87485652  1
  In  In26  1  0.50521189  0.34185309  0.37550931  1
  In  In27  1  0.52402996  0.32944831  0.88085667  1
  In  In28  1  0.49769634  0.67012513  0.37896237  1
  In  In29  1  0.49249850  0.67295614  0.87810182  1
  In  In30  1  0.83745160  -0.00459629  0.38095505  1
  In  In31  1  0.84516684  0.01034743  0.86537785  1
  In  In32  1  0.83545207  0.33077350  0.38055571  1
  In  In33  1  0.82212145  0.33221053  0.87243686  1
  In  In34  1  0.84906092  0.65464444  0.38431065  1
  In  In35  1  0.84046230  0.64661822  0.86313675  1
  In  In36  1  -0.01973317  0.16249793  0.36465466  1
  In  In37  1  -0.00006292  0.15115855  0.87581381  1
  In  In38  1  -0.00021905  0.50634498  0.37128653  1
  In  In39  1  -0.01917927  0.50458650  0.86699889  1
  In  In40  1  0.00403348  0.83416138  0.37805446  1
  In  In41  1  0.00324268  0.83056301  0.87340923  1
  In  In42  1  0.33943990  0.16253346  0.35616052  1
  In  In43  1  0.33245926  0.16597550  0.87812745  1
  In  In44  1  0.33341963  0.50354580  0.37591932  1
  In  In45  1  0.33397645  0.51594470  0.87485879  1
  In  In46  1  0.33384345  0.83035280  0.37265711  1
  In  In47  1  0.33980922  0.82146724  0.88171293  1
  In  In48  1  0.68112034  0.17737365  0.37960020  1
  In  In49  1  0.68914702  0.18333727  0.85574469  1
  In  In50  1  0.66864385  0.47806487  0.40232158  1
  In  In51  1  0.66703055  0.48132991  0.87260849  1
  In  In52  1  0.67094651  0.82946560  0.38655835  1
  In  In53  1  0.65289519  0.83258255  0.86964271  1
  In  In54  1  0.17165153  -0.00709006  0.13271511  1
  In  In55  1  0.16294324  -0.01520074  0.62075823  1
  In  In56  1  0.16755365  0.33499518  0.13667444  1
  In  In57  1  0.15112666  0.33812968  0.61761001  1
  In  In58  1  0.15956610  0.67272013  0.13194788  1
  In  In59  1  0.16723703  0.67112811  0.62126147  1
  In  In60  1  0.49930266  -0.01071728  0.12484673  1
  In  In61  1  0.51578796  0.00436893  0.62369964  1
  In  In62  1  0.48935700  0.32958224  0.12889824  1
  In  In63  1  0.51617676  0.35239012  0.61485971  1
  In  In64  1  0.48907531  0.66143646  0.12273435  1
  In  In65  1  0.48980652  0.66051421  0.62129165  1
  In  In66  1  0.83198165  0.01155150  0.12928031  1
  In  In67  1  0.83929775  -0.00038678  0.62770176  1
  In  In68  1  0.84216494  0.33410917  0.13002673  1
  In  In69  1  0.81935422  0.32879194  0.60975356  1
  In  In70  1  0.84105141  0.66667981  0.13361452  1
  In  In71  1  0.84134691  0.67286385  0.61628222  1
  In  In72  1  0.66837590  0.66912726  0.74332115  1
  In  In73  1  0.16805714  0.15677455  0.01532800  1
  In  In74  1  0.82862487  0.83162990  -0.00075901  1
  In  In75  1  0.66931850  0.66069097  0.25320590  1
  In  In76  1  0.34152104  0.34201867  0.74320315  1
  In  In77  1  -0.00863638  0.33921239  0.74208673  1
  In  In78  1  0.82872440  0.49638272  -0.00365633  1
  In  In79  1  0.66348780  0.00339708  0.24813763  1
  In  In80  1  0.66649415  0.33030221  0.25725613  1
  In  In81  1  0.16621691  0.50388174  0.00403677  1
  In  In82  1  0.50766066  0.17086009  0.49477523  1
  In  In83  1  0.50378806  0.16125857  0.00540163  1
  In  In84  1  0.33562058  -0.00550705  0.75339686  1
  In  In85  1  0.15822146  0.16395813  0.48701929  1
  Cu  Cu86  1  0.66134217  0.66710886  0.50448478  1
  Cu  Cu87  1  0.33191048  0.66729659  0.49507610  1
  Cu  Cu88  1  0.66533530  0.00294175  -0.00531047  1
  Cu  Cu89  1  0.32880167  0.33663739  0.49572905  1
  Cu  Cu90  1  -0.00407568  0.00301680  0.49981260  1
  Cu  Cu91  1  0.00484564  0.67309829  0.49635312  1
  Cu  Cu92  1  0.83651864  0.83533622  0.74307021  1
  Cu  Cu93  1  0.17019045  0.83375570  0.25379792  1
  Cu  Cu94  1  0.15808229  0.16595467  0.25378292  1
  Cu  Cu95  1  0.16160971  0.82764432  0.74517478  1
  Cu  Cu96  1  0.32537848  -0.00962596  0.00395620  1
  Cu  Cu97  1  -0.00389107  0.34176719  0.49482851  1
  Cu  Cu98  1  0.00227964  0.66307073  0.00257227  1
  Cu  Cu99  1  0.50085450  0.50321072  0.25671206  1
  Cu  Cu100  1  0.33337448  0.67280772  0.00202762  1
  Cu  Cu101  1  0.65590630  0.67047822  -0.00182155  1
  Cu  Cu102  1  0.49456220  0.83114574  0.25020547  1
  Cu  Cu103  1  0.16432212  0.16081739  0.75210190  1
  Cu  Cu104  1  0.51258546  0.17444829  0.74797563  1
  Cu  Cu105  1  0.49388926  0.83191316  0.74788949  1
  Cu  Cu106  1  0.67200164  -0.00153360  0.50546763  1
  Cu  Cu107  1  -0.00892987  -0.00547321  -0.00065488  1
  Cu  Cu108  1  0.33570269  -0.01013783  0.49274254  1
  Cu  Cu109  1  0.34166386  0.34167083  0.00874037  1
  Cu  Cu110  1  0.50278741  0.50146001  0.74640065  1
  Cu  Cu111  1  -0.00233398  0.32090361  0.00862727  1
  Cu  Cu112  1  0.16918577  0.50676844  0.25458567  1
  Cu  Cu113  1  0.16333647  0.50864498  0.74361841  1
  Cu  Cu114  1  0.84356301  0.83196618  0.25639308  1
  Se  Se115  1  0.06815802  0.07152048  0.06667137  1
  Se  Se116  1  0.07652794  0.08440956  0.56080873  1
  Se  Se117  1  0.07520232  0.41012654  0.06241557  1
  Se  Se118  1  0.08835809  0.42166529  0.54103002  1
  Se  Se119  1  0.08393313  0.74793201  0.05414208  1
  Se  Se120  1  0.08685295  0.75610696  0.55204433  1
  Se  Se121  1  0.40142632  0.07831878  0.06161051  1
  Se  Se122  1  0.41276281  0.07448684  0.55236413  1
  Se  Se123  1  0.42304406  0.42575018  0.05990576  1
  Se  Se124  1  0.40948977  0.41482851  0.55527153  1
  Se  Se125  1  0.41761283  0.75570577  0.05585323  1
  Se  Se126  1  0.41595867  0.74947027  0.55094308  1
  Se  Se127  1  0.75082907  0.07898596  0.05102157  1
  Se  Se128  1  0.75451511  0.08305498  0.55766191  1
  Se  Se129  1  0.74440048  0.40813303  0.06100813  1
  Se  Se130  1  0.74962572  0.42388731  0.54324316  1
  Se  Se131  1  0.74103192  0.73897779  0.06293662  1
  Se  Se132  1  0.75171765  0.75166417  0.54964992  1
  Se  Se133  1  0.26058570  0.25726364  0.06412696  1
  Se  Se134  1  0.25031394  0.25162649  0.55429872  1
  Se  Se135  1  0.25768348  0.58948893  0.06477120  1
  Se  Se136  1  0.24801384  0.58566798  0.55138339  1
  Se  Se137  1  0.24133486  0.90984800  0.05724316  1
  Se  Se138  1  0.24583520  0.91549473  0.54612365  1
  Se  Se139  1  0.58906482  0.26105414  0.05901310  1
  Se  Se140  1  0.59231440  0.23852535  0.56989459  1
  Se  Se141  1  0.57953742  0.58498069  0.05483724  1
  Se  Se142  1  0.57735443  0.58111332  0.55424787  1
  Se  Se143  1  0.57898812  0.92063597  0.04621724  1
  Se  Se144  1  0.58095469  0.91529277  0.55073865  1
  Se  Se145  1  0.90945488  0.24217708  0.05795976  1
  Se  Se146  1  0.91599761  0.25270932  0.54581948  1
  Se  Se147  1  0.92337190  0.58036995  0.06111300  1
  Se  Se148  1  0.91835354  0.58759816  0.54517277  1
  Se  Se149  1  0.91749330  0.91368069  0.06490147  1
  Se  Se150  1  0.91617195  0.91693649  0.55478298  1
  Se  Se151  1  0.07134865  0.25886049  0.43120994  1
  Se  Se152  1  0.08311118  0.24747651  0.94778182  1
  Se  Se153  1  0.08454097  0.58563086  0.44306076  1
  Se  Se154  1  0.07549957  0.58353541  0.93650521  1
  Se  Se155  1  0.08323688  0.92036680  0.44936774  1
  Se  Se156  1  0.07699502  0.90921205  0.95117314  1
  Se  Se157  1  0.40424694  0.25047806  0.43776434  1
  Se  Se158  1  0.41234659  0.25746222  0.94436689  1
  Se  Se159  1  0.41864002  0.58174946  0.44674824  1
  Se  Se160  1  0.41550509  0.58665427  0.94954837  1
  Se  Se161  1  0.42356019  0.90993951  0.44199270  1
  Se  Se162  1  0.41337603  0.91774592  0.94610914  1
  Se  Se163  1  0.74262664  0.26498607  0.45231505  1
  Se  Se164  1  0.74197220  0.25494117  0.94300568  1
  Se  Se165  1  0.74533032  0.58876692  0.44748182  1
  Se  Se166  1  0.74017518  0.59364325  0.93847771  1
  Se  Se167  1  0.75509948  0.91489116  0.45111809  1
  Se  Se168  1  0.74447636  0.92011789  0.93495213  1
  Se  Se169  1  0.26120501  0.07949011  0.43520411  1
  Se  Se170  1  0.24960263  0.07191444  0.94087764  1
  Se  Se171  1  0.24664466  0.42301235  0.44579844  1
  Se  Se172  1  0.25723448  0.41080329  0.94353227  1
  Se  Se173  1  0.24905248  0.75408295  0.44466871  1
  Se  Se174  1  0.24400596  0.74894702  0.94753295  1
  Se  Se175  1  0.59535441  0.07310433  0.43703057  1
  Se  Se176  1  0.58812445  0.08488328  0.93309605  1
  Se  Se177  1  0.57175094  0.40181270  0.46145215  1
  Se  Se178  1  0.57880137  0.42745570  0.94988948  1
  Se  Se179  1  0.57944681  0.75095049  0.45003649  1
  Se  Se180  1  0.57680924  0.75713861  0.94570971  1
  Se  Se181  1  0.91398222  0.08875218  0.44739629  1
  Se  Se182  1  0.91234258  0.08320994  0.94867600  1
  Se  Se183  1  0.91429664  0.42673347  0.44216539  1
  Se  Se184  1  0.92783011  0.40496930  0.94274589  1
  Se  Se185  1  0.91606282  0.75638675  0.44739557  1
  Se  Se186  1  0.91487948  0.73445103  0.94109945  1
  Se  Se187  1  0.24688927  0.25030437  0.30093081  1
  Se  Se188  1  0.24685553  0.24653888  0.80398527  1
  Se  Se189  1  0.25492566  0.58900983  0.30573042  1
  Se  Se190  1  0.25255724  0.58356507  0.79848378  1
  Se  Se191  1  0.25432727  0.91925869  0.30479766  1
  Se  Se192  1  0.24149744  0.90571411  0.81041918  1
  Se  Se193  1  0.57434642  0.23578276  0.31193083  1
  Se  Se194  1  0.59233571  0.26467760  0.79646816  1
  Se  Se195  1  0.58725373  0.57209626  0.31948627  1
  Se  Se196  1  0.58116999  0.58283281  0.80962554  1
  Se  Se197  1  0.58266625  0.90496115  0.30927770  1
  Se  Se198  1  0.57753848  0.91729927  0.79797331  1
  Se  Se199  1  0.91328136  0.26308915  0.30094990  1
  Se  Se200  1  0.91796253  0.24600810  0.81100319  1
  Se  Se201  1  0.91897491  0.59046849  0.30182148  1
  Se  Se202  1  0.92554448  0.58640720  0.78641898  1
  Se  Se203  1  0.92132357  0.91984424  0.30884966  1
  Se  Se204  1  0.91951527  0.91156177  0.80484190  1
  Se  Se205  1  0.07808891  0.08115249  0.30721959  1
  Se  Se206  1  0.07917023  0.07690006  0.80056992  1
  Se  Se207  1  0.08506444  0.42072226  0.30449698  1
  Se  Se208  1  0.08960694  0.42430392  0.80589186  1
  Se  Se209  1  0.08397527  0.75201735  0.30638269  1
  Se  Se210  1  0.08105680  0.74509149  0.80336118  1
  Se  Se211  1  0.42120984  0.07560924  0.29244719  1
  Se  Se212  1  0.42575012  0.09736404  0.80583546  1
  Se  Se213  1  0.41685812  0.41711636  0.30742637  1
  Se  Se214  1  0.42599863  0.42281431  0.81298740  1
  Se  Se215  1  0.41655559  0.74440813  0.30412172  1
  Se  Se216  1  0.41317220  0.74838595  0.80231484  1
  Se  Se217  1  0.75654981  0.08699168  0.30904801  1
  Se  Se218  1  0.73844353  0.06633406  0.80288722  1
  Se  Se219  1  0.74909572  0.42727459  0.31510019  1
  Se  Se220  1  0.78081326  0.44559320  0.80959519  1
  Se  Se221  1  0.75755846  0.75297244  0.31265146  1
  Se  Se222  1  0.75885594  0.75651959  0.80824400  1
  Se  Se223  1  0.24488324  0.08411400  0.20106712  1
  Se  Se224  1  0.24681494  0.08562453  0.68979425  1
  Se  Se225  1  0.25119457  0.41866243  0.20266865  1
  Se  Se226  1  0.24111410  0.42292025  0.68542668  1
  Se  Se227  1  0.25092010  0.74768832  0.19910338  1
  Se  Se228  1  0.25182814  0.74904506  0.69459027  1
  Se  Se229  1  0.57247743  0.09291789  0.18828461  1
  Se  Se230  1  0.58884830  0.08088871  0.69958328  1
  Se  Se231  1  0.58082829  0.42497457  0.19384079  1
  Se  Se232  1  0.58978857  0.42093864  0.69578879  1
  Se  Se233  1  0.58166438  0.75512060  0.19113105  1
  Se  Se234  1  0.57709378  0.75838457  0.68415544  1
  Se  Se235  1  0.91732325  0.07332654  0.20435147  1
  Se  Se236  1  0.91343581  0.08342953  0.70131233  1
  Se  Se237  1  0.91719105  0.40239743  0.20882234  1
  Se  Se238  1  0.91481457  0.42268498  0.67170682  1
  Se  Se239  1  0.92333584  0.74626626  0.20191512  1
  Se  Se240  1  0.91844694  0.74982678  0.69206211  1
  Se  Se241  1  0.07930268  0.25100046  0.19851051  1
  Se  Se242  1  0.08703830  0.24137993  0.68937302  1
  Se  Se243  1  0.08168212  0.58328846  0.19894867  1
  Se  Se244  1  0.08047326  0.58883898  0.68903315  1
  Se  Se245  1  0.08327534  0.91619945  0.20150793  1
  Se  Se246  1  0.08079734  0.91704130  0.69624446  1
  Se  Se247  1  0.41657362  0.25886301  0.20667827  1
  Se  Se248  1  0.43040677  0.24824622  0.68459744  1
  Se  Se249  1  0.41887387  0.58807229  0.20311640  1
  Se  Se250  1  0.41497366  0.58553167  0.69971275  1
  Se  Se251  1  0.41406951  0.91566720  0.19575455  1
  Se  Se252  1  0.41840468  0.91272631  0.68301212  1
  Se  Se253  1  0.75305320  0.24020714  0.19399901  1
  Se  Se254  1  0.76031405  0.26269925  0.69801183  1
  Se  Se255  1  0.76349402  0.56828852  0.19677120  1
  Se  Se256  1  0.75681294  0.58160192  0.68351853  1
  Se  Se257  1  0.75711498  0.90459886  0.19438601  1
  Se  Se258  1  0.74885736  0.91765342  0.69482548  1
