# generated using pymatgen
data_In86Cu29Se144
_symmetry_space_group_name_H-M   'P 1'
_cell_length_a   17.59283601
_cell_length_b   17.59034113
_cell_length_c   23.45498362
_cell_angle_alpha   90.00195195
_cell_angle_beta   90.01467711
_cell_angle_gamma   89.99849670
_symmetry_Int_Tables_number   1
_chemical_formula_structural   In86Cu29Se144
_chemical_formula_sum   'In86 Cu29 Se144'
_cell_volume   7258.47249641
_cell_formula_units_Z   1
loop_
 _symmetry_equiv_pos_site_id
 _symmetry_equiv_pos_as_xyz
  1  'x, y, z'
loop_
 _atom_site_type_symbol
 _atom_site_label
 _atom_site_symmetry_multiplicity
 _atom_site_fract_x
 _atom_site_fract_y
 _atom_site_fract_z
 _atom_site_occupancy
  In  In0  1  -0.00347930  0.15007629  0.12390781  1
  In  In1  1  -0.01482425  0.16258521  0.62433774  1
  In  In2  1  0.01204081  0.51075773  0.12389698  1
  In  In3  1  0.00363777  0.51556232  0.62193845  1
  In  In4  1  -0.00143399  0.83420870  0.12354075  1
  In  In5  1  -0.00433353  0.83925540  0.63183492  1
  In  In6  1  0.33463768  0.15928760  0.12247090  1
  In  In7  1  0.34273325  0.16400260  0.61680411  1
  In  In8  1  0.34943216  0.50129824  0.12480548  1
  In  In9  1  0.35781263  0.52103230  0.61494967  1
  In  In10  1  0.33533411  0.83067462  0.12618011  1
  In  In11  1  0.33700450  0.82296868  0.62281374  1
  In  In12  1  0.64744974  0.15745509  0.12841983  1
  In  In13  1  0.65996632  0.15670531  0.61915454  1
  In  In14  1  0.66466753  0.51858259  0.12467486  1
  In  In15  1  0.66536941  0.50130339  0.61605953  1
  In  In16  1  0.66784122  0.83352391  0.12496193  1
  In  In17  1  0.67306876  0.83943393  0.61838636  1
  In  In18  1  0.16078902  -0.00808897  0.36289107  1
  In  In19  1  0.16029265  0.00421632  0.88469616  1
  In  In20  1  0.17126118  0.33684809  0.37014347  1
  In  In21  1  0.16060985  0.31885947  0.88053291  1
  In  In22  1  0.17218352  0.67576312  0.36880384  1
  In  In23  1  0.17221040  0.67509775  0.87338961  1
  In  In24  1  0.50187961  -0.00163351  0.36816695  1
  In  In25  1  0.50457166  -0.00545061  0.88357874  1
  In  In26  1  0.49889133  0.32854609  0.38404044  1
  In  In27  1  0.49527378  0.33634220  0.87999220  1
  In  In28  1  0.49862189  0.66741074  0.37438394  1
  In  In29  1  0.49598660  0.67748187  0.88175129  1
  In  In30  1  0.83174722  -0.00389860  0.37525553  1
  In  In31  1  0.82061575  -0.01503449  0.86820010  1
  In  In32  1  0.82634753  0.33574380  0.38405691  1
  In  In33  1  0.83080175  0.34567500  0.87464403  1
  In  In34  1  0.83196796  0.67731450  0.37838244  1
  In  In35  1  0.84065880  0.66635641  0.87352349  1
  In  In36  1  -0.00196200  0.14944067  0.37400111  1
  In  In37  1  0.01471568  0.16228690  0.88087229  1
  In  In38  1  -0.01738086  0.51637728  0.38499699  1
  In  In39  1  -0.01109638  0.50511700  0.87172193  1
  In  In40  1  -0.01362083  0.82209324  0.37079429  1
  In  In41  1  -0.00312187  0.83332937  0.87666512  1
  In  In42  1  0.35982207  0.15676817  0.37061308  1
  In  In43  1  0.33656310  0.16035678  0.88448008  1
  In  In44  1  0.34008408  0.51369638  0.37849840  1
  In  In45  1  0.33626097  0.51671288  0.87032562  1
  In  In46  1  0.33894594  0.83886791  0.36777198  1
  In  In47  1  0.34145253  0.82297512  0.88555427  1
  In  In48  1  0.66783855  0.15957849  0.37621584  1
  In  In49  1  0.66922964  0.15141286  0.87597970  1
  In  In50  1  0.65539630  0.51149602  0.38030773  1
  In  In51  1  0.66273284  0.50371943  0.87773833  1
  In  In52  1  0.66593924  0.83398611  0.37331083  1
  In  In53  1  0.65026768  0.83839869  0.88835327  1
  In  In54  1  0.16789918  -0.00436226  0.12132489  1
  In  In55  1  0.16308030  -0.01498642  0.62967841  1
  In  In56  1  0.17969707  0.33244614  0.11956113  1
  In  In57  1  0.16688639  0.32519064  0.62822188  1
  In  In58  1  0.15741153  0.67992885  0.13266319  1
  In  In59  1  0.16612793  0.67065869  0.63448932  1
  In  In60  1  0.50246686  -0.00228965  0.13108391  1
  In  In61  1  0.51061983  0.00603121  0.61691926  1
  In  In62  1  0.49642452  0.33084312  0.11858964  1
  In  In63  1  0.50654580  0.34243635  0.61549858  1
  In  In64  1  0.50303089  0.66662853  0.12466458  1
  In  In65  1  0.49125515  0.66643563  0.61410168  1
  In  In66  1  0.84486485  -0.01254985  0.13456244  1
  In  In67  1  0.83008452  -0.00313659  0.62540961  1
  In  In68  1  0.83227974  0.32759575  0.12778512  1
  In  In69  1  0.83180990  0.33050743  0.61524276  1
  In  In70  1  0.81426454  0.69163687  0.13763853  1
  In  In71  1  0.84869253  0.67993671  0.60799757  1
  In  In72  1  0.66154724  0.33058807  0.73424387  1
  In  In73  1  0.33236371  0.33309793  0.24640513  1
  In  In74  1  0.32946762  -0.00699451  0.75234522  1
  In  In75  1  0.16923887  0.50309601  0.49636505  1
  In  In76  1  0.00051603  0.33763981  0.24829279  1
  In  In77  1  0.16953543  0.83153595  0.49517578  1
  In  In78  1  0.17220475  0.49799924  -0.00361690  1
  In  In79  1  0.66582860  0.67010322  0.74831593  1
  In  In80  1  -0.00434204  0.33432053  0.76020252  1
  In  In81  1  0.33394443  0.34079488  0.74467945  1
  In  In82  1  0.17057319  0.16492606  0.49893755  1
  In  In83  1  0.83524618  0.16275275  0.00356181  1
  In  In84  1  0.83547201  0.50383494  -0.00398382  1
  In  In85  1  0.66379933  0.33581040  0.26159127  1
  Cu  Cu86  1  0.66779809  0.32755666  0.49905518  1
  Cu  Cu87  1  0.33453107  0.66606763  0.00281710  1
  Cu  Cu88  1  0.50327446  0.50589894  0.25011226  1
  Cu  Cu89  1  0.66302051  -0.00080551  0.00414431  1
  Cu  Cu90  1  0.16775209  0.83561158  0.24424003  1
  Cu  Cu91  1  -0.00271680  0.33000784  0.49991108  1
  Cu  Cu92  1  -0.00503587  0.67392496  0.00219780  1
  Cu  Cu93  1  0.50270944  0.83072290  0.24856204  1
  Cu  Cu94  1  0.16787200  0.15837863  0.24484399  1
  Cu  Cu95  1  0.34194329  0.00187497  0.49205616  1
  Cu  Cu96  1  0.16201385  0.51296768  0.25356730  1
  Cu  Cu97  1  0.66259098  0.33407700  0.00107093  1
  Cu  Cu98  1  0.83249512  0.83555263  0.25286959  1
  Cu  Cu99  1  0.16555517  0.15776253  0.75640997  1
  Cu  Cu100  1  0.17007396  0.50843705  0.74944537  1
  Cu  Cu101  1  0.83682073  0.51710540  0.25189609  1
  Cu  Cu102  1  0.83186667  0.50484976  0.74285870  1
  Cu  Cu103  1  0.16059894  0.82960446  0.75494110  1
  Cu  Cu104  1  0.83162644  0.83087123  0.74665115  1
  Cu  Cu105  1  0.50279026  0.83515359  0.75544834  1
  Cu  Cu106  1  0.66531051  0.66981081  0.49610908  1
  Cu  Cu107  1  0.83044510  0.16227313  0.25492032  1
  Cu  Cu108  1  -0.00127795  -0.00682078  0.00174594  1
  Cu  Cu109  1  0.83631919  0.15174539  0.75129993  1
  Cu  Cu110  1  0.33831117  0.32690819  -0.00044235  1
  Cu  Cu111  1  0.50745269  0.16327801  0.74826200  1
  Cu  Cu112  1  -0.01129008  -0.00266675  0.50126161  1
  Cu  Cu113  1  0.33678319  -0.00567821  0.00626937  1
  Cu  Cu114  1  0.66788489  -0.00410766  0.49538560  1
  Se  Se115  1  0.08226126  0.07942292  0.05221932  1
  Se  Se116  1  0.07892193  0.07320211  0.55870726  1
  Se  Se117  1  0.07886767  0.41027570  0.05694603  1
  Se  Se118  1  0.07986175  0.40775970  0.55892937  1
  Se  Se119  1  0.08406405  0.75223328  0.05388318  1
  Se  Se120  1  0.08101816  0.75028061  0.56194123  1
  Se  Se121  1  0.42218414  0.07885306  0.05665428  1
  Se  Se122  1  0.42333203  0.08452730  0.54758952  1
  Se  Se123  1  0.41726995  0.41674154  0.05012283  1
  Se  Se124  1  0.40888018  0.41251779  0.55400102  1
  Se  Se125  1  0.41829345  0.74958020  0.05576975  1
  Se  Se126  1  0.42181213  0.76172202  0.54752908  1
  Se  Se127  1  0.74710497  0.07560991  0.06557151  1
  Se  Se128  1  0.74942064  0.07831390  0.55335122  1
  Se  Se129  1  0.74597702  0.41194587  0.06010410  1
  Se  Se130  1  0.74910398  0.41566046  0.55048417  1
  Se  Se131  1  0.74962223  0.75353269  0.05310653  1
  Se  Se132  1  0.74955538  0.75340218  0.54840536  1
  Se  Se133  1  0.25422716  0.24488550  0.05212085  1
  Se  Se134  1  0.25948032  0.26073486  0.55462724  1
  Se  Se135  1  0.25168281  0.58744870  0.06345116  1
  Se  Se136  1  0.25208643  0.59789861  0.55741123  1
  Se  Se137  1  0.25041259  0.90987058  0.05479774  1
  Se  Se138  1  0.25934055  0.92744888  0.55499872  1
  Se  Se139  1  0.58419596  0.24724740  0.05442611  1
  Se  Se140  1  0.58256560  0.24719175  0.55325643  1
  Se  Se141  1  0.56955728  0.57191148  0.05391433  1
  Se  Se142  1  0.58250309  0.58576639  0.55001602  1
  Se  Se143  1  0.58050978  0.91576468  0.05780818  1
  Se  Se144  1  0.58285409  0.91409385  0.54937168  1
  Se  Se145  1  0.92686507  0.25686316  0.05965167  1
  Se  Se146  1  0.91431081  0.24310106  0.54969352  1
  Se  Se147  1  0.91672594  0.59280287  0.06277534  1
  Se  Se148  1  0.91092315  0.57131810  0.54981703  1
  Se  Se149  1  0.91135401  0.91300793  0.05338325  1
  Se  Se150  1  0.91295113  0.91150618  0.55723939  1
  Se  Se151  1  0.07763568  0.25493830  0.43725911  1
  Se  Se152  1  0.08454108  0.24443751  0.95413938  1
  Se  Se153  1  0.08137145  0.60034066  0.44331884  1
  Se  Se154  1  0.07367228  0.58882845  0.94257031  1
  Se  Se155  1  0.07449400  0.92311309  0.44077212  1
  Se  Se156  1  0.08266588  0.91075720  0.94791129  1
  Se  Se157  1  0.40618810  0.24976965  0.44606263  1
  Se  Se158  1  0.42389826  0.24417216  0.94769472  1
  Se  Se159  1  0.43259083  0.57615626  0.44779032  1
  Se  Se160  1  0.41611139  0.58357603  0.94737575  1
  Se  Se161  1  0.42160388  0.91488055  0.44033952  1
  Se  Se162  1  0.42034738  0.91297009  0.95047398  1
  Se  Se163  1  0.74965477  0.24239074  0.44654689  1
  Se  Se164  1  0.74571183  0.25702622  0.94123804  1
  Se  Se165  1  0.75039355  0.58590251  0.44438201  1
  Se  Se166  1  0.74146053  0.59600596  0.94336419  1
  Se  Se167  1  0.75262951  0.91138838  0.44479035  1
  Se  Se168  1  0.74693368  0.91808959  0.94933056  1
  Se  Se169  1  0.25160379  0.07405262  0.43399371  1
  Se  Se170  1  0.25333673  0.07817005  0.95100909  1
  Se  Se171  1  0.26011282  0.40999086  0.44026129  1
  Se  Se172  1  0.26263301  0.40718794  0.93472419  1
  Se  Se173  1  0.26551532  0.74337983  0.44163645  1
  Se  Se174  1  0.24742483  0.74797994  0.95133838  1
  Se  Se175  1  0.58175906  0.07839162  0.44302112  1
  Se  Se176  1  0.58308281  0.08582588  0.95032855  1
  Se  Se177  1  0.58667959  0.41314596  0.44573919  1
  Se  Se178  1  0.58377906  0.41787882  0.94502714  1
  Se  Se179  1  0.58198515  0.75264230  0.44243995  1
  Se  Se180  1  0.58230755  0.74512257  0.95468452  1
  Se  Se181  1  0.91061829  0.08378239  0.44691673  1
  Se  Se182  1  0.91727191  0.07184054  0.93868566  1
  Se  Se183  1  0.91562436  0.41658643  0.44878514  1
  Se  Se184  1  0.93069979  0.40549984  0.94552455  1
  Se  Se185  1  0.91742959  0.75179173  0.45051674  1
  Se  Se186  1  0.91078108  0.75250147  0.94630566  1
  Se  Se187  1  0.24579784  0.23751561  0.30715524  1
  Se  Se188  1  0.25082867  0.24199392  0.80773189  1
  Se  Se189  1  0.25467365  0.58534497  0.30587096  1
  Se  Se190  1  0.25206107  0.59362988  0.80129693  1
  Se  Se191  1  0.25276091  0.91722029  0.29806778  1
  Se  Se192  1  0.24304078  0.90750643  0.81673424  1
  Se  Se193  1  0.57056317  0.23975500  0.30926013  1
  Se  Se194  1  0.58222960  0.24736348  0.80920090  1
  Se  Se195  1  0.58629153  0.58945602  0.30247221  1
  Se  Se196  1  0.57555387  0.58321937  0.80939512  1
  Se  Se197  1  0.58681937  0.91478237  0.30084790  1
  Se  Se198  1  0.58414977  0.91867656  0.80873518  1
  Se  Se199  1  0.91049158  0.24912431  0.31031929  1
  Se  Se200  1  0.90480684  0.23760764  0.81539978  1
  Se  Se201  1  0.91948701  0.59709241  0.30659190  1
  Se  Se202  1  0.91488845  0.58570216  0.79821691  1
  Se  Se203  1  0.91847221  0.91924953  0.30427596  1
  Se  Se204  1  0.91540569  0.91251687  0.80318148  1
  Se  Se205  1  0.07908254  0.08112614  0.29786852  1
  Se  Se206  1  0.08057945  0.07541353  0.80642467  1
  Se  Se207  1  0.08286632  0.43145895  0.31295608  1
  Se  Se208  1  0.09644139  0.42521527  0.81217665  1
  Se  Se209  1  0.08577015  0.75672130  0.30352634  1
  Se  Se210  1  0.07666062  0.74580209  0.80737984  1
  Se  Se211  1  0.40954567  0.06593475  0.29572869  1
  Se  Se212  1  0.42250359  0.08654287  0.80743521  1
  Se  Se213  1  0.42423389  0.42039750  0.30789301  1
  Se  Se214  1  0.42520381  0.42646496  0.80525944  1
  Se  Se215  1  0.41770646  0.74819674  0.30229302  1
  Se  Se216  1  0.41669879  0.75257154  0.80580948  1
  Se  Se217  1  0.74723983  0.07782021  0.30544978  1
  Se  Se218  1  0.74382329  0.07563718  0.80066659  1
  Se  Se219  1  0.75976022  0.43115373  0.31064226  1
  Se  Se220  1  0.74943564  0.42451061  0.79999882  1
  Se  Se221  1  0.74878231  0.74997196  0.30391415  1
  Se  Se222  1  0.75041671  0.75917419  0.81255033  1
  Se  Se223  1  0.25190034  0.07812577  0.19121594  1
  Se  Se224  1  0.24632197  0.08991165  0.68848269  1
  Se  Se225  1  0.24006665  0.43119092  0.19275455  1
  Se  Se226  1  0.24309822  0.42950665  0.68504742  1
  Se  Se227  1  0.25447661  0.74775562  0.19826039  1
  Se  Se228  1  0.25039688  0.75762799  0.69828263  1
  Se  Se229  1  0.58295752  0.07718417  0.20423545  1
  Se  Se230  1  0.58741736  0.07729889  0.69592696  1
  Se  Se231  1  0.57884769  0.41880683  0.19147084  1
  Se  Se232  1  0.57147223  0.43436994  0.69194453  1
  Se  Se233  1  0.58610477  0.74824617  0.19410339  1
  Se  Se234  1  0.57719768  0.75945450  0.68768743  1
  Se  Se235  1  0.91719289  0.08310531  0.20120965  1
  Se  Se236  1  0.92089401  0.07315948  0.69645779  1
  Se  Se237  1  0.90765068  0.43032153  0.19028832  1
  Se  Se238  1  0.91324539  0.41734875  0.68919110  1
  Se  Se239  1  0.91952193  0.75435298  0.19841677  1
  Se  Se240  1  0.91403601  0.74593671  0.69442463  1
  Se  Se241  1  0.09100381  0.24702648  0.18853613  1
  Se  Se242  1  0.08420636  0.24014126  0.69787031  1
  Se  Se243  1  0.07628075  0.59296599  0.20074111  1
  Se  Se244  1  0.07869267  0.58739681  0.69988621  1
  Se  Se245  1  0.08196194  0.91804719  0.19184879  1
  Se  Se246  1  0.08001147  0.91720187  0.70389287  1
  Se  Se247  1  0.42525915  0.24195503  0.19299001  1
  Se  Se248  1  0.42706024  0.24467667  0.69021585  1
  Se  Se249  1  0.41728544  0.58708999  0.19762110  1
  Se  Se250  1  0.41834059  0.59772935  0.69519695  1
  Se  Se251  1  0.41635642  0.91282996  0.19651997  1
  Se  Se252  1  0.42480054  0.91426815  0.69004745  1
  Se  Se253  1  0.75008389  0.24333316  0.19627829  1
  Se  Se254  1  0.76196603  0.23655070  0.68958265  1
  Se  Se255  1  0.74441729  0.59039927  0.19990931  1
  Se  Se256  1  0.75534168  0.58628187  0.68279913  1
  Se  Se257  1  0.74755008  0.91651746  0.19802847  1
  Se  Se258  1  0.74680664  0.91536233  0.69590466  1
