# generated using pymatgen
data_In86Cu29Se144
_symmetry_space_group_name_H-M   'P 1'
_cell_length_a   17.58068546
_cell_length_b   17.57859180
_cell_length_c   23.43879894
_cell_angle_alpha   89.99219988
_cell_angle_beta   90.02449617
_cell_angle_gamma   90.00881536
_symmetry_Int_Tables_number   1
_chemical_formula_structural   In86Cu29Se144
_chemical_formula_sum   'In86 Cu29 Se144'
_cell_volume   7243.61217888
_cell_formula_units_Z   1
loop_
 _symmetry_equiv_pos_site_id
 _symmetry_equiv_pos_as_xyz
  1  'x, y, z'
loop_
 _atom_site_type_symbol
 _atom_site_label
 _atom_site_symmetry_multiplicity
 _atom_site_fract_x
 _atom_site_fract_y
 _atom_site_fract_z
 _atom_site_occupancy
  In  In0  1  -0.02765232  0.18351454  0.14833258  1
  In  In1  1  -0.00110917  0.15580360  0.61843962  1
  In  In2  1  -0.00221125  0.50173478  0.12609997  1
  In  In3  1  -0.00076690  0.49682715  0.61143757  1
  In  In4  1  0.00118234  0.83204215  0.13464663  1
  In  In5  1  -0.00670181  0.82730535  0.61131747  1
  In  In6  1  0.33808768  0.14885172  0.11279645  1
  In  In7  1  0.33410390  0.17814005  0.61798784  1
  In  In8  1  0.33794775  0.51834980  0.13385111  1
  In  In9  1  0.33453253  0.50129570  0.61226243  1
  In  In10  1  0.32648609  0.83462937  0.11753354  1
  In  In11  1  0.33398612  0.83617941  0.61669985  1
  In  In12  1  0.67397183  0.16895226  0.12973558  1
  In  In13  1  0.66896503  0.16601204  0.63206105  1
  In  In14  1  0.66064944  0.47574949  0.13255022  1
  In  In15  1  0.65536067  0.48544189  0.60568451  1
  In  In16  1  0.67474241  0.83795458  0.12344350  1
  In  In17  1  0.67000529  0.84556753  0.60847013  1
  In  In18  1  0.15692724  0.00719818  0.37849194  1
  In  In19  1  0.15243763  -0.00480113  0.88016801  1
  In  In20  1  0.15776667  0.34610894  0.37631483  1
  In  In21  1  0.18285668  0.34029963  0.88758622  1
  In  In22  1  0.16828860  0.66511793  0.36987456  1
  In  In23  1  0.16787537  0.66672668  0.88452564  1
  In  In24  1  0.51124303  -0.01619823  0.37239473  1
  In  In25  1  0.51250740  -0.01233802  0.88850943  1
  In  In26  1  0.52014227  0.33700066  0.37258227  1
  In  In27  1  0.50718819  0.31129900  0.88464678  1
  In  In28  1  0.49273367  0.67525369  0.37075717  1
  In  In29  1  0.50871990  0.67362012  0.88226966  1
  In  In30  1  0.82103084  -0.01013370  0.36148934  1
  In  In31  1  0.82546143  0.01214622  0.88820775  1
  In  In32  1  0.83972825  0.33531207  0.36355962  1
  In  In33  1  0.82249370  0.34532610  0.88209959  1
  In  In34  1  0.84287011  0.65707156  0.37740278  1
  In  In35  1  0.83755385  0.66387005  0.88909627  1
  In  In36  1  -0.00356155  0.17531753  0.35826918  1
  In  In37  1  -0.00020208  0.14987852  0.88074203  1
  In  In38  1  -0.00136981  0.50351317  0.36789277  1
  In  In39  1  0.00134767  0.49958476  0.88702528  1
  In  In40  1  0.00240168  0.82995211  0.37281243  1
  In  In41  1  -0.00099922  0.83948059  0.89175773  1
  In  In42  1  0.32942616  0.15323120  0.37293125  1
  In  In43  1  0.34790840  0.17558302  0.88736388  1
  In  In44  1  0.32502123  0.51125141  0.37546807  1
  In  In45  1  0.32862298  0.47977360  0.88511651  1
  In  In46  1  0.34583438  0.81691000  0.37196003  1
  In  In47  1  0.33457676  0.83746905  0.89127142  1
  In  In48  1  0.68032553  0.16871351  0.35851069  1
  In  In49  1  0.67125490  0.16607364  0.87743058  1
  In  In50  1  0.67423169  0.48921105  0.38784275  1
  In  In51  1  0.67775317  0.50012954  0.87842079  1
  In  In52  1  0.66017110  0.84884520  0.38047622  1
  In  In53  1  0.65840365  0.84173660  0.88948740  1
  In  In54  1  0.16613273  -0.01048550  0.12452497  1
  In  In55  1  0.16164938  -0.00254738  0.60989662  1
  In  In56  1  0.14824505  0.32739912  0.12470733  1
  In  In57  1  0.16798815  0.33534036  0.60806619  1
  In  In58  1  0.16585124  0.66969680  0.13193471  1
  In  In59  1  0.16461908  0.66576081  0.61069769  1
  In  In60  1  0.50483365  0.01007050  0.11400246  1
  In  In61  1  0.51619935  0.00381115  0.62052787  1
  In  In62  1  0.51702908  0.33805097  0.13096396  1
  In  In63  1  0.50454118  0.33877639  0.62002590  1
  In  In64  1  0.48281187  0.66644226  0.13905275  1
  In  In65  1  0.50652867  0.66992625  0.61468027  1
  In  In66  1  0.83117212  -0.00035356  0.13289943  1
  In  In67  1  0.82459001  -0.00991334  0.62196632  1
  In  In68  1  0.82831140  0.33437273  0.12589484  1
  In  In69  1  0.81855781  0.32737414  0.62000553  1
  In  In70  1  0.84253370  0.67702144  0.12256667  1
  In  In71  1  0.82837423  0.66712684  0.61438396  1
  In  In72  1  -0.00383255  0.33025106  0.75181250  1
  In  In73  1  -0.00655640  0.66421622  0.74262805  1
  In  In74  1  -0.01290918  -0.00448510  0.74552121  1
  In  In75  1  0.66921782  0.66415145  0.25440674  1
  In  In76  1  0.16120828  0.16318548  0.00621509  1
  In  In77  1  0.33654249  0.33407580  0.24568350  1
  In  In78  1  0.33787574  0.66588483  0.74885305  1
  In  In79  1  0.33560916  0.00043701  0.75611294  1
  In  In80  1  0.49686928  0.50618062  0.00851465  1
  In  In81  1  0.83584079  0.16644759  0.49216448  1
  In  In82  1  0.33670989  -0.00822398  0.24476842  1
  In  In83  1  0.34221811  0.33100692  0.75293181  1
  In  In84  1  0.67074594  0.66983779  0.74841709  1
  In  In85  1  0.49848931  0.16101209  0.49342927  1
  Cu  Cu86  1  0.51448007  0.15954811  0.75571225  1
  Cu  Cu87  1  0.83374045  0.83287540  0.25032311  1
  Cu  Cu88  1  0.82606078  0.49547813  0.75013094  1
  Cu  Cu89  1  -0.00200589  -0.00102478  0.01505699  1
  Cu  Cu90  1  0.50874819  0.84090673  0.75468315  1
  Cu  Cu91  1  0.67438716  0.00563157  0.00590222  1
  Cu  Cu92  1  0.32665931  -0.00824302  0.49172023  1
  Cu  Cu93  1  0.32678306  0.66960690  0.00748931  1
  Cu  Cu94  1  0.66742842  0.66517312  0.00890262  1
  Cu  Cu95  1  0.66917781  0.32751226  0.00448024  1
  Cu  Cu96  1  0.50999929  0.49345664  0.74560702  1
  Cu  Cu97  1  0.17244622  0.16949786  0.74292863  1
  Cu  Cu98  1  0.00525247  0.66814580  0.49017810  1
  Cu  Cu99  1  0.16046890  0.49976927  0.24972583  1
  Cu  Cu100  1  0.83307577  0.49929908  0.24952240  1
  Cu  Cu101  1  0.33023830  0.33218156  0.49203082  1
  Cu  Cu102  1  0.17045907  0.49512752  0.74954313  1
  Cu  Cu103  1  0.15783856  0.82851412  0.75034347  1
  Cu  Cu104  1  0.17128109  0.83097131  0.25127545  1
  Cu  Cu105  1  -0.00699928  0.33290031  0.00801390  1
  Cu  Cu106  1  0.16402913  0.16846295  0.25083490  1
  Cu  Cu107  1  0.82159750  0.17305038  0.75699949  1
  Cu  Cu108  1  0.00313311  0.33571628  0.48570648  1
  Cu  Cu109  1  -0.00028651  -0.00010215  0.49243076  1
  Cu  Cu110  1  0.81886408  0.83961398  0.75357291  1
  Cu  Cu111  1  0.33091326  0.66549069  0.49443778  1
  Cu  Cu112  1  0.00612768  0.66940808  0.00950907  1
  Cu  Cu113  1  0.66658492  0.67083042  0.49090699  1
  Cu  Cu114  1  0.50745578  0.16384481  0.24380275  1
  Se  Se115  1  0.07054724  0.08763407  0.07433521  1
  Se  Se116  1  0.08240540  0.08708728  0.54435704  1
  Se  Se117  1  0.07970117  0.41818984  0.05454688  1
  Se  Se118  1  0.08520851  0.41931059  0.54257715  1
  Se  Se119  1  0.08671857  0.75575160  0.06188249  1
  Se  Se120  1  0.08599962  0.75438505  0.54534487  1
  Se  Se121  1  0.42287322  0.08444415  0.03952468  1
  Se  Se122  1  0.40570093  0.07186585  0.55584651  1
  Se  Se123  1  0.41222856  0.41510657  0.07005452  1
  Se  Se124  1  0.41491036  0.40946141  0.55016094  1
  Se  Se125  1  0.41846851  0.74543320  0.05859796  1
  Se  Se126  1  0.41346723  0.74759588  0.55170569  1
  Se  Se127  1  0.75787790  0.08686345  0.06005027  1
  Se  Se128  1  0.74259666  0.08136348  0.55497950  1
  Se  Se129  1  0.74804977  0.41893972  0.05376299  1
  Se  Se130  1  0.76888603  0.42844344  0.55123271  1
  Se  Se131  1  0.75376965  0.75253755  0.05371502  1
  Se  Se132  1  0.75072111  0.75364836  0.54613148  1
  Se  Se133  1  0.25328269  0.25583850  0.06197794  1
  Se  Se134  1  0.24879857  0.24538538  0.54400612  1
  Se  Se135  1  0.24791939  0.58478251  0.06153211  1
  Se  Se136  1  0.24632136  0.57883660  0.54583082  1
  Se  Se137  1  0.25911221  0.93259683  0.05229121  1
  Se  Se138  1  0.24471136  0.90939467  0.54748094  1
  Se  Se139  1  0.58447904  0.24840047  0.05903400  1
  Se  Se140  1  0.58973103  0.24737022  0.55541215  1
  Se  Se141  1  0.58814956  0.58878968  0.07160930  1
  Se  Se142  1  0.58295926  0.58557603  0.54497069  1
  Se  Se143  1  0.58999060  0.91754466  0.05349306  1
  Se  Se144  1  0.56810425  0.91129070  0.54614484  1
  Se  Se145  1  0.91213822  0.24668211  0.05903208  1
  Se  Se146  1  0.92731037  0.25926704  0.55443270  1
  Se  Se147  1  0.91660002  0.58447466  0.05493889  1
  Se  Se148  1  0.92115361  0.59028096  0.54969263  1
  Se  Se149  1  0.91499500  0.91297413  0.06551679  1
  Se  Se150  1  0.91528412  0.92286404  0.55084891  1
  Se  Se151  1  0.08043264  0.24542390  0.43434652  1
  Se  Se152  1  0.07396548  0.25715076  0.94171907  1
  Se  Se153  1  0.08521075  0.58085360  0.43823527  1
  Se  Se154  1  0.08521421  0.58450712  0.95163812  1
  Se  Se155  1  0.08437997  0.91288458  0.44448359  1
  Se  Se156  1  0.08433008  0.91942790  0.95974557  1
  Se  Se157  1  0.41106928  0.25440029  0.43225066  1
  Se  Se158  1  0.39901728  0.27932450  0.95349489  1
  Se  Se159  1  0.41810989  0.58563599  0.44192068  1
  Se  Se160  1  0.40599808  0.59196025  0.94182577  1
  Se  Se161  1  0.41488785  0.91516723  0.43864290  1
  Se  Se162  1  0.41972545  0.91802770  0.95503442  1
  Se  Se163  1  0.74590563  0.25816778  0.43656596  1
  Se  Se164  1  0.75317079  0.24861018  0.94749392  1
  Se  Se165  1  0.75502586  0.58395730  0.44837375  1
  Se  Se166  1  0.74868299  0.58143318  0.95307702  1
  Se  Se167  1  0.75152393  0.92611632  0.44548875  1
  Se  Se168  1  0.75469027  0.91576748  0.95307068  1
  Se  Se169  1  0.24610793  0.08500170  0.44743161  1
  Se  Se170  1  0.25007511  0.08054456  0.93815571  1
  Se  Se171  1  0.24828523  0.42051676  0.44307196  1
  Se  Se172  1  0.24146931  0.42785745  0.96324054  1
  Se  Se173  1  0.24976831  0.74946956  0.43987148  1
  Se  Se174  1  0.24472567  0.75398670  0.95236905  1
  Se  Se175  1  0.59433074  0.08307149  0.43158485  1
  Se  Se176  1  0.58971666  0.08552631  0.94865850  1
  Se  Se177  1  0.58299718  0.41148291  0.45387651  1
  Se  Se178  1  0.58778935  0.41482513  0.94611758  1
  Se  Se179  1  0.58034610  0.75314481  0.44056055  1
  Se  Se180  1  0.58210438  0.75040406  0.95717822  1
  Se  Se181  1  0.92173434  0.07824568  0.42996334  1
  Se  Se182  1  0.91863823  0.08329674  0.95706355  1
  Se  Se183  1  0.91608837  0.41774116  0.43628087  1
  Se  Se184  1  0.91335596  0.41796523  0.95055779  1
  Se  Se185  1  0.91634054  0.75202719  0.44360178  1
  Se  Se186  1  0.91859973  0.74997445  0.95495738  1
  Se  Se187  1  0.24646431  0.24733209  0.30975125  1
  Se  Se188  1  0.24548195  0.24287755  0.81096875  1
  Se  Se189  1  0.24846475  0.58322751  0.29736917  1
  Se  Se190  1  0.24943189  0.57456142  0.81160878  1
  Se  Se191  1  0.24729765  0.91473808  0.31321808  1
  Se  Se192  1  0.23929556  0.90749730  0.81085076  1
  Se  Se193  1  0.58591623  0.25069135  0.29779548  1
  Se  Se194  1  0.59064535  0.25149516  0.80629258  1
  Se  Se195  1  0.58589798  0.57637806  0.31913162  1
  Se  Se196  1  0.57815774  0.57856469  0.80917571  1
  Se  Se197  1  0.59084234  0.91591414  0.29644566  1
  Se  Se198  1  0.59209584  0.92077810  0.80933730  1
  Se  Se199  1  0.89838609  0.23951827  0.29227826  1
  Se  Se200  1  0.91172402  0.24120691  0.81631727  1
  Se  Se201  1  0.91687933  0.58651288  0.29758261  1
  Se  Se202  1  0.90928370  0.57421548  0.80984939  1
  Se  Se203  1  0.92167500  0.91418783  0.30287730  1
  Se  Se204  1  0.90750247  0.90999297  0.81523947  1
  Se  Se205  1  0.08244930  0.08033994  0.30062106  1
  Se  Se206  1  0.08942292  0.08624528  0.79980722  1
  Se  Se207  1  0.07717034  0.41382671  0.29933585  1
  Se  Se208  1  0.09123756  0.41803490  0.81234525  1
  Se  Se209  1  0.08390806  0.74764271  0.30166232  1
  Se  Se210  1  0.07886020  0.75088042  0.81220054  1
  Se  Se211  1  0.42701659  0.08576083  0.30439713  1
  Se  Se212  1  0.42720598  0.08919291  0.81590308  1
  Se  Se213  1  0.41635757  0.41688321  0.31566200  1
  Se  Se214  1  0.43198126  0.42060111  0.81391499  1
  Se  Se215  1  0.41809391  0.74864243  0.29230632  1
  Se  Se216  1  0.42449466  0.76004601  0.81111171  1
  Se  Se217  1  0.76201639  0.08756991  0.29134369  1
  Se  Se218  1  0.74938220  0.07791379  0.80740514  1
  Se  Se219  1  0.74669936  0.42189958  0.30450088  1
  Se  Se220  1  0.74286401  0.41329525  0.80302417  1
  Se  Se221  1  0.75667982  0.75490046  0.31568454  1
  Se  Se222  1  0.75394564  0.75298966  0.81823500  1
  Se  Se223  1  0.24499522  0.09074743  0.19130257  1
  Se  Se224  1  0.24941912  0.08504516  0.68536933  1
  Se  Se225  1  0.23935373  0.41990714  0.18789503  1
  Se  Se226  1  0.24910870  0.41647739  0.68775848  1
  Se  Se227  1  0.25625089  0.75413922  0.19490971  1
  Se  Se228  1  0.24098853  0.75260242  0.68919409  1
  Se  Se229  1  0.58703680  0.07804107  0.19090802  1
  Se  Se230  1  0.59143628  0.07544992  0.69889040  1
  Se  Se231  1  0.56979450  0.42409894  0.20984443  1
  Se  Se232  1  0.59176255  0.41283767  0.69054110  1
  Se  Se233  1  0.58400148  0.75378589  0.19145467  1
  Se  Se234  1  0.57978401  0.75861280  0.68938134  1
  Se  Se235  1  0.91878386  0.07164158  0.20524093  1
  Se  Se236  1  0.89842584  0.09536008  0.69109718  1
  Se  Se237  1  0.91524915  0.41685834  0.19350748  1
  Se  Se238  1  0.91249513  0.42236692  0.68866621  1
  Se  Se239  1  0.91776752  0.74619473  0.20236605  1
  Se  Se240  1  0.90058651  0.76230300  0.69116004  1
  Se  Se241  1  0.07804232  0.25605881  0.20509191  1
  Se  Se242  1  0.08850834  0.24668624  0.68479692  1
  Se  Se243  1  0.07877783  0.58517296  0.19630931  1
  Se  Se244  1  0.09205576  0.57366133  0.68775632  1
  Se  Se245  1  0.08825574  0.91694965  0.20077359  1
  Se  Se246  1  0.08381557  0.90887216  0.68650300  1
  Se  Se247  1  0.41935539  0.23566804  0.18595572  1
  Se  Se248  1  0.43257300  0.23751053  0.69295056  1
  Se  Se249  1  0.42160904  0.57562872  0.21197763  1
  Se  Se250  1  0.42695075  0.57286738  0.68843349  1
  Se  Se251  1  0.42757854  0.91191750  0.18208333  1
  Se  Se252  1  0.42241977  0.91222156  0.69180020  1
  Se  Se253  1  0.73671564  0.26752745  0.19702899  1
  Se  Se254  1  0.74445383  0.25717816  0.69980970  1
  Se  Se255  1  0.75422644  0.57803323  0.18587232  1
  Se  Se256  1  0.75224803  0.57649365  0.68608121  1
  Se  Se257  1  0.74644895  0.91523503  0.20135805  1
  Se  Se258  1  0.73869195  0.91580769  0.69324757  1
