# generated using pymatgen
data_In86Cu29Se144
_symmetry_space_group_name_H-M   'P 1'
_cell_length_a   17.58413743
_cell_length_b   17.57871434
_cell_length_c   23.43558744
_cell_angle_alpha   90.01900425
_cell_angle_beta   90.01778410
_cell_angle_gamma   90.01436363
_symmetry_Int_Tables_number   1
_chemical_formula_structural   In86Cu29Se144
_chemical_formula_sum   'In86 Cu29 Se144'
_cell_volume   7244.09210837
_cell_formula_units_Z   1
loop_
 _symmetry_equiv_pos_site_id
 _symmetry_equiv_pos_as_xyz
  1  'x, y, z'
loop_
 _atom_site_type_symbol
 _atom_site_label
 _atom_site_symmetry_multiplicity
 _atom_site_fract_x
 _atom_site_fract_y
 _atom_site_fract_z
 _atom_site_occupancy
  In  In0  1  -0.00066646  0.15953774  0.11146347  1
  In  In1  1  -0.01154138  0.17297727  0.63306452  1
  In  In2  1  0.02304485  0.52883337  0.09741914  1
  In  In3  1  0.00191439  0.48788301  0.63270316  1
  In  In4  1  -0.00580516  0.82161341  0.10691240  1
  In  In5  1  0.00660784  0.84239009  0.62945090  1
  In  In6  1  0.33584419  0.17494252  0.11986958  1
  In  In7  1  0.32910034  0.17476928  0.62582743  1
  In  In8  1  0.33375059  0.50059076  0.13035798  1
  In  In9  1  0.34837082  0.52868016  0.60334289  1
  In  In10  1  0.30501360  0.82173568  0.12239661  1
  In  In11  1  0.31736448  0.81119897  0.61107544  1
  In  In12  1  0.68300784  0.18080681  0.11999167  1
  In  In13  1  0.66685595  0.14847433  0.62827433  1
  In  In14  1  0.65891317  0.49444158  0.11728777  1
  In  In15  1  0.65918068  0.51062195  0.63336772  1
  In  In16  1  0.67274781  0.82584365  0.12495969  1
  In  In17  1  0.66889003  0.82926456  0.62403608  1
  In  In18  1  0.15791260  -0.00942626  0.37350257  1
  In  In19  1  0.13946128  0.01780622  0.90278546  1
  In  In20  1  0.18705256  0.33703554  0.36354977  1
  In  In21  1  0.15291890  0.35033189  0.88190264  1
  In  In22  1  0.16364499  0.66652055  0.37817693  1
  In  In23  1  0.16924609  0.65666464  0.88634631  1
  In  In24  1  0.48906037  -0.00966147  0.37755865  1
  In  In25  1  0.50159015  -0.01538162  0.86611335  1
  In  In26  1  0.50525646  0.34621338  0.36839921  1
  In  In27  1  0.49920733  0.34717080  0.87717452  1
  In  In28  1  0.49588999  0.66327241  0.38110977  1
  In  In29  1  0.49244056  0.65529568  0.86071006  1
  In  In30  1  0.84116111  -0.00075957  0.38248726  1
  In  In31  1  0.83854880  -0.00025696  0.87655510  1
  In  In32  1  0.82227750  0.33528112  0.37529471  1
  In  In33  1  0.84044111  0.31776490  0.88249708  1
  In  In34  1  0.84458328  0.66859358  0.37220429  1
  In  In35  1  0.82861442  0.67482722  0.88356479  1
  In  In36  1  0.00055352  0.15331672  0.37554843  1
  In  In37  1  -0.00452060  0.16800318  0.87595512  1
  In  In38  1  -0.00594484  0.51966002  0.37168906  1
  In  In39  1  0.01293144  0.49189235  0.88247649  1
  In  In40  1  0.01197080  0.82453309  0.38855865  1
  In  In41  1  -0.01409881  0.83795662  0.89742997  1
  In  In42  1  0.32874794  0.17644164  0.36940735  1
  In  In43  1  0.31316928  0.15763870  0.87908742  1
  In  In44  1  0.33062874  0.50364458  0.37920339  1
  In  In45  1  0.32279047  0.51626226  0.87998521  1
  In  In46  1  0.34957326  0.80268518  0.40207722  1
  In  In47  1  0.33205167  0.82423529  0.87489991  1
  In  In48  1  0.66348950  0.18307115  0.37834642  1
  In  In49  1  0.68506249  0.16289717  0.87429488  1
  In  In50  1  0.66810399  0.48572694  0.37107675  1
  In  In51  1  0.65551419  0.51033165  0.88000149  1
  In  In52  1  0.67050026  0.82941287  0.38073080  1
  In  In53  1  0.67252769  0.83955166  0.86367789  1
  In  In54  1  0.14760142  -0.02224893  0.09513965  1
  In  In55  1  0.16376351  -0.01365525  0.63379794  1
  In  In56  1  0.17921688  0.34773650  0.11611521  1
  In  In57  1  0.15369195  0.33511873  0.62834033  1
  In  In58  1  0.17211415  0.66645686  0.12846601  1
  In  In59  1  0.17188476  0.66936397  0.62313704  1
  In  In60  1  0.49519246  -0.00342341  0.12497743  1
  In  In61  1  0.51854811  -0.00820903  0.63214475  1
  In  In62  1  0.48607056  0.35946816  0.14375934  1
  In  In63  1  0.48847341  0.34367905  0.62538926  1
  In  In64  1  0.49786717  0.64520435  0.12980985  1
  In  In65  1  0.49579970  0.66510876  0.62141688  1
  In  In66  1  0.84651479  0.00583566  0.10410358  1
  In  In67  1  0.83282664  -0.00406669  0.62798102  1
  In  In68  1  0.82961389  0.33713221  0.12231800  1
  In  In69  1  0.84926405  0.33566700  0.62625190  1
  In  In70  1  0.84424659  0.68004735  0.11069288  1
  In  In71  1  0.81684190  0.66529145  0.62972085  1
  In  In72  1  0.50518022  0.17561788  -0.00060812  1
  In  In73  1  0.32535515  -0.00002135  0.24783355  1
  In  In74  1  0.00551486  0.66512520  0.75822181  1
  In  In75  1  0.16392556  0.16172053  0.49357631  1
  In  In76  1  0.33225757  -0.01322294  0.75302983  1
  In  In77  1  0.00261706  -0.00466791  0.23588070  1
  In  In78  1  0.66717361  0.65933299  0.25134378  1
  In  In79  1  0.49800537  0.82794890  -0.00764098  1
  In  In80  1  0.67194127  0.33523873  0.74711887  1
  In  In81  1  0.50372540  0.15926997  0.50459488  1
  In  In82  1  0.83134047  0.50221446  0.50045642  1
  In  In83  1  0.32180206  0.34843085  0.75442609  1
  In  In84  1  0.66974679  0.00273178  0.24260532  1
  In  In85  1  -0.00439755  0.34102145  0.23730984  1
  Cu  Cu86  1  0.33940634  0.65989259  0.00349037  1
  Cu  Cu87  1  0.50022976  0.82335067  0.74291934  1
  Cu  Cu88  1  0.66714773  0.33370240  0.50195902  1
  Cu  Cu89  1  0.33432864  0.34352039  0.49487934  1
  Cu  Cu90  1  -0.00403158  0.32788178  0.00157548  1
  Cu  Cu91  1  0.66621430  0.34003515  -0.00091368  1
  Cu  Cu92  1  0.15494973  0.16117182  0.75537616  1
  Cu  Cu93  1  0.83429590  0.49430552  0.75808274  1
  Cu  Cu94  1  0.16949563  0.81958922  0.25533591  1
  Cu  Cu95  1  0.83425033  0.83347246  0.75433775  1
  Cu  Cu96  1  0.66314856  0.66594699  0.50410898  1
  Cu  Cu97  1  0.83709332  0.50628420  0.23999361  1
  Cu  Cu98  1  0.50552649  0.17864637  0.24790064  1
  Cu  Cu99  1  0.66917998  -0.00341235  -0.00789552  1
  Cu  Cu100  1  -0.00245787  0.66752952  0.50361254  1
  Cu  Cu101  1  0.16519533  0.83346201  0.75744955  1
  Cu  Cu102  1  0.82763801  0.17559841  0.25172715  1
  Cu  Cu103  1  0.33366504  0.33780613  0.00304001  1
  Cu  Cu104  1  0.16393015  0.50454709  0.24734506  1
  Cu  Cu105  1  0.00351289  0.33286338  0.50092709  1
  Cu  Cu106  1  0.17067533  0.16530388  0.23291116  1
  Cu  Cu107  1  0.67602604  -0.00583418  0.50435213  1
  Cu  Cu108  1  0.83912074  0.15581170  0.75378001  1
  Cu  Cu109  1  0.84987107  0.83350749  0.24198722  1
  Cu  Cu110  1  0.49004297  0.82762068  0.25701310  1
  Cu  Cu111  1  0.50352018  0.16810232  0.75494118  1
  Cu  Cu112  1  -0.00778416  0.00312612  0.50677851  1
  Cu  Cu113  1  0.33487657  -0.00841409  0.50430146  1
  Cu  Cu114  1  0.66779004  0.67080838  -0.00097857  1
  Se  Se115  1  0.08133699  0.08464401  0.04043049  1
  Se  Se116  1  0.08060365  0.08166431  0.56480007  1
  Se  Se117  1  0.08511006  0.41374765  0.04669207  1
  Se  Se118  1  0.08154040  0.41878320  0.55412850  1
  Se  Se119  1  0.11193446  0.76486413  0.05779609  1
  Se  Se120  1  0.07745125  0.75012087  0.56088375  1
  Se  Se121  1  0.41577019  0.07853235  0.05352808  1
  Se  Se122  1  0.41098589  0.07288480  0.56719817  1
  Se  Se123  1  0.41626743  0.41895075  0.05767230  1
  Se  Se124  1  0.42282279  0.42146251  0.54718148  1
  Se  Se125  1  0.41649055  0.74381460  0.06452004  1
  Se  Se126  1  0.41949104  0.74870189  0.54864838  1
  Se  Se127  1  0.74348826  0.08386952  0.04983144  1
  Se  Se128  1  0.75479828  0.08246247  0.55546864  1
  Se  Se129  1  0.75299368  0.42212035  0.05047094  1
  Se  Se130  1  0.74447000  0.41315846  0.56492105  1
  Se  Se131  1  0.75058270  0.75997353  0.04674081  1
  Se  Se132  1  0.75175059  0.74743338  0.55226772  1
  Se  Se133  1  0.24905723  0.25006448  0.05000789  1
  Se  Se134  1  0.25295922  0.25826877  0.55198597  1
  Se  Se135  1  0.25316182  0.58113231  0.05846136  1
  Se  Se136  1  0.24284216  0.59240484  0.54448492  1
  Se  Se137  1  0.27150932  0.92613200  0.05131088  1
  Se  Se138  1  0.24328707  0.91811991  0.55664556  1
  Se  Se139  1  0.58357614  0.26688428  0.06482886  1
  Se  Se140  1  0.58978738  0.25453043  0.56653794  1
  Se  Se141  1  0.58328863  0.58748194  0.05094867  1
  Se  Se142  1  0.58313121  0.57807240  0.55416775  1
  Se  Se143  1  0.58910914  0.92011923  0.05581611  1
  Se  Se144  1  0.58655495  0.91421761  0.55369159  1
  Se  Se145  1  0.90912288  0.24875163  0.05461451  1
  Se  Se146  1  0.91925872  0.25010247  0.55260201  1
  Se  Se147  1  0.91145930  0.58669724  0.04088053  1
  Se  Se148  1  0.91982411  0.58609500  0.56566796  1
  Se  Se149  1  0.92717318  0.91910006  0.04162733  1
  Se  Se150  1  0.91567908  0.91273055  0.55845265  1
  Se  Se151  1  0.08018817  0.25841985  0.43261417  1
  Se  Se152  1  0.08193335  0.25098487  0.94391656  1
  Se  Se153  1  0.07693506  0.58405712  0.44810968  1
  Se  Se154  1  0.08134111  0.58141463  0.95454989  1
  Se  Se155  1  0.07991846  0.92529387  0.45272603  1
  Se  Se156  1  0.09859642  0.89536252  0.95452969  1
  Se  Se157  1  0.41546616  0.24998894  0.44338898  1
  Se  Se158  1  0.40570691  0.25683354  0.93715539  1
  Se  Se159  1  0.40372351  0.59246763  0.44904507  1
  Se  Se160  1  0.42362989  0.58540359  0.94440010  1
  Se  Se161  1  0.42425553  0.91063763  0.45551459  1
  Se  Se162  1  0.40806813  0.92571530  0.94077418  1
  Se  Se163  1  0.75294939  0.25116724  0.45081004  1
  Se  Se164  1  0.74589906  0.24792500  0.95180798  1
  Se  Se165  1  0.74217946  0.58954242  0.43711429  1
  Se  Se166  1  0.74780419  0.58253100  0.94766313  1
  Se  Se167  1  0.75626767  0.91254928  0.44583504  1
  Se  Se168  1  0.75089673  0.91119412  0.94093739  1
  Se  Se169  1  0.26203962  0.07138695  0.43749966  1
  Se  Se170  1  0.25180484  0.08017947  0.95740118  1
  Se  Se171  1  0.24057417  0.41844039  0.44542344  1
  Se  Se172  1  0.25224123  0.41962260  0.94598029  1
  Se  Se173  1  0.21951747  0.77305080  0.44416396  1
  Se  Se174  1  0.25805985  0.74385463  0.94917541  1
  Se  Se175  1  0.59357219  0.07163846  0.43920916  1
  Se  Se176  1  0.58454404  0.07563192  0.93542398  1
  Se  Se177  1  0.58596498  0.41499917  0.44673866  1
  Se  Se178  1  0.57876291  0.42242742  0.95030894  1
  Se  Se179  1  0.58400399  0.74848497  0.44500381  1
  Se  Se180  1  0.58859361  0.74340028  0.93136449  1
  Se  Se181  1  0.91508280  0.09000154  0.45149520  1
  Se  Se182  1  0.90425672  0.09507049  0.94424300  1
  Se  Se183  1  0.92301690  0.41303145  0.43899908  1
  Se  Se184  1  0.91753083  0.41279909  0.94511810  1
  Se  Se185  1  0.91267946  0.74897581  0.44972955  1
  Se  Se186  1  0.92705026  0.72808781  0.95636053  1
  Se  Se187  1  0.25136830  0.24552559  0.29081416  1
  Se  Se188  1  0.23703958  0.24713106  0.81009486  1
  Se  Se189  1  0.24353675  0.58258977  0.30838390  1
  Se  Se190  1  0.24599206  0.59079012  0.80609114  1
  Se  Se191  1  0.24919879  0.90515906  0.31294286  1
  Se  Se192  1  0.23715371  0.91834845  0.82065647  1
  Se  Se193  1  0.58898361  0.25837121  0.30290514  1
  Se  Se194  1  0.58195878  0.24858412  0.81416368  1
  Se  Se195  1  0.57514704  0.57259127  0.30977697  1
  Se  Se196  1  0.59188972  0.58492354  0.79876663  1
  Se  Se197  1  0.57873269  0.91260955  0.30583950  1
  Se  Se198  1  0.58242203  0.91190337  0.79294780  1
  Se  Se199  1  0.91784224  0.24768803  0.30894095  1
  Se  Se200  1  0.91649090  0.24985204  0.80225928  1
  Se  Se201  1  0.91639669  0.59118261  0.29498062  1
  Se  Se202  1  0.91227903  0.57738362  0.81733543  1
  Se  Se203  1  0.92114228  0.91349166  0.30903833  1
  Se  Se204  1  0.92016373  0.90707354  0.81248099  1
  Se  Se205  1  0.09360647  0.08928767  0.29833046  1
  Se  Se206  1  0.07913497  0.07640609  0.81217940  1
  Se  Se207  1  0.08204512  0.42269519  0.30754838  1
  Se  Se208  1  0.09114661  0.42883241  0.80193563  1
  Se  Se209  1  0.07520968  0.74690757  0.30752141  1
  Se  Se210  1  0.08565179  0.75716312  0.82169649  1
  Se  Se211  1  0.42674012  0.09126990  0.30571126  1
  Se  Se212  1  0.41721016  0.08984875  0.81083633  1
  Se  Se213  1  0.39094409  0.39863617  0.31443957  1
  Se  Se214  1  0.41934783  0.43364218  0.80897262  1
  Se  Se215  1  0.41102452  0.74475508  0.31132336  1
  Se  Se216  1  0.41274762  0.75085025  0.80023843  1
  Se  Se217  1  0.75490159  0.08821287  0.31163049  1
  Se  Se218  1  0.75041559  0.07329633  0.80208661  1
  Se  Se219  1  0.76151070  0.42275033  0.29898124  1
  Se  Se220  1  0.75317049  0.41579403  0.81866531  1
  Se  Se221  1  0.76019088  0.76126488  0.30186511  1
  Se  Se222  1  0.75266763  0.74396137  0.80311012  1
  Se  Se223  1  0.24252520  0.07735456  0.17502759  1
  Se  Se224  1  0.24445516  0.09005499  0.69609891  1
  Se  Se225  1  0.24709406  0.41659275  0.19879949  1
  Se  Se226  1  0.25615492  0.42441846  0.67412803  1
  Se  Se227  1  0.25767930  0.73796251  0.20503850  1
  Se  Se228  1  0.24487346  0.75452112  0.69784543  1
  Se  Se229  1  0.57810892  0.09615513  0.18515629  1
  Se  Se230  1  0.58568327  0.08062907  0.70536718  1
  Se  Se231  1  0.59431520  0.42262820  0.19978447  1
  Se  Se232  1  0.56971849  0.42334647  0.69904359  1
  Se  Se233  1  0.57590846  0.75588966  0.19337633  1
  Se  Se234  1  0.58621104  0.74337077  0.69042596  1
  Se  Se235  1  0.90405338  0.09325860  0.18941441  1
  Se  Se236  1  0.92082764  0.07395282  0.69783756  1
  Se  Se237  1  0.92073157  0.43816027  0.17440241  1
  Se  Se238  1  0.91786876  0.41267673  0.70479961  1
  Se  Se239  1  0.92754346  0.74737957  0.18837322  1
  Se  Se240  1  0.91241296  0.74986648  0.69310084  1
  Se  Se241  1  0.08532537  0.24690581  0.17964987  1
  Se  Se242  1  0.08025799  0.24976473  0.69938148  1
  Se  Se243  1  0.07993353  0.58307589  0.19116260  1
  Se  Se244  1  0.09124718  0.57847802  0.69334079  1
  Se  Se245  1  0.09951873  0.90292836  0.18835686  1
  Se  Se246  1  0.07941991  0.91811341  0.70841333  1
  Se  Se247  1  0.41239031  0.25098349  0.19558720  1
  Se  Se248  1  0.42029329  0.24744780  0.69850685  1
  Se  Se249  1  0.41938329  0.57363039  0.20328310  1
  Se  Se250  1  0.41020666  0.58784410  0.69157619  1
  Se  Se251  1  0.41564301  0.90412753  0.19062512  1
  Se  Se252  1  0.41600909  0.90475745  0.68393235  1
  Se  Se253  1  0.74850198  0.26118792  0.19870718  1
  Se  Se254  1  0.76096431  0.23862627  0.69053131  1
  Se  Se255  1  0.75680239  0.58745818  0.18042438  1
  Se  Se256  1  0.75188050  0.57664420  0.70381771  1
  Se  Se257  1  0.76799804  0.91592210  0.18490091  1
  Se  Se258  1  0.75006790  0.91114936  0.69562129  1
