# generated using pymatgen
data_In86Cu29Se144
_symmetry_space_group_name_H-M   'P 1'
_cell_length_a   17.58674784
_cell_length_b   17.58635389
_cell_length_c   23.44349669
_cell_angle_alpha   89.99113902
_cell_angle_beta   90.03216910
_cell_angle_gamma   89.98584864
_symmetry_Int_Tables_number   1
_chemical_formula_structural   In86Cu29Se144
_chemical_formula_sum   'In86 Cu29 Se144'
_cell_volume   7250.76195267
_cell_formula_units_Z   1
loop_
 _symmetry_equiv_pos_site_id
 _symmetry_equiv_pos_as_xyz
  1  'x, y, z'
loop_
 _atom_site_type_symbol
 _atom_site_label
 _atom_site_symmetry_multiplicity
 _atom_site_fract_x
 _atom_site_fract_y
 _atom_site_fract_z
 _atom_site_occupancy
  In  In0  1  0.00666845  0.17353614  0.11151850  1
  In  In1  1  0.01258557  0.16804008  0.62641366  1
  In  In2  1  0.00800873  0.48870417  0.12769908  1
  In  In3  1  -0.01004644  0.49952052  0.64105556  1
  In  In4  1  -0.01948301  0.83780558  0.11752214  1
  In  In5  1  -0.00577422  0.82664547  0.63119383  1
  In  In6  1  0.34460789  0.18024917  0.11578981  1
  In  In7  1  0.33142908  0.16310878  0.62157819  1
  In  In8  1  0.32537476  0.49441410  0.11684244  1
  In  In9  1  0.34191792  0.50739048  0.62924442  1
  In  In10  1  0.33778681  0.81842650  0.12006143  1
  In  In11  1  0.33772379  0.82729846  0.63908466  1
  In  In12  1  0.66409232  0.16960239  0.12623870  1
  In  In13  1  0.65208484  0.17564956  0.63309108  1
  In  In14  1  0.66192870  0.50182821  0.13057648  1
  In  In15  1  0.67127090  0.49311757  0.64069692  1
  In  In16  1  0.66900793  0.83532295  0.11717853  1
  In  In17  1  0.67005042  0.82991362  0.63844080  1
  In  In18  1  0.18205754  0.00729092  0.37472448  1
  In  In19  1  0.18194739  -0.00547248  0.87247188  1
  In  In20  1  0.16058554  0.32486415  0.36776883  1
  In  In21  1  0.16087748  0.34396684  0.88223979  1
  In  In22  1  0.16023292  0.67113567  0.37275505  1
  In  In23  1  0.15625079  0.66580839  0.86655655  1
  In  In24  1  0.51910148  0.00216309  0.36950961  1
  In  In25  1  0.49976267  -0.00125228  0.87682304  1
  In  In26  1  0.49013081  0.33337246  0.36795904  1
  In  In27  1  0.50884750  0.32541170  0.88370820  1
  In  In28  1  0.50689503  0.65546026  0.37462955  1
  In  In29  1  0.50210362  0.66573103  0.87894677  1
  In  In30  1  0.81580742  0.01207389  0.36781527  1
  In  In31  1  0.82628883  0.01361730  0.88998412  1
  In  In32  1  0.83127007  0.31690855  0.35799972  1
  In  In33  1  0.82055709  0.32910497  0.86974109  1
  In  In34  1  0.82485803  0.65393043  0.36605810  1
  In  In35  1  0.84354543  0.67011490  0.86949793  1
  In  In36  1  -0.00243182  0.18144039  0.36951480  1
  In  In37  1  -0.01263065  0.17317937  0.88886987  1
  In  In38  1  -0.00988150  0.49234920  0.36528093  1
  In  In39  1  0.00325867  0.51038187  0.86767848  1
  In  In40  1  -0.00281969  0.82338540  0.36909055  1
  In  In41  1  0.00349709  0.82005095  0.87742018  1
  In  In42  1  0.32485509  0.17683430  0.37761873  1
  In  In43  1  0.34392731  0.15921506  0.88232064  1
  In  In44  1  0.34861831  0.48973192  0.37428257  1
  In  In45  1  0.32705874  0.51076439  0.88350846  1
  In  In46  1  0.33065920  0.83215109  0.37623300  1
  In  In47  1  0.33686949  0.84522150  0.86390662  1
  In  In48  1  0.66667949  0.15901431  0.36848071  1
  In  In49  1  0.66615911  0.16637137  0.87832087  1
  In  In50  1  0.64981416  0.49555840  0.35913317  1
  In  In51  1  0.66324838  0.48525161  0.86912188  1
  In  In52  1  0.66246129  0.83111541  0.36628747  1
  In  In53  1  0.66570463  0.83520167  0.87966979  1
  In  In54  1  0.14770326  0.01090349  0.11569744  1
  In  In55  1  0.16725798  0.01496042  0.62671904  1
  In  In56  1  0.16789063  0.33411993  0.12085200  1
  In  In57  1  0.16535254  0.32060963  0.62854050  1
  In  In58  1  0.17020005  0.64917021  0.12221572  1
  In  In59  1  0.17111019  0.66403328  0.63695710  1
  In  In60  1  0.51291044  0.01221016  0.11489826  1
  In  In61  1  0.49446439  0.00880504  0.63285424  1
  In  In62  1  0.50230537  0.33344368  0.12630468  1
  In  In63  1  0.51484282  0.32355039  0.62493212  1
  In  In64  1  0.50821012  0.67357761  0.11365650  1
  In  In65  1  0.49856121  0.66973312  0.63748465  1
  In  In66  1  0.82900185  -0.00796305  0.11082080  1
  In  In67  1  0.83265312  -0.00761153  0.63152787  1
  In  In68  1  0.83524935  0.32770855  0.13414262  1
  In  In69  1  0.82700755  0.33748657  0.63959241  1
  In  In70  1  0.82292508  0.67298300  0.12440358  1
  In  In71  1  0.83217109  0.65800128  0.64509493  1
  In  In72  1  0.16684402  0.49664730  0.50911608  1
  In  In73  1  0.49877728  0.83977503  0.51112851  1
  In  In74  1  0.83336486  0.83282505  0.51109929  1
  In  In75  1  0.33563842  0.00357182  0.23877774  1
  In  In76  1  0.17398219  0.84084279  0.50504804  1
  In  In77  1  0.34149290  0.65646438  0.25423795  1
  In  In78  1  0.16966982  0.83310506  -0.00513137  1
  In  In79  1  0.83343633  0.50165448  -0.00179503  1
  In  In80  1  0.00437082  -0.00263588  0.75662696  1
  In  In81  1  0.83372379  0.16864450  0.49482887  1
  In  In82  1  -0.01084429  0.00638759  0.24332730  1
  In  In83  1  0.33149213  0.33634809  0.75179805  1
  In  In84  1  0.49971503  0.49645435  0.49624780  1
  In  In85  1  0.82918531  0.49374926  0.50640479  1
  Cu  Cu86  1  0.83146023  0.16425982  0.75987520  1
  Cu  Cu87  1  0.33423115  -0.00315939  -0.00352343  1
  Cu  Cu88  1  0.33264253  0.32807167  0.49931397  1
  Cu  Cu89  1  0.33485923  0.33142589  0.00072605  1
  Cu  Cu90  1  0.16108288  0.50332779  0.75772812  1
  Cu  Cu91  1  0.01262952  0.00779790  0.49683009  1
  Cu  Cu92  1  0.66794916  0.66721458  -0.00054043  1
  Cu  Cu93  1  0.51133795  0.83309684  0.24234539  1
  Cu  Cu94  1  0.49861691  0.16763155  0.24477435  1
  Cu  Cu95  1  0.50267104  0.16264033  0.75904040  1
  Cu  Cu96  1  0.82988155  0.83691752  0.75707178  1
  Cu  Cu97  1  0.82653669  0.83118621  0.24234511  1
  Cu  Cu98  1  0.00342828  0.66277712  -0.00458918  1
  Cu  Cu99  1  0.66990329  0.00576234  0.49915955  1
  Cu  Cu100  1  0.00006217  0.33908166  0.00191939  1
  Cu  Cu101  1  0.00038138  0.66521356  0.49899900  1
  Cu  Cu102  1  0.66627243  0.32718322  0.00133607  1
  Cu  Cu103  1  0.33926552  0.66454596  -0.00418513  1
  Cu  Cu104  1  0.65921785  0.00277575  -0.00061675  1
  Cu  Cu105  1  0.16417478  0.17513143  0.24410868  1
  Cu  Cu106  1  0.50570757  0.83271362  0.75841554  1
  Cu  Cu107  1  -0.00022938  0.32958800  0.49797457  1
  Cu  Cu108  1  0.16585431  0.17008625  0.75312198  1
  Cu  Cu109  1  0.66188441  0.65871577  0.50279712  1
  Cu  Cu110  1  0.16524552  0.49146621  0.24629346  1
  Cu  Cu111  1  0.49686984  0.50109195  0.75504519  1
  Cu  Cu112  1  0.15749605  0.82634460  0.24711990  1
  Cu  Cu113  1  0.34346917  0.01119643  0.50146647  1
  Cu  Cu114  1  0.83882011  0.50728241  0.24309826  1
  Se  Se115  1  0.07910218  0.08708817  0.03941080  1
  Se  Se116  1  0.09101921  0.09222598  0.55094978  1
  Se  Se117  1  0.08863775  0.42164048  0.05050233  1
  Se  Se118  1  0.06924412  0.41018648  0.56449962  1
  Se  Se119  1  0.08203546  0.74368543  0.05908649  1
  Se  Se120  1  0.07994778  0.74451066  0.55850895  1
  Se  Se121  1  0.41477644  0.08243153  0.05129979  1
  Se  Se122  1  0.42774590  0.09166022  0.55537121  1
  Se  Se123  1  0.41900725  0.41374633  0.05535012  1
  Se  Se124  1  0.40989693  0.40744492  0.56097068  1
  Se  Se125  1  0.42090684  0.75293270  0.04461584  1
  Se  Se126  1  0.40952750  0.74142119  0.56069484  1
  Se  Se127  1  0.74177040  0.08613500  0.05423184  1
  Se  Se128  1  0.75143527  0.07992382  0.56212180  1
  Se  Se129  1  0.74682370  0.41190265  0.05979406  1
  Se  Se130  1  0.73642495  0.40359376  0.56162638  1
  Se  Se131  1  0.75418892  0.75310087  0.04757527  1
  Se  Se132  1  0.74301369  0.73588711  0.56431238  1
  Se  Se133  1  0.24639142  0.24831712  0.05040677  1
  Se  Se134  1  0.24783464  0.24925400  0.55486643  1
  Se  Se135  1  0.25085739  0.58244613  0.04545644  1
  Se  Se136  1  0.25822679  0.59347168  0.55894480  1
  Se  Se137  1  0.25508372  0.92242750  0.06265265  1
  Se  Se138  1  0.26682765  0.92885294  0.56349834  1
  Se  Se139  1  0.57895718  0.24733255  0.05518005  1
  Se  Se140  1  0.58445478  0.24326715  0.55012860  1
  Se  Se141  1  0.58928510  0.57882808  0.05274554  1
  Se  Se142  1  0.58421938  0.58236336  0.56603777  1
  Se  Se143  1  0.57824825  0.91268390  0.04949072  1
  Se  Se144  1  0.59775748  0.92559151  0.56504910  1
  Se  Se145  1  0.91135337  0.25973093  0.05403709  1
  Se  Se146  1  0.91827940  0.25543461  0.56245559  1
  Se  Se147  1  0.92429162  0.58741975  0.06115890  1
  Se  Se148  1  0.91950956  0.59075313  0.56249691  1
  Se  Se149  1  0.92209497  0.92314240  0.04161631  1
  Se  Se150  1  0.93353597  0.92922767  0.55795957  1
  Se  Se151  1  0.08395755  0.24859828  0.44437016  1
  Se  Se152  1  0.08300265  0.25430452  0.94890865  1
  Se  Se153  1  0.07576597  0.58020925  0.44110100  1
  Se  Se154  1  0.08755780  0.58147974  0.94271383  1
  Se  Se155  1  0.08082474  0.91943216  0.43498860  1
  Se  Se156  1  0.07931612  0.92356315  0.93797775  1
  Se  Se157  1  0.41816225  0.25101215  0.44359761  1
  Se  Se158  1  0.42028281  0.24712769  0.95041545  1
  Se  Se159  1  0.40646160  0.59419658  0.44513047  1
  Se  Se160  1  0.42585672  0.57714439  0.94964006  1
  Se  Se161  1  0.41476515  0.92642838  0.43926996  1
  Se  Se162  1  0.41503742  0.91220143  0.94365411  1
  Se  Se163  1  0.74314644  0.25816925  0.43754237  1
  Se  Se164  1  0.75259186  0.24799982  0.94721955  1
  Se  Se165  1  0.73816595  0.57941440  0.44129398  1
  Se  Se166  1  0.74454231  0.58808953  0.93600844  1
  Se  Se167  1  0.74527419  0.91750717  0.44226998  1
  Se  Se168  1  0.74636031  0.91838825  0.95043304  1
  Se  Se169  1  0.25190302  0.08787554  0.44950881  1
  Se  Se170  1  0.24986260  0.08152338  0.94630131  1
  Se  Se171  1  0.25268408  0.41121712  0.44130856  1
  Se  Se172  1  0.25208353  0.41789971  0.94936636  1
  Se  Se173  1  0.25562516  0.74045347  0.44506520  1
  Se  Se174  1  0.25789506  0.74429321  0.93422084  1
  Se  Se175  1  0.58585137  0.08546682  0.44510143  1
  Se  Se176  1  0.57713118  0.08709070  0.94563277  1
  Se  Se177  1  0.59051575  0.40805656  0.43882816  1
  Se  Se178  1  0.58721294  0.41655296  0.94943617  1
  Se  Se179  1  0.58709445  0.74792435  0.44631413  1
  Se  Se180  1  0.58253066  0.75117348  0.94815117  1
  Se  Se181  1  0.92431820  0.07473397  0.43479131  1
  Se  Se182  1  0.91913412  0.08192144  0.95860426  1
  Se  Se183  1  0.91467788  0.40502589  0.43966836  1
  Se  Se184  1  0.92130146  0.41353039  0.93630588  1
  Se  Se185  1  0.91352259  0.74113727  0.44233300  1
  Se  Se186  1  0.91584939  0.74698232  0.94827158  1
  Se  Se187  1  0.25254014  0.25191617  0.29922825  1
  Se  Se188  1  0.24754522  0.24670210  0.81555306  1
  Se  Se189  1  0.24220947  0.56973191  0.31231472  1
  Se  Se190  1  0.25159893  0.58357031  0.80562598  1
  Se  Se191  1  0.24378565  0.90816803  0.30077379  1
  Se  Se192  1  0.24757896  0.91746952  0.79446112  1
  Se  Se193  1  0.57786066  0.24563262  0.30650955  1
  Se  Se194  1  0.58561508  0.25115740  0.80702131  1
  Se  Se195  1  0.58225489  0.59307789  0.29494106  1
  Se  Se196  1  0.58246116  0.58102724  0.80881191  1
  Se  Se197  1  0.59115465  0.92058988  0.29548510  1
  Se  Se198  1  0.58728292  0.92009645  0.80824680  1
  Se  Se199  1  0.91785820  0.24118106  0.29060586  1
  Se  Se200  1  0.91725784  0.24781844  0.80928678  1
  Se  Se201  1  0.92303482  0.58987138  0.29913941  1
  Se  Se202  1  0.91480188  0.58260646  0.79922483  1
  Se  Se203  1  0.90392955  0.91075319  0.30763799  1
  Se  Se204  1  0.90924670  0.91685259  0.81832782  1
  Se  Se205  1  0.09194116  0.08610798  0.30448228  1
  Se  Se206  1  0.08654104  0.09336566  0.81677431  1
  Se  Se207  1  0.07924546  0.41109119  0.30166535  1
  Se  Se208  1  0.08097334  0.41284061  0.80502031  1
  Se  Se209  1  0.07612407  0.74156608  0.29883180  1
  Se  Se210  1  0.08552116  0.75928822  0.79986776  1
  Se  Se211  1  0.41900664  0.08672116  0.30838409  1
  Se  Se212  1  0.41387646  0.07912590  0.80559775  1
  Se  Se213  1  0.43092488  0.43143571  0.29741769  1
  Se  Se214  1  0.41954749  0.41967741  0.81677622  1
  Se  Se215  1  0.42821855  0.76157399  0.30769149  1
  Se  Se216  1  0.42007145  0.74773606  0.80756922  1
  Se  Se217  1  0.75485680  0.09580468  0.29287388  1
  Se  Se218  1  0.74827398  0.07951058  0.80992286  1
  Se  Se219  1  0.76331148  0.42996424  0.30801546  1
  Se  Se220  1  0.75236000  0.41706764  0.79810207  1
  Se  Se221  1  0.74868158  0.74813869  0.30234866  1
  Se  Se222  1  0.74816618  0.75193086  0.80967663  1
  Se  Se223  1  0.24080795  0.09264264  0.18316474  1
  Se  Se224  1  0.25094026  0.09086532  0.69820529  1
  Se  Se225  1  0.25209312  0.41409539  0.19249653  1
  Se  Se226  1  0.23930728  0.42726779  0.69092157  1
  Se  Se227  1  0.24610708  0.74758259  0.19375431  1
  Se  Se228  1  0.24711129  0.75167321  0.70265143  1
  Se  Se229  1  0.58368551  0.08281233  0.19581925  1
  Se  Se230  1  0.58542098  0.08082233  0.70223681  1
  Se  Se231  1  0.60749040  0.39275176  0.19448624  1
  Se  Se232  1  0.57448868  0.41347987  0.69997886  1
  Se  Se233  1  0.58987951  0.74822671  0.18770526  1
  Se  Se234  1  0.58703698  0.74652477  0.70458155  1
  Se  Se235  1  0.90883466  0.09138791  0.17670599  1
  Se  Se236  1  0.91375996  0.09031092  0.69446732  1
  Se  Se237  1  0.91954901  0.41552544  0.19710736  1
  Se  Se238  1  0.91443844  0.41171491  0.70649827  1
  Se  Se239  1  0.91461399  0.75100442  0.19165474  1
  Se  Se240  1  0.91448225  0.75284746  0.70416054  1
  Se  Se241  1  0.07935033  0.25306310  0.18843636  1
  Se  Se242  1  0.07939931  0.25260724  0.70265105  1
  Se  Se243  1  0.08504870  0.58024880  0.19571693  1
  Se  Se244  1  0.07916328  0.58613619  0.70070380  1
  Se  Se245  1  0.08377653  0.91118462  0.18765415  1
  Se  Se246  1  0.09004248  0.91328557  0.68871664  1
  Se  Se247  1  0.41466339  0.25349611  0.19586753  1
  Se  Se248  1  0.42278349  0.24306247  0.69566195  1
  Se  Se249  1  0.42130183  0.58120675  0.18017242  1
  Se  Se250  1  0.41296886  0.58656261  0.70453747  1
  Se  Se251  1  0.42591786  0.90911307  0.18409772  1
  Se  Se252  1  0.42438931  0.91403160  0.69971597  1
  Se  Se253  1  0.72098230  0.27656690  0.19405386  1
  Se  Se254  1  0.74835744  0.24295642  0.70057357  1
  Se  Se255  1  0.74832695  0.58664829  0.19456771  1
  Se  Se256  1  0.73840354  0.58602141  0.70756233  1
  Se  Se257  1  0.75043957  0.91873534  0.18795014  1
  Se  Se258  1  0.74821166  0.92123767  0.70368892  1
