# generated using pymatgen
data_In86Cu29Se144
_symmetry_space_group_name_H-M   'P 1'
_cell_length_a   17.58297611
_cell_length_b   17.58250002
_cell_length_c   23.43946698
_cell_angle_alpha   89.98989175
_cell_angle_beta   89.98288828
_cell_angle_gamma   90.00374990
_symmetry_Int_Tables_number   1
_chemical_formula_structural   In86Cu29Se144
_chemical_formula_sum   'In86 Cu29 Se144'
_cell_volume   7246.37353050
_cell_formula_units_Z   1
loop_
 _symmetry_equiv_pos_site_id
 _symmetry_equiv_pos_as_xyz
  1  'x, y, z'
loop_
 _atom_site_type_symbol
 _atom_site_label
 _atom_site_symmetry_multiplicity
 _atom_site_fract_x
 _atom_site_fract_y
 _atom_site_fract_z
 _atom_site_occupancy
  In  In0  1  0.02396857  0.16958382  0.11862698  1
  In  In1  1  -0.00373723  0.16615504  0.63217034  1
  In  In2  1  0.00740584  0.49017984  0.13779314  1
  In  In3  1  -0.00596904  0.50083421  0.62337041  1
  In  In4  1  -0.01201160  0.84587478  0.11977460  1
  In  In5  1  0.00250415  0.84161818  0.62626174  1
  In  In6  1  0.33406304  0.16966113  0.12185876  1
  In  In7  1  0.34317657  0.15872383  0.63329608  1
  In  In8  1  0.32145339  0.50151292  0.12142375  1
  In  In9  1  0.34359914  0.48140016  0.63720320  1
  In  In10  1  0.35063153  0.83702089  0.12439887  1
  In  In11  1  0.36242382  0.81513809  0.65272196  1
  In  In12  1  0.66138759  0.17247850  0.11786375  1
  In  In13  1  0.65409300  0.17706983  0.63243562  1
  In  In14  1  0.67730947  0.50452049  0.13179114  1
  In  In15  1  0.66739308  0.50015224  0.62300697  1
  In  In16  1  0.67006025  0.81986139  0.12938603  1
  In  In17  1  0.66048361  0.82868389  0.62872313  1
  In  In18  1  0.17363324  -0.01098099  0.37009488  1
  In  In19  1  0.17423475  0.01834866  0.87477687  1
  In  In20  1  0.16531403  0.33246828  0.36928771  1
  In  In21  1  0.16257812  0.32927653  0.87797214  1
  In  In22  1  0.15553637  0.67423490  0.37077384  1
  In  In23  1  0.17159143  0.65243697  0.87595424  1
  In  In24  1  0.48950504  0.00630041  0.38739108  1
  In  In25  1  0.50523500  0.00435883  0.86838788  1
  In  In26  1  0.48820343  0.34342451  0.38501229  1
  In  In27  1  0.48432330  0.31784202  0.86548391  1
  In  In28  1  0.51097224  0.65627553  0.38733613  1
  In  In29  1  0.49903524  0.66936878  0.85976965  1
  In  In30  1  0.82442946  -0.00136409  0.38072663  1
  In  In31  1  0.82443773  -0.00838169  0.86616951  1
  In  In32  1  0.84643357  0.34622110  0.37178746  1
  In  In33  1  0.83700514  0.33499606  0.86327579  1
  In  In34  1  0.83207696  0.66506732  0.37630723  1
  In  In35  1  0.83009234  0.67683146  0.87432719  1
  In  In36  1  -0.00585229  0.17998070  0.37149639  1
  In  In37  1  0.00551923  0.17702732  0.87142733  1
  In  In38  1  -0.01624252  0.48965545  0.36417835  1
  In  In39  1  0.01670245  0.49421746  0.87487355  1
  In  In40  1  -0.00477719  0.81798994  0.37174169  1
  In  In41  1  -0.01792797  0.83479190  0.87875348  1
  In  In42  1  0.33617654  0.17034598  0.37221124  1
  In  In43  1  0.32668072  0.16125303  0.88250209  1
  In  In44  1  0.35478334  0.49335021  0.37656482  1
  In  In45  1  0.30787082  0.48017108  0.85105971  1
  In  In46  1  0.32843552  0.84455801  0.37633537  1
  In  In47  1  0.34914728  0.84640933  0.85815562  1
  In  In48  1  0.66095462  0.15884733  0.38159654  1
  In  In49  1  0.65781287  0.15861411  0.86620538  1
  In  In50  1  0.65398196  0.51280422  0.38116314  1
  In  In51  1  0.66488320  0.49714397  0.86376979  1
  In  In52  1  0.67752775  0.82182247  0.38673857  1
  In  In53  1  0.66596369  0.83851199  0.86000905  1
  In  In54  1  0.17686418  0.02731388  0.10510345  1
  In  In55  1  0.16923784  -0.00141759  0.63743982  1
  In  In56  1  0.16861802  0.33684419  0.12545549  1
  In  In57  1  0.16973304  0.33885621  0.63772673  1
  In  In58  1  0.17159535  0.65042692  0.11939039  1
  In  In59  1  0.16765888  0.67403483  0.63145278  1
  In  In60  1  0.48978087  0.00055702  0.12254490  1
  In  In61  1  0.49712719  -0.00037938  0.62893539  1
  In  In62  1  0.50184789  0.31335924  0.12134510  1
  In  In63  1  0.50158185  0.33322780  0.62307571  1
  In  In64  1  0.50694244  0.67320626  0.13022792  1
  In  In65  1  0.50790571  0.66805948  0.62528726  1
  In  In66  1  0.85206891  -0.01014601  0.11741537  1
  In  In67  1  0.83790002  -0.01056241  0.63130271  1
  In  In68  1  0.83900917  0.34766268  0.13063709  1
  In  In69  1  0.83069146  0.33698928  0.62723302  1
  In  In70  1  0.83121659  0.67469489  0.13314808  1
  In  In71  1  0.82314044  0.65517142  0.61614549  1
  In  In72  1  0.00998613  0.00309508  0.24054859  1
  In  In73  1  0.00089243  0.66024624  0.75261742  1
  In  In74  1  0.65629923  0.34337710  0.25819551  1
  In  In75  1  0.33692431  0.66172782  0.25200395  1
  In  In76  1  0.17101881  0.50399042  0.50757595  1
  In  In77  1  0.66454879  -0.00178487  0.25929906  1
  In  In78  1  0.50226293  0.83815358  -0.01377210  1
  In  In79  1  0.49325184  0.50151374  -0.00553957  1
  In  In80  1  0.83111133  0.16051076  -0.00193298  1
  In  In81  1  0.16962782  0.83603439  0.50217202  1
  In  In82  1  0.16886719  0.83504311  -0.00641725  1
  In  In83  1  0.82452825  0.16970711  0.50848644  1
  In  In84  1  0.16890852  0.17033165  0.49751461  1
  In  In85  1  0.83721508  0.50000439  0.00911762  1
  Cu  Cu86  1  0.16860217  0.49898547  0.24889065  1
  Cu  Cu87  1  0.83640923  0.83210413  0.25227873  1
  Cu  Cu88  1  0.67451079  0.66866721  0.00241394  1
  Cu  Cu89  1  0.82992359  0.82701532  0.74653142  1
  Cu  Cu90  1  0.33496338  0.66400849  -0.00972034  1
  Cu  Cu91  1  0.65806916  0.32609583  -0.00728675  1
  Cu  Cu92  1  0.17320178  0.17115187  0.24475018  1
  Cu  Cu93  1  0.83157178  0.15914066  0.75004217  1
  Cu  Cu94  1  0.50343094  0.83118529  0.25415660  1
  Cu  Cu95  1  0.49035935  0.16257293  0.25154477  1
  Cu  Cu96  1  0.83872459  0.17931910  0.24563853  1
  Cu  Cu97  1  0.49780622  0.17206816  0.75013247  1
  Cu  Cu98  1  0.16054216  0.84005332  0.75666174  1
  Cu  Cu99  1  0.50812527  0.50137691  0.74317679  1
  Cu  Cu100  1  0.00298727  0.66518894  -0.00303781  1
  Cu  Cu101  1  0.83016201  0.49991112  0.74381530  1
  Cu  Cu102  1  0.66701989  0.66987090  0.50399935  1
  Cu  Cu103  1  0.33839793  -0.00370118  0.51026361  1
  Cu  Cu104  1  0.32574696  0.33126838  -0.00542852  1
  Cu  Cu105  1  0.66742560  0.33557080  0.50495997  1
  Cu  Cu106  1  -0.01094762  0.66318407  0.49583051  1
  Cu  Cu107  1  -0.00416428  -0.00000795  0.50483920  1
  Cu  Cu108  1  0.33865382  0.33152046  0.50282747  1
  Cu  Cu109  1  0.16660090  0.17221073  0.75514871  1
  Cu  Cu110  1  0.17461111  0.83803732  0.24442209  1
  Cu  Cu111  1  0.66671821  -0.01018591  -0.00980184  1
  Cu  Cu112  1  0.00557191  0.33264538  0.00285465  1
  Cu  Cu113  1  0.34234611  0.66795833  0.50698603  1
  Cu  Cu114  1  0.66105490  -0.00633258  0.50542290  1
  Se  Se115  1  0.05501293  0.06104334  0.05044920  1
  Se  Se116  1  0.08185713  0.07750942  0.55993830  1
  Se  Se117  1  0.08237378  0.42053542  0.05784140  1
  Se  Se118  1  0.08178803  0.40739243  0.56018417  1
  Se  Se119  1  0.08288720  0.74590454  0.05874016  1
  Se  Se120  1  0.07365389  0.74026969  0.55588589  1
  Se  Se121  1  0.42354249  0.09142812  0.05511369  1
  Se  Se122  1  0.42061982  0.08754587  0.55572801  1
  Se  Se123  1  0.41001178  0.40733152  0.05709195  1
  Se  Se124  1  0.41902084  0.41923690  0.55416214  1
  Se  Se125  1  0.41777128  0.73986649  0.05104266  1
  Se  Se126  1  0.41901591  0.75595397  0.56077365  1
  Se  Se127  1  0.74108668  0.06735829  0.05889807  1
  Se  Se128  1  0.74003485  0.07541487  0.56702722  1
  Se  Se129  1  0.73611910  0.40393745  0.05628404  1
  Se  Se130  1  0.75383765  0.41827351  0.55424921  1
  Se  Se131  1  0.75610764  0.75203043  0.05537414  1
  Se  Se132  1  0.74925405  0.75524699  0.55644288  1
  Se  Se133  1  0.24557845  0.25107930  0.05500685  1
  Se  Se134  1  0.25586266  0.25493265  0.56337049  1
  Se  Se135  1  0.25258840  0.58007927  0.04311156  1
  Se  Se136  1  0.26198811  0.59101378  0.56816511  1
  Se  Se137  1  0.26287662  0.91902351  0.05613196  1
  Se  Se138  1  0.25657043  0.91654057  0.56846392  1
  Se  Se139  1  0.57667409  0.23936038  0.04297623  1
  Se  Se140  1  0.58233446  0.24860700  0.55200497  1
  Se  Se141  1  0.59013649  0.58707938  0.05733924  1
  Se  Se142  1  0.58377821  0.58256780  0.55395062  1
  Se  Se143  1  0.59056346  0.91507476  0.06017107  1
  Se  Se144  1  0.57711618  0.91367172  0.55977189  1
  Se  Se145  1  0.91736180  0.25618706  0.06071314  1
  Se  Se146  1  0.92529645  0.25611250  0.55777055  1
  Se  Se147  1  0.92776750  0.59070546  0.06564818  1
  Se  Se148  1  0.91256869  0.57594569  0.55031121  1
  Se  Se149  1  0.91433959  0.91119213  0.03838379  1
  Se  Se150  1  0.91484303  0.91277506  0.55421248  1
  Se  Se151  1  0.07401684  0.26224911  0.44482980  1
  Se  Se152  1  0.08423761  0.24535265  0.95057009  1
  Se  Se153  1  0.08037081  0.58653750  0.44213468  1
  Se  Se154  1  0.08672507  0.57917263  0.94884031  1
  Se  Se155  1  0.07425014  0.92204557  0.43995126  1
  Se  Se156  1  0.07919234  0.92262196  0.93448824  1
  Se  Se157  1  0.41611532  0.24353541  0.44796218  1
  Se  Se158  1  0.41489314  0.24839889  0.94725526  1
  Se  Se159  1  0.41831774  0.57903391  0.45294100  1
  Se  Se160  1  0.40942955  0.58420907  0.92680386  1
  Se  Se161  1  0.41395494  0.91047639  0.45164740  1
  Se  Se162  1  0.40575745  0.93246288  0.94091598  1
  Se  Se163  1  0.74587306  0.25954488  0.43820017  1
  Se  Se164  1  0.74778228  0.25379763  0.93529107  1
  Se  Se165  1  0.74780237  0.58654705  0.44701065  1
  Se  Se166  1  0.74606592  0.58052737  0.94196181  1
  Se  Se167  1  0.75158879  0.91714130  0.45291212  1
  Se  Se168  1  0.74768102  0.90622612  0.93796941  1
  Se  Se169  1  0.25624851  0.06954988  0.44455231  1
  Se  Se170  1  0.24059988  0.09018352  0.95620629  1
  Se  Se171  1  0.25539889  0.41049639  0.44316962  1
  Se  Se172  1  0.24846428  0.41979623  0.94155936  1
  Se  Se173  1  0.25688940  0.73886345  0.44338436  1
  Se  Se174  1  0.26323125  0.75227747  0.93126435  1
  Se  Se175  1  0.58141841  0.08246665  0.45381927  1
  Se  Se176  1  0.58571030  0.07981198  0.94334843  1
  Se  Se177  1  0.58338200  0.41702297  0.44884199  1
  Se  Se178  1  0.58249272  0.41060038  0.93453090  1
  Se  Se179  1  0.58026558  0.75348889  0.45273306  1
  Se  Se180  1  0.59221131  0.73883697  0.93683547  1
  Se  Se181  1  0.92161376  0.08350646  0.44292497  1
  Se  Se182  1  0.91561251  0.07918006  0.93109391  1
  Se  Se183  1  0.91727816  0.42244122  0.44829283  1
  Se  Se184  1  0.92047337  0.40933379  0.94371409  1
  Se  Se185  1  0.91022170  0.75488862  0.44741306  1
  Se  Se186  1  0.91229391  0.74548416  0.95039515  1
  Se  Se187  1  0.25286598  0.25191823  0.30398429  1
  Se  Se188  1  0.25243014  0.24947444  0.81115854  1
  Se  Se189  1  0.24538066  0.57524568  0.31506306  1
  Se  Se190  1  0.25294435  0.59488912  0.79641010  1
  Se  Se191  1  0.25830286  0.92043231  0.29626264  1
  Se  Se192  1  0.24584699  0.92538836  0.80544791  1
  Se  Se193  1  0.57336102  0.24037935  0.31271009  1
  Se  Se194  1  0.58725627  0.25497091  0.80059859  1
  Se  Se195  1  0.56845855  0.57793825  0.30574381  1
  Se  Se196  1  0.58921432  0.58650198  0.79709519  1
  Se  Se197  1  0.57804736  0.90913484  0.32047324  1
  Se  Se198  1  0.55932745  0.89999951  0.80181668  1
  Se  Se199  1  0.92109774  0.26202232  0.29833543  1
  Se  Se200  1  0.91675594  0.24664672  0.79862819  1
  Se  Se201  1  0.94088239  0.61070923  0.31283472  1
  Se  Se202  1  0.90804444  0.57181254  0.81354189  1
  Se  Se203  1  0.91506216  0.92137864  0.30749997  1
  Se  Se204  1  0.91372860  0.91083678  0.79916348  1
  Se  Se205  1  0.09282900  0.09335822  0.30972439  1
  Se  Se206  1  0.08133056  0.08578648  0.80386632  1
  Se  Se207  1  0.08319162  0.41670665  0.30233939  1
  Se  Se208  1  0.07824327  0.40378496  0.80446940  1
  Se  Se209  1  0.08715753  0.75904210  0.29644221  1
  Se  Se210  1  0.08417707  0.75399953  0.81592848  1
  Se  Se211  1  0.41337117  0.07626840  0.30749158  1
  Se  Se212  1  0.41647493  0.09200151  0.80852127  1
  Se  Se213  1  0.41736210  0.40767999  0.30178024  1
  Se  Se214  1  0.42490814  0.42144305  0.80024789  1
  Se  Se215  1  0.42002359  0.75320436  0.31513634  1
  Se  Se216  1  0.41548453  0.75040844  0.79255518  1
  Se  Se217  1  0.76204236  0.09790829  0.30718142  1
  Se  Se218  1  0.74284338  0.07673005  0.79905335  1
  Se  Se219  1  0.75074391  0.43168551  0.31225900  1
  Se  Se220  1  0.74831892  0.41342674  0.79729914  1
  Se  Se221  1  0.75094611  0.75246039  0.30653114  1
  Se  Se222  1  0.74682025  0.74286505  0.79867922  1
  Se  Se223  1  0.25032172  0.08339055  0.19097874  1
  Se  Se224  1  0.24901886  0.08869694  0.70095831  1
  Se  Se225  1  0.25313726  0.41712678  0.19608735  1
  Se  Se226  1  0.25237537  0.41549156  0.70749029  1
  Se  Se227  1  0.25181322  0.75240035  0.18524882  1
  Se  Se228  1  0.24242311  0.75660112  0.70241985  1
  Se  Se229  1  0.58147745  0.08944005  0.19400306  1
  Se  Se230  1  0.58007172  0.08456281  0.69859115  1
  Se  Se231  1  0.57309516  0.41982508  0.18422780  1
  Se  Se232  1  0.58864912  0.41292794  0.69168352  1
  Se  Se233  1  0.58824631  0.74723942  0.20403784  1
  Se  Se234  1  0.57259529  0.75721714  0.69990906  1
  Se  Se235  1  0.91302832  0.09516791  0.18560911  1
  Se  Se236  1  0.91815620  0.07703149  0.69803997  1
  Se  Se237  1  0.90300582  0.43368299  0.20312103  1
  Se  Se238  1  0.91802732  0.41763593  0.69532396  1
  Se  Se239  1  0.92397364  0.75869323  0.19490811  1
  Se  Se240  1  0.91359834  0.74680464  0.68764145  1
  Se  Se241  1  0.08433490  0.25376385  0.19609402  1
  Se  Se242  1  0.08245853  0.24912859  0.69716806  1
  Se  Se243  1  0.08905359  0.58703113  0.19717221  1
  Se  Se244  1  0.09233629  0.57209168  0.69315733  1
  Se  Se245  1  0.09936569  0.91647039  0.17891180  1
  Se  Se246  1  0.07637842  0.91959077  0.70140553  1
  Se  Se247  1  0.41443756  0.24978212  0.19621915  1
  Se  Se248  1  0.41630350  0.25684743  0.69578219  1
  Se  Se249  1  0.42325606  0.57441626  0.18765375  1
  Se  Se250  1  0.42084158  0.58326406  0.69262382  1
  Se  Se251  1  0.42415151  0.91602410  0.19968414  1
  Se  Se252  1  0.39296851  0.94449540  0.69663865  1
  Se  Se253  1  0.74650619  0.25141961  0.19124192  1
  Se  Se254  1  0.75418418  0.24711646  0.69488917  1
  Se  Se255  1  0.75290488  0.58760482  0.19975747  1
  Se  Se256  1  0.74656662  0.58582079  0.69479874  1
  Se  Se257  1  0.75848548  0.91719382  0.19306380  1
  Se  Se258  1  0.74577640  0.91380609  0.69691877  1
