# generated using pymatgen
data_In86Cu29Se144
_symmetry_space_group_name_H-M   'P 1'
_cell_length_a   17.55682681
_cell_length_b   17.55804370
_cell_length_c   23.40763853
_cell_angle_alpha   90.00659210
_cell_angle_beta   90.01717985
_cell_angle_gamma   90.01465942
_symmetry_Int_Tables_number   1
_chemical_formula_structural   In86Cu29Se144
_chemical_formula_sum   'In86 Cu29 Se144'
_cell_volume   7215.72072899
_cell_formula_units_Z   1
loop_
 _symmetry_equiv_pos_site_id
 _symmetry_equiv_pos_as_xyz
  1  'x, y, z'
loop_
 _atom_site_type_symbol
 _atom_site_label
 _atom_site_symmetry_multiplicity
 _atom_site_fract_x
 _atom_site_fract_y
 _atom_site_fract_z
 _atom_site_occupancy
  In  In0  1  -0.01022846  0.15962760  0.11136220  1
  In  In1  1  -0.00127544  0.14456866  0.62900780  1
  In  In2  1  -0.00733237  0.49148892  0.10439371  1
  In  In3  1  -0.00830956  0.51739440  0.63129712  1
  In  In4  1  0.00732035  0.83624794  0.12469323  1
  In  In5  1  -0.01271716  0.83841385  0.63704717  1
  In  In6  1  0.33911864  0.18142957  0.12916450  1
  In  In7  1  0.33337331  0.16273291  0.62124248  1
  In  In8  1  0.33500648  0.49756781  0.12810312  1
  In  In9  1  0.34568260  0.49396511  0.62098301  1
  In  In10  1  0.32704256  0.82506169  0.12777982  1
  In  In11  1  0.36209347  0.82510598  0.64365951  1
  In  In12  1  0.67290329  0.15996022  0.13658863  1
  In  In13  1  0.65799243  0.16327133  0.62994414  1
  In  In14  1  0.66804748  0.49363596  0.13217190  1
  In  In15  1  0.67595281  0.50913756  0.61482422  1
  In  In16  1  0.66384492  0.83790088  0.13357748  1
  In  In17  1  0.66330344  0.83466085  0.63050594  1
  In  In18  1  0.17026948  0.01151333  0.37550935  1
  In  In19  1  0.16361997  0.00426172  0.87150046  1
  In  In20  1  0.16670462  0.31497628  0.37235006  1
  In  In21  1  0.15074108  0.34181009  0.89939821  1
  In  In22  1  0.16900059  0.65218310  0.37292928  1
  In  In23  1  0.16333875  0.66524130  0.86944987  1
  In  In24  1  0.51089382  -0.01023081  0.38792157  1
  In  In25  1  0.50697744  0.00157064  0.84474192  1
  In  In26  1  0.50206174  0.33003002  0.37198609  1
  In  In27  1  0.50143501  0.33697968  0.87661297  1
  In  In28  1  0.50068034  0.66800219  0.37821045  1
  In  In29  1  0.51347158  0.68569394  0.85308350  1
  In  In30  1  0.82427133  -0.00653161  0.37251759  1
  In  In31  1  0.84216273  0.01854292  0.84849498  1
  In  In32  1  0.82725925  0.34858486  0.37919963  1
  In  In33  1  0.84604067  0.32851449  0.89542992  1
  In  In34  1  0.81948782  0.67705178  0.38449875  1
  In  In35  1  0.83082981  0.66491456  0.86931761  1
  In  In36  1  0.01343048  0.16499234  0.37627964  1
  In  In37  1  0.00135298  0.16294233  0.88101702  1
  In  In38  1  -0.00643570  0.49270346  0.37732897  1
  In  In39  1  -0.00978049  0.51457789  0.89521879  1
  In  In40  1  -0.01799407  0.83018542  0.37819351  1
  In  In41  1  -0.01502625  0.83233787  0.85703461  1
  In  In42  1  0.32666015  0.16718989  0.37865569  1
  In  In43  1  0.32563081  0.15010761  0.86706149  1
  In  In44  1  0.34523138  0.51011468  0.36825587  1
  In  In45  1  0.32652890  0.50365492  0.87677404  1
  In  In46  1  0.35057003  0.83587556  0.38096781  1
  In  In47  1  0.33913304  0.83904758  0.85928655  1
  In  In48  1  0.65121989  0.15214261  0.35923716  1
  In  In49  1  0.67091009  0.17018424  0.87217900  1
  In  In50  1  0.66223717  0.50137763  0.37498989  1
  In  In51  1  0.67436026  0.51389785  0.87238017  1
  In  In52  1  0.66666293  0.83273640  0.37841405  1
  In  In53  1  0.68982153  0.85110710  0.84069387  1
  In  In54  1  0.14968682  -0.00782010  0.12359440  1
  In  In55  1  0.16822063  0.00642449  0.62872786  1
  In  In56  1  0.16906390  0.33921529  0.11706493  1
  In  In57  1  0.17764511  0.32876281  0.62105026  1
  In  In58  1  0.17519867  0.66230566  0.12169016  1
  In  In59  1  0.16325013  0.67350158  0.63319019  1
  In  In60  1  0.51494370  0.01271394  0.12900553  1
  In  In61  1  0.50620259  0.00368317  0.62875108  1
  In  In62  1  0.49967772  0.32373252  0.14641963  1
  In  In63  1  0.49621754  0.33179771  0.61169618  1
  In  In64  1  0.50242849  0.66608813  0.13434753  1
  In  In65  1  0.50545290  0.66865624  0.62360202  1
  In  In66  1  0.82525570  0.00999293  0.12814631  1
  In  In67  1  0.83945312  -0.01221524  0.64114880  1
  In  In68  1  0.83314847  0.32728318  0.11749516  1
  In  In69  1  0.81910970  0.33293069  0.62236972  1
  In  In70  1  0.82935033  0.65522944  0.12379527  1
  In  In71  1  0.82813668  0.66941455  0.63133259  1
  In  In72  1  0.33149556  0.32894682  0.74998556  1
  In  In73  1  0.16183528  0.82785642  -0.00214730  1
  In  In74  1  0.82980273  0.16590421  0.50165135  1
  In  In75  1  0.16517003  0.49667179  0.49875513  1
  In  In76  1  0.50232657  0.83461358  -0.01825991  1
  In  In77  1  0.83179329  0.83463731  -0.01560375  1
  In  In78  1  0.17094834  0.84109729  0.50826265  1
  In  In79  1  0.00043442  0.33353104  0.76510838  1
  In  In80  1  0.33740069  -0.00657768  0.25203852  1
  In  In81  1  0.49711035  0.50194833  -0.00053578  1
  In  In82  1  -0.00024382  0.32999962  0.24300770  1
  In  In83  1  0.00026939  0.66458149  0.23984361  1
  In  In84  1  0.49996183  0.17040900  -0.00000019  1
  In  In85  1  0.66638920  0.33325295  0.74725862  1
  Cu  Cu86  1  0.33858972  0.66647712  -0.00209754  1
  Cu  Cu87  1  0.66857231  -0.00399715  0.50222310  1
  Cu  Cu88  1  0.67371806  0.66738102  -0.00439605  1
  Cu  Cu89  1  0.16817590  0.16093894  0.24884991  1
  Cu  Cu90  1  0.82803278  0.84235662  0.25417240  1
  Cu  Cu91  1  -0.00065520  0.33162365  0.49846439  1
  Cu  Cu92  1  0.67449959  0.33371004  0.00811691  1
  Cu  Cu93  1  0.50389698  0.50761708  0.74305831  1
  Cu  Cu94  1  -0.00115797  -0.00477307  0.50874200  1
  Cu  Cu95  1  0.49657032  0.50249480  0.25661656  1
  Cu  Cu96  1  -0.01811626  0.66994295  0.50711152  1
  Cu  Cu97  1  0.32841318  0.00503652  -0.00661039  1
  Cu  Cu98  1  0.16827430  0.84416879  0.74829491  1
  Cu  Cu99  1  0.17678595  0.49253795  0.24510834  1
  Cu  Cu100  1  0.33682947  0.67082106  0.50288612  1
  Cu  Cu101  1  0.32945648  0.32911916  0.00593136  1
  Cu  Cu102  1  0.16559330  0.82692260  0.24748968  1
  Cu  Cu103  1  0.66747413  0.00588942  -0.00273410  1
  Cu  Cu104  1  0.33577163  0.32907534  0.49457137  1
  Cu  Cu105  1  0.66098451  0.33334512  0.49475217  1
  Cu  Cu106  1  -0.00860016  -0.00100707  -0.00592860  1
  Cu  Cu107  1  0.83326821  0.49831664  0.75389040  1
  Cu  Cu108  1  0.15922686  0.17168634  0.75498296  1
  Cu  Cu109  1  0.16682479  0.51062673  0.75557208  1
  Cu  Cu110  1  0.82826500  0.50757492  0.25155813  1
  Cu  Cu111  1  0.50434041  0.83090242  0.25815248  1
  Cu  Cu112  1  0.66312642  0.66613716  0.50134190  1
  Cu  Cu113  1  0.84041118  0.17051854  0.24602913  1
  Cu  Cu114  1  0.34251360  0.00379219  0.50493965  1
  Se  Se115  1  0.08079466  0.07499366  0.04860098  1
  Se  Se116  1  0.08653595  0.08207330  0.55307108  1
  Se  Se117  1  0.09180272  0.41919871  0.04598967  1
  Se  Se118  1  0.07429648  0.41364733  0.56430081  1
  Se  Se119  1  0.07264369  0.73595520  0.05683993  1
  Se  Se120  1  0.07424468  0.74791071  0.55937650  1
  Se  Se121  1  0.41080649  0.07551126  0.05948345  1
  Se  Se122  1  0.42760051  0.08900840  0.55549574  1
  Se  Se123  1  0.42168950  0.40119433  0.06227457  1
  Se  Se124  1  0.41717156  0.41850099  0.54332655  1
  Se  Se125  1  0.41988741  0.74878997  0.05558953  1
  Se  Se126  1  0.41924512  0.75423370  0.55604970  1
  Se  Se127  1  0.74575479  0.08900777  0.05467028  1
  Se  Se128  1  0.74942834  0.07275846  0.56528420  1
  Se  Se129  1  0.75260540  0.42513752  0.05742384  1
  Se  Se130  1  0.74868786  0.41398117  0.54757494  1
  Se  Se131  1  0.74474397  0.75498899  0.05740433  1
  Se  Se132  1  0.74328702  0.74738264  0.56064907  1
  Se  Se133  1  0.24809576  0.24093646  0.05528791  1
  Se  Se134  1  0.25254166  0.24707669  0.54955992  1
  Se  Se135  1  0.26131006  0.58174268  0.05386898  1
  Se  Se136  1  0.25095907  0.59090040  0.55976304  1
  Se  Se137  1  0.25650019  0.92055480  0.05614059  1
  Se  Se138  1  0.26663858  0.92152802  0.56794448  1
  Se  Se139  1  0.58725036  0.25679556  0.06495007  1
  Se  Se140  1  0.58884629  0.24609545  0.55358325  1
  Se  Se141  1  0.59019021  0.59269240  0.05729026  1
  Se  Se142  1  0.57780182  0.58024528  0.55130155  1
  Se  Se143  1  0.58709793  0.92172998  0.05330280  1
  Se  Se144  1  0.58333486  0.91696169  0.55798652  1
  Se  Se145  1  0.92109396  0.25651334  0.04731766  1
  Se  Se146  1  0.92430597  0.25209006  0.56360046  1
  Se  Se147  1  0.91872554  0.59566989  0.05103726  1
  Se  Se148  1  0.90334334  0.57991142  0.55718651  1
  Se  Se149  1  0.91505401  0.91871553  0.05730147  1
  Se  Se150  1  0.91203166  0.91508179  0.56012468  1
  Se  Se151  1  0.08638283  0.24762922  0.45073365  1
  Se  Se152  1  0.07340437  0.24428087  0.95527209  1
  Se  Se153  1  0.06758948  0.59358411  0.44652446  1
  Se  Se154  1  0.10354177  0.57970320  0.94634842  1
  Se  Se155  1  0.07762027  0.92093157  0.44151693  1
  Se  Se156  1  0.07000193  0.91463127  0.93582696  1
  Se  Se157  1  0.42000942  0.24578294  0.44216538  1
  Se  Se158  1  0.40462094  0.25475920  0.93786118  1
  Se  Se159  1  0.41542013  0.58475390  0.44757539  1
  Se  Se160  1  0.42389797  0.59770767  0.93319776  1
  Se  Se161  1  0.42292268  0.91268772  0.45697529  1
  Se  Se162  1  0.41263453  0.93476063  0.93122904  1
  Se  Se163  1  0.74191912  0.25009210  0.43649159  1
  Se  Se164  1  0.74560969  0.24526835  0.94949795  1
  Se  Se165  1  0.74617186  0.58075600  0.44759628  1
  Se  Se166  1  0.75912356  0.58255790  0.94674680  1
  Se  Se167  1  0.75265338  0.91398700  0.44840314  1
  Se  Se168  1  0.74222406  0.92929893  0.92988828  1
  Se  Se169  1  0.25216468  0.08022143  0.45117806  1
  Se  Se170  1  0.24098553  0.08696939  0.94485685  1
  Se  Se171  1  0.25373626  0.41113372  0.43472583  1
  Se  Se172  1  0.25685680  0.41988279  0.95114753  1
  Se  Se173  1  0.25044535  0.74403753  0.44220884  1
  Se  Se174  1  0.26291340  0.75185563  0.93807034  1
  Se  Se175  1  0.59149827  0.08630144  0.44851299  1
  Se  Se176  1  0.57798707  0.07505592  0.93543221  1
  Se  Se177  1  0.57761518  0.41875597  0.44345749  1
  Se  Se178  1  0.59644580  0.41253221  0.94366950  1
  Se  Se179  1  0.58168157  0.75213787  0.44763039  1
  Se  Se180  1  0.60463546  0.75002816  0.93108607  1
  Se  Se181  1  0.92295228  0.07659739  0.44248640  1
  Se  Se182  1  0.90447652  0.07701578  0.93885527  1
  Se  Se183  1  0.91455159  0.41912215  0.45239002  1
  Se  Se184  1  0.91965682  0.41939803  0.96002020  1
  Se  Se185  1  0.90418646  0.75785947  0.45395695  1
  Se  Se186  1  0.92987188  0.74168207  0.93777465  1
  Se  Se187  1  0.25263638  0.24461561  0.29973641  1
  Se  Se188  1  0.23381770  0.25613745  0.81693293  1
  Se  Se189  1  0.25205390  0.58270672  0.29896553  1
  Se  Se190  1  0.25835439  0.58988436  0.80334769  1
  Se  Se191  1  0.24377521  0.90438982  0.31289688  1
  Se  Se192  1  0.25052623  0.92864216  0.80137803  1
  Se  Se193  1  0.59852856  0.26557590  0.30318651  1
  Se  Se194  1  0.57052207  0.24583992  0.80556986  1
  Se  Se195  1  0.58218802  0.58781966  0.30629883  1
  Se  Se196  1  0.59205219  0.58385444  0.79755866  1
  Se  Se197  1  0.58617942  0.91858152  0.30823155  1
  Se  Se198  1  0.55370132  0.87451251  0.80218297  1
  Se  Se199  1  0.91336761  0.24874756  0.31394426  1
  Se  Se200  1  0.90232410  0.24167520  0.81288801  1
  Se  Se201  1  0.91248955  0.58468315  0.31092098  1
  Se  Se202  1  0.92145917  0.57575657  0.80853082  1
  Se  Se203  1  0.91908967  0.92001033  0.30451513  1
  Se  Se204  1  0.90427594  0.91252059  0.78878382  1
  Se  Se205  1  0.08257079  0.07966376  0.30145686  1
  Se  Se206  1  0.07521495  0.08451195  0.80408032  1
  Se  Se207  1  0.09059186  0.42072830  0.30740290  1
  Se  Se208  1  0.09061990  0.42955051  0.81758339  1
  Se  Se209  1  0.08421412  0.75066173  0.31149738  1
  Se  Se210  1  0.08882234  0.75672155  0.80196331  1
  Se  Se211  1  0.42079388  0.07639005  0.31909278  1
  Se  Se212  1  0.41717001  0.09443196  0.79357994  1
  Se  Se213  1  0.41336604  0.41170701  0.30355798  1
  Se  Se214  1  0.42544024  0.42725081  0.80511454  1
  Se  Se215  1  0.41498350  0.74902446  0.30636711  1
  Se  Se216  1  0.39838081  0.73473753  0.79673205  1
  Se  Se217  1  0.75847422  0.08604581  0.30140191  1
  Se  Se218  1  0.71868422  0.06940209  0.79952873  1
  Se  Se219  1  0.74808607  0.42042827  0.30372892  1
  Se  Se220  1  0.75954848  0.41224443  0.81483271  1
  Se  Se221  1  0.74911014  0.75226759  0.30535979  1
  Se  Se222  1  0.75958657  0.74168290  0.79179205  1
  Se  Se223  1  0.24592032  0.07787909  0.18726938  1
  Se  Se224  1  0.24534082  0.09713790  0.69653844  1
  Se  Se225  1  0.25617647  0.40479566  0.19296302  1
  Se  Se226  1  0.24176123  0.42763410  0.69328151  1
  Se  Se227  1  0.25008534  0.74195342  0.19812347  1
  Se  Se228  1  0.25004967  0.75720709  0.69683059  1
  Se  Se229  1  0.58258414  0.08878135  0.20588640  1
  Se  Se230  1  0.60098668  0.06850832  0.70265704  1
  Se  Se231  1  0.58152691  0.42023701  0.20289216  1
  Se  Se232  1  0.57825053  0.42107143  0.68354374  1
  Se  Se233  1  0.58681285  0.74911937  0.20068015  1
  Se  Se234  1  0.57253341  0.75631275  0.69722670  1
  Se  Se235  1  0.92162725  0.08487951  0.19264105  1
  Se  Se236  1  0.91060471  0.08742097  0.70376772  1
  Se  Se237  1  0.91081634  0.42853290  0.19028882  1
  Se  Se238  1  0.91083933  0.41479060  0.69370975  1
  Se  Se239  1  0.90419492  0.76159788  0.18945320  1
  Se  Se240  1  0.93475992  0.72658714  0.69555200  1
  Se  Se241  1  0.08903659  0.23882962  0.18474252  1
  Se  Se242  1  0.08408080  0.25190852  0.69079645  1
  Se  Se243  1  0.08816280  0.56665370  0.18526731  1
  Se  Se244  1  0.08109197  0.58857529  0.70084988  1
  Se  Se245  1  0.07961594  0.91395558  0.20169323  1
  Se  Se246  1  0.08175066  0.92383410  0.69485044  1
  Se  Se247  1  0.42860009  0.22540859  0.20808456  1
  Se  Se248  1  0.42613616  0.24664526  0.68986960  1
  Se  Se249  1  0.41475871  0.58268813  0.19714260  1
  Se  Se250  1  0.41487554  0.58426509  0.68998201  1
  Se  Se251  1  0.42952213  0.90633699  0.18773258  1
  Se  Se252  1  0.40098695  0.94739198  0.69587574  1
  Se  Se253  1  0.75616498  0.25608966  0.19541493  1
  Se  Se254  1  0.76042034  0.23741519  0.69601712  1
  Se  Se255  1  0.74321359  0.58893660  0.19825288  1
  Se  Se256  1  0.74779116  0.57588071  0.69741342  1
  Se  Se257  1  0.74571879  0.92545610  0.19789065  1
  Se  Se258  1  0.75497993  0.90034304  0.70426712  1
