# generated using pymatgen
data_In86Cu29Se144
_symmetry_space_group_name_H-M   'P 1'
_cell_length_a   17.57891410
_cell_length_b   17.57795529
_cell_length_c   23.44162634
_cell_angle_alpha   90.00716561
_cell_angle_beta   89.98549321
_cell_angle_gamma   89.99510389
_symmetry_Int_Tables_number   1
_chemical_formula_structural   In86Cu29Se144
_chemical_formula_sum   'In86 Cu29 Se144'
_cell_volume   7243.49425064
_cell_formula_units_Z   1
loop_
 _symmetry_equiv_pos_site_id
 _symmetry_equiv_pos_as_xyz
  1  'x, y, z'
loop_
 _atom_site_type_symbol
 _atom_site_label
 _atom_site_symmetry_multiplicity
 _atom_site_fract_x
 _atom_site_fract_y
 _atom_site_fract_z
 _atom_site_occupancy
  In  In0  1  -0.00085083  0.17046144  0.12046475  1
  In  In1  1  -0.00819195  0.17521526  0.62343825  1
  In  In2  1  0.00305979  0.47531811  0.12232976  1
  In  In3  1  -0.00131383  0.51453904  0.62590128  1
  In  In4  1  0.01284884  0.83730480  0.13243511  1
  In  In5  1  -0.00559320  0.82793442  0.61589065  1
  In  In6  1  0.33678007  0.16408321  0.12610807  1
  In  In7  1  0.32088185  0.15396450  0.62717320  1
  In  In8  1  0.33096236  0.50171455  0.11981031  1
  In  In9  1  0.34464685  0.50783324  0.62206139  1
  In  In10  1  0.33843618  0.83046195  0.13551792  1
  In  In11  1  0.34968860  0.85902214  0.60058527  1
  In  In12  1  0.66784797  0.16783011  0.12619348  1
  In  In13  1  0.66831255  0.15722613  0.62826345  1
  In  In14  1  0.65269057  0.50668870  0.13087989  1
  In  In15  1  0.66527418  0.48705605  0.62700707  1
  In  In16  1  0.66834491  0.82957011  0.13513358  1
  In  In17  1  0.67046903  0.84013168  0.61954931  1
  In  In18  1  0.16509114  -0.00339696  0.37252882  1
  In  In19  1  0.17564749  -0.00114258  0.87783192  1
  In  In20  1  0.16336157  0.32941675  0.35879320  1
  In  In21  1  0.16769076  0.33102536  0.89535516  1
  In  In22  1  0.17912546  0.66757931  0.37043135  1
  In  In23  1  0.16300577  0.67299478  0.87592774  1
  In  In24  1  0.49178010  -0.01421818  0.36970282  1
  In  In25  1  0.50925694  0.00878154  0.86579001  1
  In  In26  1  0.49821871  0.33422762  0.36107194  1
  In  In27  1  0.50610950  0.32807870  0.88663616  1
  In  In28  1  0.51436395  0.68259907  0.37013269  1
  In  In29  1  0.49698423  0.66823750  0.88309263  1
  In  In30  1  0.83270458  0.00388430  0.37461612  1
  In  In31  1  0.83143100  0.01250386  0.87446241  1
  In  In32  1  0.83128896  0.33202028  0.37234437  1
  In  In33  1  0.82035718  0.33375491  0.87636916  1
  In  In34  1  0.80615464  0.67937139  0.39345659  1
  In  In35  1  0.83978851  0.65445417  0.87024460  1
  In  In36  1  -0.00708149  0.15858308  0.36697194  1
  In  In37  1  -0.00711939  0.17697822  0.89467375  1
  In  In38  1  -0.00942800  0.48701206  0.36628675  1
  In  In39  1  -0.00148623  0.50709524  0.87565663  1
  In  In40  1  -0.01303508  0.84278763  0.38203004  1
  In  In41  1  0.01895420  0.82384569  0.86487104  1
  In  In42  1  0.32772788  0.16034314  0.36155612  1
  In  In43  1  0.33991469  0.16189840  0.88828282  1
  In  In44  1  0.33576511  0.50316772  0.36088108  1
  In  In45  1  0.34406345  0.50947135  0.89868106  1
  In  In46  1  0.33723232  0.83568140  0.37923236  1
  In  In47  1  0.33061440  0.84388705  0.86938607  1
  In  In48  1  0.67323152  0.17547983  0.36674451  1
  In  In49  1  0.66268053  0.16793727  0.87721318  1
  In  In50  1  0.67537560  0.50928354  0.36583248  1
  In  In51  1  0.67544517  0.48820529  0.87888422  1
  In  In52  1  0.66264957  0.83552380  0.37641800  1
  In  In53  1  0.65521568  0.84883781  0.86759026  1
  In  In54  1  0.15975382  0.00653790  0.13514191  1
  In  In55  1  0.18176508  -0.01057607  0.63064902  1
  In  In56  1  0.16485505  0.33379462  0.11795124  1
  In  In57  1  0.16706652  0.32810346  0.62521181  1
  In  In58  1  0.18269104  0.66393301  0.12313345  1
  In  In59  1  0.15426207  0.67189397  0.63035073  1
  In  In60  1  0.49342874  0.00470327  0.13375739  1
  In  In61  1  0.50039831  -0.00690334  0.63600819  1
  In  In62  1  0.50268411  0.33041475  0.12728782  1
  In  In63  1  0.50482912  0.34679879  0.62729637  1
  In  In64  1  0.50144482  0.65797888  0.12578516  1
  In  In65  1  0.49376047  0.67722572  0.62300216  1
  In  In66  1  0.81912333  0.01406919  0.13674173  1
  In  In67  1  0.81996151  -0.01119784  0.61341195  1
  In  In68  1  0.84504385  0.32118185  0.13235693  1
  In  In69  1  0.82254719  0.31998942  0.61578871  1
  In  In70  1  0.82247554  0.65728175  0.12830152  1
  In  In71  1  0.83731286  0.68098520  0.60980536  1
  In  In72  1  0.67289473  0.67103187  0.74178405  1
  In  In73  1  0.17463522  0.83258498  -0.00607687  1
  In  In74  1  0.32784109  0.67628990  0.75206108  1
  In  In75  1  -0.00420468  0.33585702  0.76067684  1
  In  In76  1  0.50265824  0.83131398  0.00370672  1
  In  In77  1  -0.00776266  0.66549455  0.25117196  1
  In  In78  1  0.15971486  0.15565558  0.48890459  1
  In  In79  1  0.34280370  0.32862471  0.75871155  1
  In  In80  1  -0.00356748  0.00025455  0.75011614  1
  In  In81  1  0.50195103  0.15978677  0.50241433  1
  In  In82  1  0.83530093  0.49192425  0.00304887  1
  In  In83  1  0.16130234  0.50250478  0.49728788  1
  In  In84  1  0.50497719  0.50772977  0.49626132  1
  In  In85  1  0.83644819  0.83476766  0.00714333  1
  Cu  Cu86  1  0.50535400  0.16301040  0.24678665  1
  Cu  Cu87  1  0.00197687  0.66275157  -0.00354332  1
  Cu  Cu88  1  -0.00086131  0.00393928  0.49844443  1
  Cu  Cu89  1  0.33254075  0.67601298  0.49591260  1
  Cu  Cu90  1  0.16716282  0.15952863  0.75863130  1
  Cu  Cu91  1  0.66546479  0.00867508  0.00186924  1
  Cu  Cu92  1  0.83607627  0.83155532  0.73988849  1
  Cu  Cu93  1  0.32950875  0.32785693  0.48786921  1
  Cu  Cu94  1  0.66708626  0.00177891  0.49716379  1
  Cu  Cu95  1  0.51099213  0.49875846  0.75788960  1
  Cu  Cu96  1  -0.01179074  0.33484897  0.49578292  1
  Cu  Cu97  1  0.81827425  0.16194135  0.74796565  1
  Cu  Cu98  1  0.16935807  0.83714919  0.25475913  1
  Cu  Cu99  1  0.17025759  0.16968619  0.24170818  1
  Cu  Cu100  1  0.17781382  0.49853966  0.75154189  1
  Cu  Cu101  1  0.83122054  0.83756528  0.25982232  1
  Cu  Cu102  1  0.49719213  0.16891077  0.75754685  1
  Cu  Cu103  1  0.67199012  0.33461702  0.49431287  1
  Cu  Cu104  1  0.84138575  0.49947756  0.74885539  1
  Cu  Cu105  1  0.66903331  0.32916344  0.00536315  1
  Cu  Cu106  1  0.82464231  0.49893634  0.24933722  1
  Cu  Cu107  1  -0.00259386  0.00591260  0.00615885  1
  Cu  Cu108  1  0.49016951  0.49715015  0.24447370  1
  Cu  Cu109  1  -0.00292214  0.66511707  0.49756799  1
  Cu  Cu110  1  0.33511701  0.00078077  0.00465055  1
  Cu  Cu111  1  0.49984620  0.83046999  0.25337823  1
  Cu  Cu112  1  0.16613456  0.49875092  0.24254917  1
  Cu  Cu113  1  0.83734551  0.16828653  0.24956492  1
  Cu  Cu114  1  0.33911420  0.33149528  0.00977609  1
  Se  Se115  1  0.08827298  0.08229097  0.05723359  1
  Se  Se116  1  0.07781796  0.07813248  0.56496379  1
  Se  Se117  1  0.08757835  0.41756861  0.04570163  1
  Se  Se118  1  0.07367638  0.40696562  0.55839501  1
  Se  Se119  1  0.07915550  0.74638739  0.05659700  1
  Se  Se120  1  0.08386683  0.74520608  0.55042825  1
  Se  Se121  1  0.42227705  0.08221893  0.05599823  1
  Se  Se122  1  0.40778013  0.07386853  0.55937120  1
  Se  Se123  1  0.42366775  0.41741294  0.05837084  1
  Se  Se124  1  0.40844773  0.40793255  0.55000505  1
  Se  Se125  1  0.40734630  0.74436970  0.05922705  1
  Se  Se126  1  0.42393811  0.75380034  0.54515253  1
  Se  Se127  1  0.75329437  0.08753796  0.05461673  1
  Se  Se128  1  0.74842197  0.08863968  0.55041859  1
  Se  Se129  1  0.74505567  0.41065849  0.06817842  1
  Se  Se130  1  0.75001109  0.41800150  0.55222846  1
  Se  Se131  1  0.74061684  0.74237709  0.05724673  1
  Se  Se132  1  0.74049474  0.75234995  0.54868704  1
  Se  Se133  1  0.25317383  0.24456370  0.05630086  1
  Se  Se134  1  0.25228950  0.25108006  0.55155724  1
  Se  Se135  1  0.24858525  0.58224570  0.04848849  1
  Se  Se136  1  0.25576834  0.59130963  0.55661507  1
  Se  Se137  1  0.25500598  0.91923930  0.06374465  1
  Se  Se138  1  0.23642775  0.91688527  0.54554097  1
  Se  Se139  1  0.58223865  0.24593150  0.05592472  1
  Se  Se140  1  0.58842550  0.26017886  0.55784660  1
  Se  Se141  1  0.58670802  0.58665171  0.05276598  1
  Se  Se142  1  0.59047465  0.59020765  0.56370793  1
  Se  Se143  1  0.59226996  0.92352431  0.06301209  1
  Se  Se144  1  0.58291953  0.92792296  0.55734613  1
  Se  Se145  1  0.91585187  0.25298105  0.05218025  1
  Se  Se146  1  0.91165404  0.24403728  0.54717514  1
  Se  Se147  1  0.92501863  0.58814801  0.06203220  1
  Se  Se148  1  0.91536592  0.58034548  0.55056986  1
  Se  Se149  1  0.92270589  0.92489047  0.06855016  1
  Se  Se150  1  0.91549107  0.91619843  0.54928907  1
  Se  Se151  1  0.07599596  0.25954939  0.43728410  1
  Se  Se152  1  0.08807286  0.24434067  0.95939497  1
  Se  Se153  1  0.07331214  0.58760188  0.43217180  1
  Se  Se154  1  0.08778352  0.58266185  0.94370949  1
  Se  Se155  1  0.08194007  0.92027607  0.44514478  1
  Se  Se156  1  0.07083634  0.92183170  0.94334098  1
  Se  Se157  1  0.41505065  0.24827392  0.43476251  1
  Se  Se158  1  0.42088705  0.24786130  0.95394075  1
  Se  Se159  1  0.40866687  0.59038024  0.43608716  1
  Se  Se160  1  0.44277753  0.57974331  0.95989320  1
  Se  Se161  1  0.42613025  0.90995447  0.44882892  1
  Se  Se162  1  0.41567303  0.92393661  0.94182767  1
  Se  Se163  1  0.75255655  0.24641008  0.44385763  1
  Se  Se164  1  0.74923732  0.24718817  0.94767514  1
  Se  Se165  1  0.74335953  0.57143567  0.45064629  1
  Se  Se166  1  0.74935932  0.58972827  0.94480643  1
  Se  Se167  1  0.75084389  0.91935881  0.44291327  1
  Se  Se168  1  0.74446306  0.92299071  0.94418684  1
  Se  Se169  1  0.26455166  0.07304524  0.44107928  1
  Se  Se170  1  0.24748796  0.08110780  0.95179541  1
  Se  Se171  1  0.24990071  0.41360595  0.43380251  1
  Se  Se172  1  0.25818667  0.41617578  0.95513158  1
  Se  Se173  1  0.24377773  0.75422958  0.44457766  1
  Se  Se174  1  0.26907201  0.74094630  0.94029165  1
  Se  Se175  1  0.58840601  0.07962585  0.43380530  1
  Se  Se176  1  0.57814631  0.08416485  0.94566807  1
  Se  Se177  1  0.58499366  0.40924710  0.43650537  1
  Se  Se178  1  0.59012059  0.41626822  0.95076391  1
  Se  Se179  1  0.59201566  0.74670422  0.44861043  1
  Se  Se180  1  0.59985620  0.75063225  0.94123173  1
  Se  Se181  1  0.91638442  0.08733864  0.44504127  1
  Se  Se182  1  0.90888727  0.08231178  0.95210239  1
  Se  Se183  1  0.90865525  0.42084673  0.44339274  1
  Se  Se184  1  0.92494724  0.40597186  0.93932118  1
  Se  Se185  1  0.91197568  0.75180037  0.44892163  1
  Se  Se186  1  0.92435677  0.74732030  0.93863301  1
  Se  Se187  1  0.25547611  0.25331978  0.29457150  1
  Se  Se188  1  0.24346089  0.24649593  0.81589642  1
  Se  Se189  1  0.24764931  0.58433897  0.29533260  1
  Se  Se190  1  0.25653600  0.57344078  0.81521281  1
  Se  Se191  1  0.25576042  0.91786759  0.30714483  1
  Se  Se192  1  0.22608086  0.90061343  0.80624818  1
  Se  Se193  1  0.58602287  0.25174822  0.29748092  1
  Se  Se194  1  0.58068948  0.25404279  0.80818922  1
  Se  Se195  1  0.57122551  0.57604975  0.30544307  1
  Se  Se196  1  0.58936671  0.58516886  0.81296913  1
  Se  Se197  1  0.58646732  0.91647790  0.30158739  1
  Se  Se198  1  0.57710317  0.91995934  0.79408130  1
  Se  Se199  1  0.91940442  0.25418520  0.30270371  1
  Se  Se200  1  0.90451449  0.23600970  0.80929419  1
  Se  Se201  1  0.89835122  0.58423883  0.31278519  1
  Se  Se202  1  0.92613942  0.58442758  0.79768438  1
  Se  Se203  1  0.91942910  0.92297940  0.30438235  1
  Se  Se204  1  0.90924407  0.90617297  0.81165076  1
  Se  Se205  1  0.09276153  0.08959294  0.30428910  1
  Se  Se206  1  0.07735850  0.09032574  0.81771006  1
  Se  Se207  1  0.08016959  0.41775221  0.29540791  1
  Se  Se208  1  0.09916358  0.41948277  0.81329866  1
  Se  Se209  1  0.08230675  0.75620039  0.31105709  1
  Se  Se210  1  0.09363909  0.74147504  0.79457943  1
  Se  Se211  1  0.42171644  0.08054565  0.30120191  1
  Se  Se212  1  0.40858030  0.08729135  0.80748479  1
  Se  Se213  1  0.40668939  0.40920842  0.29460189  1
  Se  Se214  1  0.42298531  0.42744752  0.81779641  1
  Se  Se215  1  0.41299847  0.74907316  0.30678118  1
  Se  Se216  1  0.42857504  0.75871216  0.80903671  1
  Se  Se217  1  0.75258986  0.08438306  0.30195058  1
  Se  Se218  1  0.73910205  0.07963327  0.80505248  1
  Se  Se219  1  0.74471857  0.41033932  0.30189509  1
  Se  Se220  1  0.75434226  0.41875522  0.80057265  1
  Se  Se221  1  0.74706431  0.74950228  0.30716366  1
  Se  Se222  1  0.75926731  0.75792867  0.80994731  1
  Se  Se223  1  0.25689091  0.08006572  0.19777254  1
  Se  Se224  1  0.24967454  0.07755083  0.70482755  1
  Se  Se225  1  0.24859527  0.41593389  0.18812576  1
  Se  Se226  1  0.25450678  0.41962522  0.68976702  1
  Se  Se227  1  0.24615813  0.75052167  0.19911812  1
  Se  Se228  1  0.26017964  0.75670674  0.67536575  1
  Se  Se229  1  0.59090563  0.07907113  0.19611844  1
  Se  Se230  1  0.57807852  0.08772873  0.69860479  1
  Se  Se231  1  0.58182926  0.41441002  0.19912458  1
  Se  Se232  1  0.58822991  0.41205027  0.70398023  1
  Se  Se233  1  0.57852200  0.74600829  0.19644791  1
  Se  Se234  1  0.57571382  0.76199146  0.69200029  1
  Se  Se235  1  0.92228889  0.08628618  0.19481171  1
  Se  Se236  1  0.90415607  0.08662412  0.68842790  1
  Se  Se237  1  0.91459375  0.41869867  0.19974022  1
  Se  Se238  1  0.91451212  0.41381841  0.68655099  1
  Se  Se239  1  0.90415547  0.75992325  0.19039776  1
  Se  Se240  1  0.91766398  0.74561487  0.68983842  1
  Se  Se241  1  0.08394299  0.25172003  0.19032024  1
  Se  Se242  1  0.08914855  0.24191535  0.69879671  1
  Se  Se243  1  0.08165714  0.58092849  0.18579619  1
  Se  Se244  1  0.08928338  0.57712923  0.69972411  1
  Se  Se245  1  0.08209580  0.92086989  0.20604522  1
  Se  Se246  1  0.08146423  0.90865198  0.68972602  1
  Se  Se247  1  0.41931601  0.24668510  0.19561736  1
  Se  Se248  1  0.42223395  0.24221432  0.68652873  1
  Se  Se249  1  0.40932025  0.58496559  0.19354474  1
  Se  Se250  1  0.42905642  0.57905494  0.69879533  1
  Se  Se251  1  0.41628819  0.91727618  0.20255431  1
  Se  Se252  1  0.39978871  0.91749183  0.69343230  1
  Se  Se253  1  0.74954629  0.24963757  0.19784461  1
  Se  Se254  1  0.74330976  0.25250204  0.69441255  1
  Se  Se255  1  0.73999696  0.58595801  0.20138674  1
  Se  Se256  1  0.76237664  0.57768936  0.68518148  1
  Se  Se257  1  0.74809943  0.91709369  0.20140136  1
  Se  Se258  1  0.74938232  0.91822722  0.69482952  1
