# generated using pymatgen
data_In86Cu29Se144
_symmetry_space_group_name_H-M   'P 1'
_cell_length_a   17.57008915
_cell_length_b   17.57374010
_cell_length_c   23.42902866
_cell_angle_alpha   90.03286725
_cell_angle_beta   90.00978165
_cell_angle_gamma   89.99059105
_symmetry_Int_Tables_number   1
_chemical_formula_structural   In86Cu29Se144
_chemical_formula_sum   'In86 Cu29 Se144'
_cell_volume   7234.23086422
_cell_formula_units_Z   1
loop_
 _symmetry_equiv_pos_site_id
 _symmetry_equiv_pos_as_xyz
  1  'x, y, z'
loop_
 _atom_site_type_symbol
 _atom_site_label
 _atom_site_symmetry_multiplicity
 _atom_site_fract_x
 _atom_site_fract_y
 _atom_site_fract_z
 _atom_site_occupancy
  In  In0  1  -0.01424075  0.15654216  0.11178073  1
  In  In1  1  -0.00263436  0.16786470  0.63861747  1
  In  In2  1  0.00499010  0.49073404  0.12226772  1
  In  In3  1  0.00105539  0.49676814  0.62493724  1
  In  In4  1  0.01130765  0.84808415  0.11932759  1
  In  In5  1  0.00043679  0.83351908  0.62216872  1
  In  In6  1  0.34434768  0.17676239  0.11288105  1
  In  In7  1  0.32111128  0.15780893  0.62819766  1
  In  In8  1  0.32344379  0.49106171  0.12346049  1
  In  In9  1  0.33423127  0.51490704  0.60679360  1
  In  In10  1  0.32598823  0.84172539  0.12515621  1
  In  In11  1  0.33028662  0.83163073  0.61862185  1
  In  In12  1  0.67501739  0.18262305  0.11303449  1
  In  In13  1  0.65553638  0.15978160  0.63026801  1
  In  In14  1  0.65900589  0.50712082  0.12929647  1
  In  In15  1  0.67478024  0.50481235  0.61524159  1
  In  In16  1  0.67085184  0.82020104  0.12685858  1
  In  In17  1  0.67342140  0.83109543  0.62420672  1
  In  In18  1  0.16037877  0.00394483  0.37280265  1
  In  In19  1  0.16374936  -0.00264695  0.87275720  1
  In  In20  1  0.17094258  0.33643271  0.37019320  1
  In  In21  1  0.15850207  0.34262230  0.87976305  1
  In  In22  1  0.15280675  0.67096180  0.39822365  1
  In  In23  1  0.16189672  0.67522853  0.87941841  1
  In  In24  1  0.48953474  -0.00040894  0.37844545  1
  In  In25  1  0.51051936  0.00288456  0.86642383  1
  In  In26  1  0.50531993  0.34885686  0.36167760  1
  In  In27  1  0.51404045  0.33161571  0.89231873  1
  In  In28  1  0.50843721  0.65367663  0.38567253  1
  In  In29  1  0.48961642  0.66693105  0.87318837  1
  In  In30  1  0.83786570  -0.01672391  0.38039308  1
  In  In31  1  0.83353580  -0.00055430  0.87494704  1
  In  In32  1  0.83070577  0.34604023  0.37253371  1
  In  In33  1  0.83375289  0.32573564  0.87718411  1
  In  In34  1  0.83302649  0.67760930  0.38719884  1
  In  In35  1  0.85484984  0.66222997  0.87064472  1
  In  In36  1  0.01459273  0.16159463  0.36926660  1
  In  In37  1  -0.00025845  0.16589268  0.87571515  1
  In  In38  1  -0.01760433  0.51248846  0.40324020  1
  In  In39  1  0.01062311  0.51588857  0.85756081  1
  In  In40  1  -0.00065063  0.83781551  0.38407117  1
  In  In41  1  -0.00088357  0.83329888  0.87247554  1
  In  In42  1  0.31868215  0.17428186  0.36693810  1
  In  In43  1  0.34184148  0.15849951  0.88284037  1
  In  In44  1  0.33749881  0.50158403  0.37900517  1
  In  In45  1  0.34051751  0.49529850  0.87890754  1
  In  In46  1  0.33099148  0.82844853  0.39306031  1
  In  In47  1  0.31997174  0.82670631  0.87148540  1
  In  In48  1  0.65340800  0.16778174  0.36745469  1
  In  In49  1  0.67603119  0.16245849  0.88682962  1
  In  In50  1  0.66618729  0.50377281  0.37313994  1
  In  In51  1  0.66599969  0.48359843  0.87868671  1
  In  In52  1  0.67784433  0.82016448  0.38266878  1
  In  In53  1  0.66687537  0.85024749  0.87157677  1
  In  In54  1  0.15162161  -0.00968704  0.11498448  1
  In  In55  1  0.17361533  -0.00909806  0.63560114  1
  In  In56  1  0.17406429  0.33898165  0.11821918  1
  In  In57  1  0.15688838  0.33836539  0.62807984  1
  In  In58  1  0.16979992  0.67069661  0.12057794  1
  In  In59  1  0.14239457  0.65238278  0.60072907  1
  In  In60  1  0.48930563  0.00585336  0.12198094  1
  In  In61  1  0.50921960  -0.02611983  0.64796696  1
  In  In62  1  0.49955422  0.33580854  0.12336732  1
  In  In63  1  0.49159679  0.33954935  0.62380691  1
  In  In64  1  0.51606323  0.67113066  0.13025185  1
  In  In65  1  0.50070525  0.67015511  0.61417627  1
  In  In66  1  0.84085742  0.00664398  0.11666463  1
  In  In67  1  0.84432400  -0.01317937  0.63934755  1
  In  In68  1  0.83688068  0.32388613  0.12413677  1
  In  In69  1  0.84721827  0.34599122  0.62036826  1
  In  In70  1  0.82546876  0.66763795  0.12537430  1
  In  In71  1  0.84560150  0.66554256  0.61716557  1
  In  In72  1  0.83557291  0.49965561  -0.00234383  1
  In  In73  1  0.49389670  0.16451124  0.49893103  1
  In  In74  1  0.32744936  0.67382735  0.73907235  1
  In  In75  1  -0.00148621  0.67212810  0.26426077  1
  In  In76  1  0.16488419  0.16921803  0.49827581  1
  In  In77  1  0.33048412  0.66621904  0.25665266  1
  In  In78  1  0.49699666  0.83366293  0.00238754  1
  In  In79  1  0.66956307  0.00097906  0.24623861  1
  In  In80  1  0.32974245  0.00513498  0.24901498  1
  In  In81  1  0.32969941  0.33187527  0.74860946  1
  In  In82  1  0.00306563  0.33239508  0.25181998  1
  In  In83  1  0.83164801  0.16744949  0.50981337  1
  In  In84  1  0.67376243  0.66567989  0.73932291  1
  In  In85  1  0.67684472  0.32687318  0.75600568  1
  Cu  Cu86  1  0.49843699  0.15492945  0.75623995  1
  Cu  Cu87  1  0.00140061  0.00019432  0.50443864  1
  Cu  Cu88  1  0.66844477  0.00398707  -0.00198775  1
  Cu  Cu89  1  0.00697748  0.66939537  -0.00640432  1
  Cu  Cu90  1  0.66758229  -0.01370325  0.50638618  1
  Cu  Cu91  1  0.33129163  0.33623557  -0.00035269  1
  Cu  Cu92  1  0.00388656  0.33287313  -0.00243901  1
  Cu  Cu93  1  0.66503173  0.33788616  0.49231665  1
  Cu  Cu94  1  0.49600601  0.50053475  0.25220262  1
  Cu  Cu95  1  0.16047627  0.50290183  0.25376773  1
  Cu  Cu96  1  0.83036557  0.16407978  0.75735919  1
  Cu  Cu97  1  0.33217306  0.65730897  0.00021352  1
  Cu  Cu98  1  0.16638478  0.16684101  0.23851844  1
  Cu  Cu99  1  0.16406941  0.16362497  0.75617455  1
  Cu  Cu100  1  0.49977569  0.18210437  0.23997519  1
  Cu  Cu101  1  0.15528427  0.82948481  0.74828529  1
  Cu  Cu102  1  0.66956585  0.66797369  0.00230547  1
  Cu  Cu103  1  0.83280825  0.16241190  0.24159044  1
  Cu  Cu104  1  0.83353691  0.83328249  0.74875896  1
  Cu  Cu105  1  0.50575515  0.49794537  0.75012570  1
  Cu  Cu106  1  0.66483759  0.66365545  0.50056592  1
  Cu  Cu107  1  0.33669689  -0.00649475  0.50902548  1
  Cu  Cu108  1  0.84367310  0.83188621  0.25665340  1
  Cu  Cu109  1  0.50632044  0.82829831  0.25803322  1
  Cu  Cu110  1  0.32670933  -0.00217551  -0.00272690  1
  Cu  Cu111  1  0.82039516  0.50377814  0.25193005  1
  Cu  Cu112  1  0.16870526  0.50844108  0.74608348  1
  Cu  Cu113  1  0.33707894  0.33948341  0.49498117  1
  Cu  Cu114  1  -0.00172187  -0.00181311  -0.00839575  1
  Se  Se115  1  0.08071406  0.08298827  0.04678608  1
  Se  Se116  1  0.08046512  0.08151477  0.56458353  1
  Se  Se117  1  0.08679965  0.41894526  0.04915661  1
  Se  Se118  1  0.09866637  0.42828002  0.55492658  1
  Se  Se119  1  0.08484044  0.75191132  0.05351402  1
  Se  Se120  1  0.06630874  0.75245036  0.54267988  1
  Se  Se121  1  0.41573891  0.08078104  0.04578850  1
  Se  Se122  1  0.41709893  0.07488427  0.56722986  1
  Se  Se123  1  0.41436416  0.41959797  0.05471578  1
  Se  Se124  1  0.42093831  0.42068717  0.54953168  1
  Se  Se125  1  0.40855982  0.74041163  0.06377524  1
  Se  Se126  1  0.41367208  0.75094665  0.55099941  1
  Se  Se127  1  0.75311774  0.08782556  0.05089633  1
  Se  Se128  1  0.74361256  0.07097952  0.56547914  1
  Se  Se129  1  0.74807970  0.41691670  0.06315000  1
  Se  Se130  1  0.75114797  0.41100802  0.55124599  1
  Se  Se131  1  0.75499156  0.75307208  0.05074053  1
  Se  Se132  1  0.75001021  0.74502541  0.55498847  1
  Se  Se133  1  0.24666558  0.24885475  0.04871229  1
  Se  Se134  1  0.25966127  0.25894960  0.55779244  1
  Se  Se135  1  0.24532265  0.57920672  0.05502209  1
  Se  Se136  1  0.26333042  0.61131545  0.54397564  1
  Se  Se137  1  0.24608931  0.91206619  0.04994246  1
  Se  Se138  1  0.24023907  0.91694424  0.55399747  1
  Se  Se139  1  0.56600038  0.24000894  0.05502740  1
  Se  Se140  1  0.58893272  0.25717395  0.55633033  1
  Se  Se141  1  0.58290533  0.58793921  0.05402154  1
  Se  Se142  1  0.58050437  0.57779848  0.55072014  1
  Se  Se143  1  0.59194819  0.92331038  0.06233046  1
  Se  Se144  1  0.57851253  0.91206286  0.56128978  1
  Se  Se145  1  0.91288929  0.25244948  0.04624614  1
  Se  Se146  1  0.93531866  0.25340475  0.55687524  1
  Se  Se147  1  0.92721886  0.59191226  0.05862878  1
  Se  Se148  1  0.91118908  0.56646177  0.55295203  1
  Se  Se149  1  0.91727602  0.91571568  0.04998133  1
  Se  Se150  1  0.91281891  0.92015452  0.55569274  1
  Se  Se151  1  0.07457931  0.26079033  0.44029136  1
  Se  Se152  1  0.08595147  0.24721283  0.94492176  1
  Se  Se153  1  0.09381917  0.56482976  0.46084376  1
  Se  Se154  1  0.08425503  0.57890663  0.94185915  1
  Se  Se155  1  0.08819866  0.92389626  0.44777168  1
  Se  Se156  1  0.08419379  0.91214593  0.94308320  1
  Se  Se157  1  0.41159425  0.25580915  0.43370337  1
  Se  Se158  1  0.41618863  0.25126234  0.94894551  1
  Se  Se159  1  0.41296655  0.58439270  0.44962472  1
  Se  Se160  1  0.42129982  0.58171210  0.94673609  1
  Se  Se161  1  0.42203861  0.91567816  0.45247336  1
  Se  Se162  1  0.41012277  0.91803486  0.93693373  1
  Se  Se163  1  0.74157879  0.24698407  0.43905576  1
  Se  Se164  1  0.73221082  0.27344331  0.94497083  1
  Se  Se165  1  0.74908409  0.58256010  0.44496921  1
  Se  Se166  1  0.74670311  0.59175232  0.93640021  1
  Se  Se167  1  0.75509798  0.90864307  0.45200157  1
  Se  Se168  1  0.75047333  0.91745234  0.94694743  1
  Se  Se169  1  0.26298797  0.07680954  0.44367344  1
  Se  Se170  1  0.24430091  0.08174581  0.94375887  1
  Se  Se171  1  0.24791132  0.41671299  0.44280734  1
  Se  Se172  1  0.24956336  0.42077793  0.94551095  1
  Se  Se173  1  0.25582610  0.73921249  0.45942662  1
  Se  Se174  1  0.25244723  0.74707104  0.94955244  1
  Se  Se175  1  0.59361470  0.07202764  0.44524724  1
  Se  Se176  1  0.57842362  0.08090113  0.94546509  1
  Se  Se177  1  0.57936867  0.41966247  0.44106011  1
  Se  Se178  1  0.57890603  0.43103513  0.95616902  1
  Se  Se179  1  0.58245058  0.75144317  0.44927541  1
  Se  Se180  1  0.58843445  0.74688727  0.93933243  1
  Se  Se181  1  0.92384325  0.08245718  0.44277493  1
  Se  Se182  1  0.91272890  0.08589438  0.94436604  1
  Se  Se183  1  0.90962619  0.40453260  0.45215592  1
  Se  Se184  1  0.92935632  0.41788977  0.93531371  1
  Se  Se185  1  0.93762971  0.73773699  0.45088349  1
  Se  Se186  1  0.91759008  0.75055027  0.94495992  1
  Se  Se187  1  0.24280127  0.25397378  0.29405257  1
  Se  Se188  1  0.24651809  0.24538071  0.81465102  1
  Se  Se189  1  0.23373359  0.58489309  0.31728902  1
  Se  Se190  1  0.25196307  0.58124936  0.80920301  1
  Se  Se191  1  0.25373305  0.91113158  0.31452038  1
  Se  Se192  1  0.24197543  0.91001390  0.80165601  1
  Se  Se193  1  0.58599962  0.25762399  0.29707873  1
  Se  Se194  1  0.57724934  0.24254972  0.81198178  1
  Se  Se195  1  0.58049622  0.58553775  0.30362831  1
  Se  Se196  1  0.58414990  0.57978621  0.80890995  1
  Se  Se197  1  0.58381806  0.91575772  0.31446041  1
  Se  Se198  1  0.57542116  0.90721607  0.79853568  1
  Se  Se199  1  0.90894843  0.24028683  0.30934145  1
  Se  Se200  1  0.91629980  0.24948424  0.80552022  1
  Se  Se201  1  0.90617348  0.57441745  0.31468403  1
  Se  Se202  1  0.91930629  0.58774890  0.79092018  1
  Se  Se203  1  0.92605528  0.91791201  0.30671714  1
  Se  Se204  1  0.91512217  0.91697272  0.80476377  1
  Se  Se205  1  0.08825325  0.08192851  0.29483288  1
  Se  Se206  1  0.07765661  0.07972433  0.80538800  1
  Se  Se207  1  0.07411186  0.43152935  0.31620353  1
  Se  Se208  1  0.09143304  0.41805827  0.79873403  1
  Se  Se209  1  0.09731033  0.75911104  0.31589480  1
  Se  Se210  1  0.07817613  0.74317598  0.80404625  1
  Se  Se211  1  0.42635072  0.09881004  0.30497089  1
  Se  Se212  1  0.40825878  0.07595262  0.80556317  1
  Se  Se213  1  0.40427318  0.41986639  0.29986269  1
  Se  Se214  1  0.43017836  0.41226994  0.80876453  1
  Se  Se215  1  0.42163894  0.75446777  0.31735484  1
  Se  Se216  1  0.42113010  0.75906008  0.80156956  1
  Se  Se217  1  0.76037799  0.08548487  0.31187685  1
  Se  Se218  1  0.74418513  0.08280670  0.80862668  1
  Se  Se219  1  0.74102144  0.41401338  0.30168014  1
  Se  Se220  1  0.76525896  0.42734664  0.80605009  1
  Se  Se221  1  0.75777051  0.74809166  0.30658808  1
  Se  Se222  1  0.75480677  0.75214885  0.81019726  1
  Se  Se223  1  0.24810926  0.08781564  0.17865575  1
  Se  Se224  1  0.24931181  0.08104113  0.70436206  1
  Se  Se225  1  0.23992813  0.41943558  0.19817195  1
  Se  Se226  1  0.25486098  0.43323363  0.68642036  1
  Se  Se227  1  0.24265625  0.75887132  0.19641896  1
  Se  Se228  1  0.22701965  0.75049053  0.68062144  1
  Se  Se229  1  0.57863728  0.09119061  0.18730304  1
  Se  Se230  1  0.58719030  0.07598317  0.70429730  1
  Se  Se231  1  0.57899066  0.41906419  0.19541966  1
  Se  Se232  1  0.58670620  0.41710203  0.69102288  1
  Se  Se233  1  0.59234583  0.74942458  0.20474487  1
  Se  Se234  1  0.57289987  0.75396357  0.69127235  1
  Se  Se235  1  0.92000985  0.07984748  0.19327496  1
  Se  Se236  1  0.91705755  0.08124538  0.70471371  1
  Se  Se237  1  0.90715591  0.42587465  0.19462280  1
  Se  Se238  1  0.93103042  0.40591447  0.69681154  1
  Se  Se239  1  0.91855610  0.75368611  0.19030435  1
  Se  Se240  1  0.91449677  0.75176563  0.69169788  1
  Se  Se241  1  0.08040697  0.24539401  0.18094045  1
  Se  Se242  1  0.08830165  0.25112165  0.70071531  1
  Se  Se243  1  0.08233705  0.58361848  0.19333035  1
  Se  Se244  1  0.08521238  0.58804825  0.69021433  1
  Se  Se245  1  0.08951240  0.91580737  0.19710398  1
  Se  Se246  1  0.07396115  0.91823631  0.69668943  1
  Se  Se247  1  0.40688521  0.25895808  0.19217331  1
  Se  Se248  1  0.42509646  0.23747417  0.69244555  1
  Se  Se249  1  0.41844561  0.58236674  0.19006537  1
  Se  Se250  1  0.42481896  0.57583658  0.68935707  1
  Se  Se251  1  0.42745058  0.90761262  0.19674324  1
  Se  Se252  1  0.38915765  0.92153187  0.69499627  1
  Se  Se253  1  0.74930942  0.25052040  0.19528356  1
  Se  Se254  1  0.76029233  0.24113812  0.68611089  1
  Se  Se255  1  0.74439288  0.59049187  0.19683286  1
  Se  Se256  1  0.76522738  0.57006024  0.68949383  1
  Se  Se257  1  0.76312219  0.90879688  0.19148668  1
  Se  Se258  1  0.74316609  0.91497734  0.70046179  1
