# generated using pymatgen
data_In86Cu29Se144
_symmetry_space_group_name_H-M   'P 1'
_cell_length_a   17.68885384
_cell_length_b   17.67906660
_cell_length_c   23.55311359
_cell_angle_alpha   89.98475118
_cell_angle_beta   89.97749263
_cell_angle_gamma   90.01959454
_symmetry_Int_Tables_number   1
_chemical_formula_structural   In86Cu29Se144
_chemical_formula_sum   'In86 Cu29 Se144'
_cell_volume   7365.58554459
_cell_formula_units_Z   1
loop_
 _symmetry_equiv_pos_site_id
 _symmetry_equiv_pos_as_xyz
  1  'x, y, z'
loop_
 _atom_site_type_symbol
 _atom_site_label
 _atom_site_symmetry_multiplicity
 _atom_site_fract_x
 _atom_site_fract_y
 _atom_site_fract_z
 _atom_site_occupancy
  In  In0  1  -0.00158863  0.15935362  0.12624048  1
  In  In1  1  -0.00100404  0.16493174  0.62660643  1
  In  In2  1  -0.00531625  0.47860385  0.12315451  1
  In  In3  1  -0.01128078  0.48804101  0.63260609  1
  In  In4  1  0.00292288  0.84785571  0.12935254  1
  In  In5  1  0.00950380  0.84860895  0.61814391  1
  In  In6  1  0.32566986  0.15601432  0.12324615  1
  In  In7  1  0.32559548  0.17286869  0.62989532  1
  In  In8  1  0.33059363  0.50953887  0.11545609  1
  In  In9  1  0.33199574  0.49860743  0.63452708  1
  In  In10  1  0.35482199  0.85084159  0.12338147  1
  In  In11  1  0.33298399  0.83717711  0.62788129  1
  In  In12  1  0.61248496  0.11992863  0.06201317  1
  In  In13  1  0.68400748  0.14474275  0.63697997  1
  In  In14  1  0.66489394  0.48845097  0.11849614  1
  In  In15  1  0.67847049  0.49831345  0.64510359  1
  In  In16  1  0.66633634  0.84507785  0.12131046  1
  In  In17  1  0.66861383  0.84128653  0.62110417  1
  In  In18  1  0.16352852  0.00386350  0.37850045  1
  In  In19  1  0.17820728  0.01293091  0.87060374  1
  In  In20  1  0.15006157  0.32876978  0.37102557  1
  In  In21  1  0.16722443  0.32761502  0.88100880  1
  In  In22  1  0.17884721  0.67299004  0.37760805  1
  In  In23  1  0.16616066  0.65640097  0.87091903  1
  In  In24  1  0.49090148  -0.00880825  0.36871326  1
  In  In25  1  0.50256016  0.00597015  0.88082944  1
  In  In26  1  0.51249283  0.32779094  0.37754353  1
  In  In27  1  0.49801666  0.32766422  0.87001561  1
  In  In28  1  0.51842506  0.68103658  0.37242678  1
  In  In29  1  0.51085846  0.67967212  0.86511678  1
  In  In30  1  0.83242110  0.00161281  0.37416052  1
  In  In31  1  0.82603817  -0.00859225  0.86827548  1
  In  In32  1  0.83472888  0.31593017  0.37741361  1
  In  In33  1  0.83995419  0.33750376  0.86204493  1
  In  In34  1  0.83786526  0.67574308  0.37453869  1
  In  In35  1  0.83054306  0.68531040  0.87228454  1
  In  In36  1  -0.00091174  0.16572188  0.37486627  1
  In  In37  1  0.01650085  0.17580641  0.87359767  1
  In  In38  1  0.00887011  0.48911845  0.37085681  1
  In  In39  1  0.01289185  0.49699328  0.87657779  1
  In  In40  1  -0.01962854  0.85523341  0.39035228  1
  In  In41  1  -0.01569886  0.83763360  0.87564990  1
  In  In42  1  0.33752542  0.14331706  0.37237258  1
  In  In43  1  0.33556403  0.16840964  0.87970383  1
  In  In44  1  0.33798392  0.50262134  0.37487683  1
  In  In45  1  0.32525350  0.48965037  0.86551056  1
  In  In46  1  0.32740868  0.84534754  0.38347154  1
  In  In47  1  0.34893744  0.85212777  0.86475975  1
  In  In48  1  0.67876863  0.16541523  0.37762408  1
  In  In49  1  0.66059039  0.16171642  0.87177447  1
  In  In50  1  0.66247094  0.49457676  0.38019465  1
  In  In51  1  0.66947363  0.49773660  0.86094720  1
  In  In52  1  0.64336171  0.87391705  0.42027101  1
  In  In53  1  0.66410571  0.83887211  0.87531647  1
  In  In54  1  0.15389460  0.00567102  0.13291328  1
  In  In55  1  0.16566487  0.00411185  0.62744306  1
  In  In56  1  0.14398897  0.30921023  0.09886101  1
  In  In57  1  0.16979423  0.32406516  0.63096562  1
  In  In58  1  0.17866426  0.66625958  0.12075128  1
  In  In59  1  0.16752663  0.68110334  0.62788787  1
  In  In60  1  0.49445006  -0.00471987  0.13307139  1
  In  In61  1  0.50946949  -0.01161449  0.62557063  1
  In  In62  1  0.50180975  0.30585424  0.11489667  1
  In  In63  1  0.49828162  0.33225704  0.63581491  1
  In  In64  1  0.49699173  0.67608843  0.12111078  1
  In  In65  1  0.49454818  0.67732885  0.63343420  1
  In  In66  1  0.83789007  -0.00306293  0.12883801  1
  In  In67  1  0.82915154  0.00665008  0.62156580  1
  In  In68  1  0.83228406  0.32082900  0.12420786  1
  In  In69  1  0.84762519  0.32029656  0.64354839  1
  In  In70  1  0.82125078  0.66865161  0.12138426  1
  In  In71  1  0.82299986  0.67040236  0.63011723  1
  In  In72  1  0.49426009  0.51128025  0.51746181  1
  In  In73  1  0.00220988  0.66795018  0.25482984  1
  In  In74  1  0.67163276  0.31397983  0.24051244  1
  In  In75  1  0.67073979  0.67318681  0.24546424  1
  In  In76  1  0.82875692  0.50254057  0.51080843  1
  In  In77  1  0.16612064  0.83242920  -0.00131786  1
  In  In78  1  0.83815297  0.50337811  -0.01439517  1
  In  In79  1  0.49579652  0.50286471  -0.01719405  1
  In  In80  1  0.49811123  0.16639717  0.50073988  1
  In  In81  1  0.83558955  0.16475832  -0.01222734  1
  In  In82  1  0.16928540  0.50229928  0.50573620  1
  In  In83  1  -0.00054683  0.66594769  0.74827631  1
  In  In84  1  0.32695791  0.32870841  0.23620962  1
  In  In85  1  0.33217653  0.67031571  0.24924295  1
  Cu  Cu86  1  0.66786142  0.67235539  0.50767841  1
  Cu  Cu87  1  0.16848126  0.83592211  0.74749139  1
  Cu  Cu88  1  0.83384105  0.16011409  0.75336679  1
  Cu  Cu89  1  0.49969401  0.49017717  0.24938094  1
  Cu  Cu90  1  0.00030272  0.00112038  0.00313848  1
  Cu  Cu91  1  -0.00661836  0.32734625  0.50137735  1
  Cu  Cu92  1  0.83372731  0.83864443  0.25310076  1
  Cu  Cu93  1  0.66613183  0.33045479  0.50982672  1
  Cu  Cu94  1  0.49446790  0.16154469  0.75163901  1
  Cu  Cu95  1  0.34230772  0.67807480  0.50152778  1
  Cu  Cu96  1  0.16724206  0.49246643  0.75263638  1
  Cu  Cu97  1  0.00628525  0.67237381  0.50262810  1
  Cu  Cu98  1  0.16521514  0.16927350  0.75125333  1
  Cu  Cu99  1  0.16914958  0.83711014  0.25631007  1
  Cu  Cu100  1  0.32884021  0.67170600  -0.00725590  1
  Cu  Cu101  1  -0.00235550  0.01023861  0.50056122  1
  Cu  Cu102  1  0.32317065  0.32647192  0.50067792  1
  Cu  Cu103  1  0.83747750  0.15902709  0.25087429  1
  Cu  Cu104  1  0.33950092  0.33619307  -0.00662125  1
  Cu  Cu105  1  0.50454440  0.84114796  0.74847593  1
  Cu  Cu106  1  0.32929046  -0.00150661  0.50360006  1
  Cu  Cu107  1  0.49811870  0.50445445  0.75294661  1
  Cu  Cu108  1  0.82964927  0.83994692  0.74759442  1
  Cu  Cu109  1  0.16077884  0.49307830  0.24218138  1
  Cu  Cu110  1  0.33234017  0.00270394  -0.00246739  1
  Cu  Cu111  1  0.65873010  0.67584084  -0.00281387  1
  Cu  Cu112  1  0.83315597  0.48570608  0.24969222  1
  Cu  Cu113  1  -0.00301213  0.66635268  -0.00529363  1
  Cu  Cu114  1  0.16249536  0.16964218  0.24896405  1
  Se  Se115  1  0.08445247  0.08336335  0.05494346  1
  Se  Se116  1  0.08383184  0.08612389  0.55706611  1
  Se  Se117  1  0.09207299  0.42967718  0.05225510  1
  Se  Se118  1  0.07466431  0.41060175  0.55867927  1
  Se  Se119  1  0.07400586  0.74380752  0.06102696  1
  Se  Se120  1  0.08905417  0.75517861  0.55442816  1
  Se  Se121  1  0.41545714  0.07878182  0.05737191  1
  Se  Se122  1  0.40987479  0.07960242  0.56333231  1
  Se  Se123  1  0.41952907  0.41444305  0.05688961  1
  Se  Se124  1  0.40360242  0.40664587  0.55960234  1
  Se  Se125  1  0.40794940  0.74899040  0.05321602  1
  Se  Se126  1  0.42156128  0.75767161  0.55889052  1
  Se  Se127  1  0.75730467  0.06942186  0.04924168  1
  Se  Se128  1  0.74509323  0.08371977  0.55079128  1
  Se  Se129  1  0.75437931  0.41268642  0.05148019  1
  Se  Se130  1  0.74799551  0.40638312  0.56974512  1
  Se  Se131  1  0.74303859  0.75204596  0.05475589  1
  Se  Se132  1  0.75532647  0.75386623  0.55619647  1
  Se  Se133  1  0.26369596  0.25344379  0.05323885  1
  Se  Se134  1  0.24250654  0.24536206  0.55476630  1
  Se  Se135  1  0.24837857  0.58645941  0.04432333  1
  Se  Se136  1  0.26312750  0.59381639  0.55940040  1
  Se  Se137  1  0.25053722  0.92431048  0.06023486  1
  Se  Se138  1  0.24752046  0.91772348  0.55981824  1
  Se  Se139  1  0.61229975  0.26656280  0.05292052  1
  Se  Se140  1  0.58443799  0.25047501  0.56682960  1
  Se  Se141  1  0.58509408  0.58676981  0.05484196  1
  Se  Se142  1  0.59781814  0.58863366  0.57127166  1
  Se  Se143  1  0.55978863  0.90233572  0.06130569  1
  Se  Se144  1  0.58877430  0.92093853  0.54844030  1
  Se  Se145  1  0.92373406  0.24997635  0.05261779  1
  Se  Se146  1  0.91256729  0.25027049  0.56003194  1
  Se  Se147  1  0.91974902  0.58713535  0.05971481  1
  Se  Se148  1  0.92773986  0.59209729  0.56327880  1
  Se  Se149  1  0.91964497  0.91686415  0.05630543  1
  Se  Se150  1  0.91733905  0.92459282  0.55447362  1
  Se  Se151  1  0.07966812  0.25030576  0.44613597  1
  Se  Se152  1  0.08869402  0.24667336  0.95226187  1
  Se  Se153  1  0.07820183  0.58827319  0.44061308  1
  Se  Se154  1  0.08478572  0.58641958  0.94631742  1
  Se  Se155  1  0.08216601  0.92293143  0.45035365  1
  Se  Se156  1  0.08009598  0.92352219  0.93809291  1
  Se  Se157  1  0.40733965  0.25606860  0.43769756  1
  Se  Se158  1  0.42420700  0.25014975  0.94641196  1
  Se  Se159  1  0.41795068  0.59386241  0.44098603  1
  Se  Se160  1  0.40651559  0.59584036  0.92845394  1
  Se  Se161  1  0.41687836  0.92197748  0.44980292  1
  Se  Se162  1  0.41738279  0.92008404  0.94723434  1
  Se  Se163  1  0.74677875  0.25230436  0.45122824  1
  Se  Se164  1  0.74868841  0.25820410  0.93080328  1
  Se  Se165  1  0.74081367  0.59051106  0.44376739  1
  Se  Se166  1  0.73867343  0.59484510  0.93714287  1
  Se  Se167  1  0.78086610  0.89931075  0.44447271  1
  Se  Se168  1  0.76555190  0.90066307  0.94077376  1
  Se  Se169  1  0.25121837  0.08316891  0.44771175  1
  Se  Se170  1  0.24874668  0.08801159  0.94878038  1
  Se  Se171  1  0.25240369  0.41229654  0.43876371  1
  Se  Se172  1  0.25292994  0.41832024  0.94446041  1
  Se  Se173  1  0.25128534  0.75324524  0.45026116  1
  Se  Se174  1  0.25394714  0.75321770  0.93082448  1
  Se  Se175  1  0.58209128  0.08085624  0.43640069  1
  Se  Se176  1  0.59000186  0.08263554  0.95015031  1
  Se  Se177  1  0.58351819  0.41414302  0.45612019  1
  Se  Se178  1  0.59349654  0.41275905  0.93505469  1
  Se  Se179  1  0.57848525  0.74958662  0.45719932  1
  Se  Se180  1  0.57609998  0.75761158  0.94415907  1
  Se  Se181  1  0.91370086  0.08730859  0.44329591  1
  Se  Se182  1  0.92810822  0.07321992  0.93286775  1
  Se  Se183  1  0.91779424  0.41564873  0.44423570  1
  Se  Se184  1  0.92894324  0.40350711  0.94033117  1
  Se  Se185  1  0.91734763  0.74680328  0.44908322  1
  Se  Se186  1  0.91298075  0.75281257  0.94864710  1
  Se  Se187  1  0.24696078  0.24498209  0.30938546  1
  Se  Se188  1  0.24902176  0.24710320  0.81013224  1
  Se  Se189  1  0.23949098  0.57133676  0.30433160  1
  Se  Se190  1  0.24923258  0.58227717  0.79920773  1
  Se  Se191  1  0.24894096  0.92163383  0.31011191  1
  Se  Se192  1  0.24901805  0.92047685  0.80236494  1
  Se  Se193  1  0.57844413  0.23573933  0.30723282  1
  Se  Se194  1  0.58080924  0.24489275  0.80228878  1
  Se  Se195  1  0.58003252  0.57309704  0.30492766  1
  Se  Se196  1  0.58587846  0.58778729  0.79999663  1
  Se  Se197  1  0.58925626  0.90162397  0.32138299  1
  Se  Se198  1  0.57995474  0.92262434  0.80899733  1
  Se  Se199  1  0.91646225  0.24754238  0.30320426  1
  Se  Se200  1  0.92036700  0.24155993  0.80431043  1
  Se  Se201  1  0.90758511  0.57054703  0.30914422  1
  Se  Se202  1  0.91610582  0.58380986  0.81637635  1
  Se  Se203  1  0.91943772  0.92058568  0.30420114  1
  Se  Se204  1  0.91838031  0.91875844  0.79904563  1
  Se  Se205  1  0.08439707  0.08602575  0.30659677  1
  Se  Se206  1  0.08463384  0.08322744  0.80367103  1
  Se  Se207  1  0.07946285  0.40993807  0.29535219  1
  Se  Se208  1  0.08712154  0.41040161  0.80769386  1
  Se  Se209  1  0.08799594  0.75844620  0.31585512  1
  Se  Se210  1  0.08641655  0.75850097  0.80968013  1
  Se  Se211  1  0.41970751  0.07911887  0.29814891  1
  Se  Se212  1  0.41594799  0.08271647  0.81170305  1
  Se  Se213  1  0.42074009  0.41202677  0.30906293  1
  Se  Se214  1  0.41868057  0.41416673  0.80230511  1
  Se  Se215  1  0.41762901  0.75568869  0.31320874  1
  Se  Se216  1  0.41894100  0.75603791  0.79943704  1
  Se  Se217  1  0.74931434  0.08197969  0.30391743  1
  Se  Se218  1  0.74610462  0.08063837  0.80476430  1
  Se  Se219  1  0.74790310  0.41291318  0.31094754  1
  Se  Se220  1  0.75876574  0.42189670  0.79676117  1
  Se  Se221  1  0.75216048  0.75950171  0.31079794  1
  Se  Se222  1  0.74581447  0.75817826  0.80149902  1
  Se  Se223  1  0.24445565  0.08409460  0.19745183  1
  Se  Se224  1  0.24812000  0.08562034  0.69767573  1
  Se  Se225  1  0.24235090  0.42267056  0.17929381  1
  Se  Se226  1  0.24974806  0.41100292  0.69725661  1
  Se  Se227  1  0.24622112  0.76417573  0.18992515  1
  Se  Se228  1  0.25329326  0.75122166  0.69890695  1
  Se  Se229  1  0.59547274  0.09166262  0.16879703  1
  Se  Se230  1  0.57705049  0.08141027  0.69554132  1
  Se  Se231  1  0.57525077  0.41089542  0.18831477  1
  Se  Se232  1  0.58011811  0.41844032  0.70100011  1
  Se  Se233  1  0.57269379  0.75870162  0.19330066  1
  Se  Se234  1  0.58682559  0.75947491  0.69285260  1
  Se  Se235  1  0.92266131  0.07646958  0.19777976  1
  Se  Se236  1  0.91443901  0.08173294  0.69373067  1
  Se  Se237  1  0.91247961  0.40363985  0.19464136  1
  Se  Se238  1  0.91331084  0.41890907  0.70848376  1
  Se  Se239  1  0.90844579  0.75192885  0.19227024  1
  Se  Se240  1  0.91586746  0.76274975  0.68907323  1
  Se  Se241  1  0.08454890  0.24920318  0.18888925  1
  Se  Se242  1  0.07959945  0.24907970  0.69690772  1
  Se  Se243  1  0.08511617  0.58246732  0.18652148  1
  Se  Se244  1  0.09179733  0.57412272  0.68873008  1
  Se  Se245  1  0.08162622  0.91772473  0.20440951  1
  Se  Se246  1  0.08368597  0.91900742  0.69694647  1
  Se  Se247  1  0.42409197  0.23360400  0.19280186  1
  Se  Se248  1  0.41269821  0.24833864  0.69946574  1
  Se  Se249  1  0.42461926  0.57603157  0.19197237  1
  Se  Se250  1  0.41586060  0.58522471  0.69718692  1
  Se  Se251  1  0.40531706  0.92755998  0.20677555  1
  Se  Se252  1  0.41691144  0.92055719  0.69527546  1
  Se  Se253  1  0.75487679  0.22165775  0.18209116  1
  Se  Se254  1  0.74789461  0.24484155  0.70221205  1
  Se  Se255  1  0.75419007  0.56696306  0.19174315  1
  Se  Se256  1  0.76219224  0.58633236  0.70533699  1
  Se  Se257  1  0.75008052  0.91599251  0.19533235  1
  Se  Se258  1  0.74831877  0.92290351  0.69218601  1
