# generated using pymatgen
data_In86Cu29Se144
_symmetry_space_group_name_H-M   'P 1'
_cell_length_a   17.58293399
_cell_length_b   17.58131847
_cell_length_c   23.44464603
_cell_angle_alpha   89.99684400
_cell_angle_beta   90.00020615
_cell_angle_gamma   90.00667255
_symmetry_Int_Tables_number   1
_chemical_formula_structural   In86Cu29Se144
_chemical_formula_sum   'In86 Cu29 Se144'
_cell_volume   7247.47061529
_cell_formula_units_Z   1
loop_
 _symmetry_equiv_pos_site_id
 _symmetry_equiv_pos_as_xyz
  1  'x, y, z'
loop_
 _atom_site_type_symbol
 _atom_site_label
 _atom_site_symmetry_multiplicity
 _atom_site_fract_x
 _atom_site_fract_y
 _atom_site_fract_z
 _atom_site_occupancy
  In  In0  1  -0.00185946  0.19972415  0.12320684  1
  In  In1  1  -0.00328587  0.18261493  0.62757906  1
  In  In2  1  0.00363223  0.49750134  0.13927260  1
  In  In3  1  0.00769184  0.49281371  0.62765928  1
  In  In4  1  -0.00341736  0.81446099  0.13387298  1
  In  In5  1  -0.01026008  0.82318276  0.61536289  1
  In  In6  1  0.32262220  0.16277969  0.12954770  1
  In  In7  1  0.31699296  0.15611345  0.63340150  1
  In  In8  1  0.33516197  0.51002236  0.11854669  1
  In  In9  1  0.34423128  0.51691057  0.62107362  1
  In  In10  1  0.33872960  0.82209699  0.13285537  1
  In  In11  1  0.33489740  0.82891654  0.62248261  1
  In  In12  1  0.66594089  0.15208303  0.12414998  1
  In  In13  1  0.67376856  0.16007790  0.62874652  1
  In  In14  1  0.66109879  0.51424440  0.12736831  1
  In  In15  1  0.64294702  0.50133124  0.62888446  1
  In  In16  1  0.66290519  0.84282449  0.13598396  1
  In  In17  1  0.67296944  0.83254720  0.61251176  1
  In  In18  1  0.16242579  -0.01253103  0.37828012  1
  In  In19  1  0.17452885  -0.01092046  0.87125931  1
  In  In20  1  0.16679227  0.35114317  0.37045275  1
  In  In21  1  0.17054263  0.34558879  0.87366938  1
  In  In22  1  0.17360064  0.66365365  0.37407367  1
  In  In23  1  0.16203432  0.65496331  0.86755995  1
  In  In24  1  0.49232957  -0.02072420  0.37063339  1
  In  In25  1  0.49500601  -0.01126825  0.86636999  1
  In  In26  1  0.50889880  0.34380875  0.37729811  1
  In  In27  1  0.50996547  0.33516496  0.87344108  1
  In  In28  1  0.49896388  0.67288508  0.37519473  1
  In  In29  1  0.49400370  0.67392003  0.87967285  1
  In  In30  1  0.82988334  0.00485339  0.37887597  1
  In  In31  1  0.83350711  0.01041675  0.87219592  1
  In  In32  1  0.84026323  0.32200242  0.37577564  1
  In  In33  1  0.83057385  0.32799364  0.86829833  1
  In  In34  1  0.84028070  0.67945975  0.36990036  1
  In  In35  1  0.83960688  0.65469140  0.86999743  1
  In  In36  1  -0.01037653  0.16000399  0.37307675  1
  In  In37  1  -0.01396566  0.16895527  0.88017787  1
  In  In38  1  0.02064207  0.51300807  0.35968982  1
  In  In39  1  0.00568991  0.50267065  0.86754776  1
  In  In40  1  0.01392794  0.82890853  0.38545097  1
  In  In41  1  0.01005636  0.82562416  0.87122584  1
  In  In42  1  0.34416518  0.16197443  0.37274088  1
  In  In43  1  0.34215632  0.16272475  0.87029824  1
  In  In44  1  0.31697975  0.51662733  0.38179489  1
  In  In45  1  0.32710052  0.50827515  0.87740329  1
  In  In46  1  0.33471510  0.82897545  0.37750532  1
  In  In47  1  0.34305764  0.83747370  0.86790246  1
  In  In48  1  0.68574508  0.16418901  0.37812981  1
  In  In49  1  0.67504852  0.17015553  0.86624663  1
  In  In50  1  0.64876851  0.51112458  0.38153905  1
  In  In51  1  0.66855025  0.48960601  0.87296557  1
  In  In52  1  0.66455299  0.82759827  0.37333723  1
  In  In53  1  0.65023948  0.82662285  0.87198228  1
  In  In54  1  0.17508425  0.01490287  0.13362622  1
  In  In55  1  0.17876317  -0.00204791  0.62696943  1
  In  In56  1  0.14543186  0.34428310  0.13313779  1
  In  In57  1  0.15279561  0.33283016  0.62752713  1
  In  In58  1  0.17772073  0.65272892  0.13982860  1
  In  In59  1  0.16865419  0.66700005  0.62191877  1
  In  In60  1  0.50626388  -0.01316105  0.13124616  1
  In  In61  1  0.50830080  -0.00964900  0.62790073  1
  In  In62  1  0.48775441  0.34008000  0.12077179  1
  In  In63  1  0.50056470  0.35604304  0.63211061  1
  In  In64  1  0.49672170  0.67143639  0.12340945  1
  In  In65  1  0.49263613  0.65167591  0.61232021  1
  In  In66  1  0.81986123  -0.00002447  0.12578454  1
  In  In67  1  0.81900185  -0.00837450  0.61410882  1
  In  In68  1  0.85381163  0.33590524  0.11916287  1
  In  In69  1  0.83885422  0.32792267  0.62819907  1
  In  In70  1  0.83408381  0.66884456  0.14590125  1
  In  In71  1  0.82710414  0.67977685  0.62009652  1
  In  In72  1  0.83299449  0.50293626  0.49522982  1
  In  In73  1  0.50410723  0.16833959  0.50433452  1
  In  In74  1  0.16159550  0.16763638  0.50562045  1
  In  In75  1  0.17075236  0.83254761  0.00310155  1
  In  In76  1  0.33064961  0.33107540  0.24742463  1
  In  In77  1  0.82668772  0.83442217  0.00815907  1
  In  In78  1  0.83152383  0.49890266  0.00029488  1
  In  In79  1  0.66832242  0.66649150  0.74588967  1
  In  In80  1  0.50202446  0.16956388  -0.00470570  1
  In  In81  1  0.33324560  0.33027879  0.75224022  1
  In  In82  1  0.16711366  0.17507766  0.00128316  1
  In  In83  1  0.00463292  -0.00068746  0.25013689  1
  In  In84  1  0.00573377  0.00252246  0.74828664  1
  In  In85  1  0.67100369  0.33159594  0.25174972  1
  Cu  Cu86  1  0.00616158  0.66161146  0.49528260  1
  Cu  Cu87  1  0.32980403  0.66880558  0.00309391  1
  Cu  Cu88  1  0.33379418  -0.00689470  0.50118277  1
  Cu  Cu89  1  0.49132404  0.50804317  0.25098274  1
  Cu  Cu90  1  0.50146004  0.16134218  0.74882531  1
  Cu  Cu91  1  0.49820278  0.82929271  0.25324155  1
  Cu  Cu92  1  -0.00507012  0.00553912  0.00320471  1
  Cu  Cu93  1  0.66893679  0.33498762  -0.00671226  1
  Cu  Cu94  1  0.83696298  0.16377925  0.24943524  1
  Cu  Cu95  1  0.66293870  -0.00310705  0.00110861  1
  Cu  Cu96  1  0.66338241  -0.00202772  0.49658260  1
  Cu  Cu97  1  -0.00326134  0.66051931  0.00033606  1
  Cu  Cu98  1  0.34285268  -0.00375560  -0.00045707  1
  Cu  Cu99  1  0.84089927  0.49586813  0.74753823  1
  Cu  Cu100  1  0.66779226  0.33994477  0.50039417  1
  Cu  Cu101  1  0.50755522  0.15225053  0.25183416  1
  Cu  Cu102  1  0.17092880  0.50260987  0.74686958  1
  Cu  Cu103  1  -0.00722901  0.00015683  0.49904765  1
  Cu  Cu104  1  0.65696212  0.67008108  0.00404425  1
  Cu  Cu105  1  0.32650929  0.34865463  0.00049409  1
  Cu  Cu106  1  -0.00098222  0.33686104  0.50008039  1
  Cu  Cu107  1  0.83224217  0.16489451  0.74802792  1
  Cu  Cu108  1  0.33458061  0.34613164  0.50254969  1
  Cu  Cu109  1  0.17135835  0.82406555  0.74712271  1
  Cu  Cu110  1  0.83035673  0.49898757  0.25501651  1
  Cu  Cu111  1  0.17060775  0.83014102  0.25938342  1
  Cu  Cu112  1  0.33292282  0.66859161  0.49740801  1
  Cu  Cu113  1  0.83338951  0.83581910  0.73938888  1
  Cu  Cu114  1  0.49969029  0.83225766  0.74448457  1
  Se  Se115  1  0.07905451  0.08165066  0.06192967  1
  Se  Se116  1  0.07213745  0.07534470  0.56459877  1
  Se  Se117  1  0.06588763  0.41662286  0.05991314  1
  Se  Se118  1  0.08609010  0.41702075  0.55143627  1
  Se  Se119  1  0.07999333  0.73982605  0.05871978  1
  Se  Se120  1  0.08487176  0.74830797  0.55159451  1
  Se  Se121  1  0.41641889  0.08178887  0.06076243  1
  Se  Se122  1  0.40820335  0.07945456  0.56096739  1
  Se  Se123  1  0.41846774  0.42656318  0.04946535  1
  Se  Se124  1  0.42247229  0.42502633  0.55411547  1
  Se  Se125  1  0.41411518  0.75464323  0.05253250  1
  Se  Se126  1  0.41799580  0.74988438  0.55122945  1
  Se  Se127  1  0.74893592  0.08139033  0.04926430  1
  Se  Se128  1  0.74465101  0.08637147  0.54826741  1
  Se  Se129  1  0.74042685  0.41131471  0.06368092  1
  Se  Se130  1  0.74820490  0.41745740  0.56310125  1
  Se  Se131  1  0.74318660  0.73901462  0.06668551  1
  Se  Se132  1  0.75466607  0.75190481  0.54316917  1
  Se  Se133  1  0.25579866  0.26491913  0.06329624  1
  Se  Se134  1  0.25917824  0.25868202  0.56079893  1
  Se  Se135  1  0.24133651  0.58689245  0.05300479  1
  Se  Se136  1  0.25054329  0.58370793  0.55150362  1
  Se  Se137  1  0.25770676  0.92581910  0.06270471  1
  Se  Se138  1  0.24798511  0.91221898  0.55416097  1
  Se  Se139  1  0.59069309  0.25787792  0.05980662  1
  Se  Se140  1  0.58918174  0.26139533  0.56471609  1
  Se  Se141  1  0.57524160  0.58162429  0.05376017  1
  Se  Se142  1  0.60229915  0.59503684  0.55185266  1
  Se  Se143  1  0.58497537  0.91179056  0.05589281  1
  Se  Se144  1  0.58013876  0.91546936  0.54981739  1
  Se  Se145  1  0.90900706  0.24510713  0.04407097  1
  Se  Se146  1  0.91558664  0.25185545  0.55079075  1
  Se  Se147  1  0.91169075  0.59170866  0.06448922  1
  Se  Se148  1  0.92421930  0.58703937  0.55946733  1
  Se  Se149  1  0.92702022  0.91832466  0.06507739  1
  Se  Se150  1  0.91001123  0.91262220  0.54985081  1
  Se  Se151  1  0.07830171  0.25416584  0.43862096  1
  Se  Se152  1  0.07722773  0.26119956  0.94066689  1
  Se  Se153  1  0.08979407  0.57830689  0.44377363  1
  Se  Se154  1  0.08017183  0.58322579  0.94315712  1
  Se  Se155  1  0.08667112  0.91831635  0.45647129  1
  Se  Se156  1  0.07469210  0.92457378  0.94462764  1
  Se  Se157  1  0.41191176  0.26103844  0.44407980  1
  Se  Se158  1  0.40486608  0.26302894  0.94205927  1
  Se  Se159  1  0.41772026  0.58448755  0.44417148  1
  Se  Se160  1  0.41303421  0.58699188  0.94681666  1
  Se  Se161  1  0.41765873  0.90980607  0.44976159  1
  Se  Se162  1  0.42145340  0.91254612  0.94440931  1
  Se  Se163  1  0.75197707  0.25516261  0.44984060  1
  Se  Se164  1  0.74945310  0.24934210  0.94165755  1
  Se  Se165  1  0.74550534  0.59609748  0.43864075  1
  Se  Se166  1  0.73962798  0.59390163  0.94244618  1
  Se  Se167  1  0.74684002  0.91624136  0.44191476  1
  Se  Se168  1  0.74316880  0.91795147  0.93772966  1
  Se  Se169  1  0.25616936  0.08053349  0.44461043  1
  Se  Se170  1  0.25823947  0.07682590  0.94350521  1
  Se  Se171  1  0.24549724  0.42015269  0.44829781  1
  Se  Se172  1  0.24144439  0.42873770  0.94751710  1
  Se  Se173  1  0.24640276  0.75119342  0.44622207  1
  Se  Se174  1  0.25373355  0.74666175  0.93600609  1
  Se  Se175  1  0.58374432  0.07974604  0.43630663  1
  Se  Se176  1  0.58739171  0.07584529  0.93577113  1
  Se  Se177  1  0.57884493  0.42274914  0.45398499  1
  Se  Se178  1  0.58223782  0.41999972  0.94718197  1
  Se  Se179  1  0.56634147  0.76764013  0.44331100  1
  Se  Se180  1  0.57703022  0.75533916  0.95057509  1
  Se  Se181  1  0.91169611  0.08827836  0.44942773  1
  Se  Se182  1  0.90888500  0.08314992  0.94983551  1
  Se  Se183  1  0.92743910  0.41841588  0.43450678  1
  Se  Se184  1  0.91884558  0.41485393  0.93613981  1
  Se  Se185  1  0.92045651  0.74819258  0.44799161  1
  Se  Se186  1  0.91856128  0.74604798  0.94325445  1
  Se  Se187  1  0.24606296  0.24398824  0.31336981  1
  Se  Se188  1  0.24128210  0.24021407  0.81037577  1
  Se  Se189  1  0.24278808  0.57641445  0.30004001  1
  Se  Se190  1  0.25570565  0.58567523  0.79890646  1
  Se  Se191  1  0.25263958  0.91711781  0.30915737  1
  Se  Se192  1  0.25248797  0.91221971  0.79864096  1
  Se  Se193  1  0.57937627  0.23999472  0.31206163  1
  Se  Se194  1  0.58113151  0.24753803  0.80278080  1
  Se  Se195  1  0.57909618  0.58739086  0.30329126  1
  Se  Se196  1  0.58208994  0.58343271  0.81262318  1
  Se  Se197  1  0.58633904  0.91452789  0.30077065  1
  Se  Se198  1  0.58573917  0.91412127  0.79754904  1
  Se  Se199  1  0.92058318  0.24873538  0.30000248  1
  Se  Se200  1  0.91779760  0.24644258  0.80088403  1
  Se  Se201  1  0.91530308  0.58474642  0.30431323  1
  Se  Se202  1  0.92265195  0.58444710  0.79694999  1
  Se  Se203  1  0.92264130  0.91567013  0.31805236  1
  Se  Se204  1  0.91273780  0.90892861  0.80738455  1
  Se  Se205  1  0.09413021  0.08921240  0.31097809  1
  Se  Se206  1  0.08664310  0.08768274  0.81732235  1
  Se  Se207  1  0.07719030  0.40745050  0.29529612  1
  Se  Se208  1  0.08780971  0.41753008  0.79915280  1
  Se  Se209  1  0.08371723  0.74833456  0.30906018  1
  Se  Se210  1  0.08313846  0.74401566  0.79927738  1
  Se  Se211  1  0.41903459  0.07525943  0.30465582  1
  Se  Se212  1  0.41555302  0.07820143  0.79957861  1
  Se  Se213  1  0.41672199  0.42227780  0.31080609  1
  Se  Se214  1  0.42020179  0.42283181  0.81061227  1
  Se  Se215  1  0.41073457  0.74684094  0.30362188  1
  Se  Se216  1  0.42004564  0.74791143  0.80058654  1
  Se  Se217  1  0.75239208  0.08173111  0.30143382  1
  Se  Se218  1  0.74853949  0.07783715  0.79782989  1
  Se  Se219  1  0.75030434  0.42239185  0.31852804  1
  Se  Se220  1  0.75298464  0.41720440  0.80094702  1
  Se  Se221  1  0.74476170  0.74606406  0.30276821  1
  Se  Se222  1  0.75993511  0.75713925  0.80873573  1
  Se  Se223  1  0.26432187  0.07707895  0.20615206  1
  Se  Se224  1  0.24016642  0.07903138  0.70549662  1
  Se  Se225  1  0.24585229  0.42708646  0.19013481  1
  Se  Se226  1  0.25096171  0.42133852  0.68635147  1
  Se  Se227  1  0.25252189  0.74742431  0.20299033  1
  Se  Se228  1  0.25609318  0.74332121  0.69281098  1
  Se  Se229  1  0.59127316  0.07239058  0.19734456  1
  Se  Se230  1  0.58574392  0.07971247  0.69477749  1
  Se  Se231  1  0.57206940  0.42030917  0.19519261  1
  Se  Se232  1  0.58999172  0.41339480  0.70697674  1
  Se  Se233  1  0.58059454  0.74862194  0.19538718  1
  Se  Se234  1  0.58019066  0.75328027  0.68340438  1
  Se  Se235  1  0.91842177  0.08928487  0.18484885  1
  Se  Se236  1  0.90826210  0.08198146  0.68571900  1
  Se  Se237  1  0.91184035  0.41421264  0.20174890  1
  Se  Se238  1  0.92398611  0.41002849  0.69552541  1
  Se  Se239  1  0.90281556  0.76762293  0.20938297  1
  Se  Se240  1  0.91648745  0.74661340  0.69376230  1
  Se  Se241  1  0.10999421  0.22396734  0.18986541  1
  Se  Se242  1  0.09175032  0.23983824  0.69799509  1
  Se  Se243  1  0.05722992  0.61196260  0.19375256  1
  Se  Se244  1  0.08598864  0.58427063  0.69248332  1
  Se  Se245  1  0.09591340  0.90564160  0.19038608  1
  Se  Se246  1  0.08621826  0.90377577  0.68825552  1
  Se  Se247  1  0.43026876  0.23829492  0.19305691  1
  Se  Se248  1  0.42261669  0.24190854  0.68704484  1
  Se  Se249  1  0.41194319  0.58851628  0.19274287  1
  Se  Se250  1  0.43087722  0.58015756  0.69580549  1
  Se  Se251  1  0.41481313  0.91415116  0.19898543  1
  Se  Se252  1  0.41379297  0.91616283  0.69281793  1
  Se  Se253  1  0.75698231  0.24413365  0.18695008  1
  Se  Se254  1  0.74926388  0.25085112  0.69610167  1
  Se  Se255  1  0.74346130  0.58017690  0.20377877  1
  Se  Se256  1  0.75920811  0.57415905  0.68630601  1
  Se  Se257  1  0.76839840  0.90419539  0.19791898  1
  Se  Se258  1  0.74406951  0.91429771  0.69029047  1
