# generated using pymatgen
data_In86Cu29Se144
_symmetry_space_group_name_H-M   'P 1'
_cell_length_a   17.59618093
_cell_length_b   17.59327394
_cell_length_c   23.45192297
_cell_angle_alpha   90.00838891
_cell_angle_beta   89.99815144
_cell_angle_gamma   90.00743594
_symmetry_Int_Tables_number   1
_chemical_formula_structural   In86Cu29Se144
_chemical_formula_sum   'In86 Cu29 Se144'
_cell_volume   7260.11557578
_cell_formula_units_Z   1
loop_
 _symmetry_equiv_pos_site_id
 _symmetry_equiv_pos_as_xyz
  1  'x, y, z'
loop_
 _atom_site_type_symbol
 _atom_site_label
 _atom_site_symmetry_multiplicity
 _atom_site_fract_x
 _atom_site_fract_y
 _atom_site_fract_z
 _atom_site_occupancy
  In  In0  1  0.00973188  0.16952738  0.12658789  1
  In  In1  1  -0.00385378  0.16713192  0.63052354  1
  In  In2  1  -0.01165303  0.49904668  0.11905793  1
  In  In3  1  -0.00228526  0.50917855  0.62891849  1
  In  In4  1  -0.00853017  0.83660581  0.11792146  1
  In  In5  1  -0.01505829  0.83593269  0.62948592  1
  In  In6  1  0.33732712  0.16526154  0.13352237  1
  In  In7  1  0.33625160  0.17111935  0.62039827  1
  In  In8  1  0.32781491  0.51003186  0.13599616  1
  In  In9  1  0.33695819  0.50328064  0.61862215  1
  In  In10  1  0.34768425  0.81955587  0.13567042  1
  In  In11  1  0.32252325  0.82924754  0.62108861  1
  In  In12  1  0.66067046  0.17372938  0.13241948  1
  In  In13  1  0.67277594  0.16194644  0.63037285  1
  In  In14  1  0.67450846  0.49896019  0.13516714  1
  In  In15  1  0.66539813  0.50133470  0.62490099  1
  In  In16  1  0.66932897  0.83235134  0.12262013  1
  In  In17  1  0.68282329  0.81580409  0.63189176  1
  In  In18  1  0.17381652  -0.00776683  0.37601886  1
  In  In19  1  0.16110677  0.00404283  0.87357167  1
  In  In20  1  0.17460826  0.34524695  0.37057108  1
  In  In21  1  0.15734373  0.35636145  0.87110999  1
  In  In22  1  0.15903453  0.65631270  0.37807337  1
  In  In23  1  0.14471627  0.63866878  0.84834157  1
  In  In24  1  0.50203366  -0.00227026  0.36979822  1
  In  In25  1  0.49856554  -0.01891995  0.88168988  1
  In  In26  1  0.51473428  0.36168258  0.35655407  1
  In  In27  1  0.51104818  0.32970674  0.87961291  1
  In  In28  1  0.49490172  0.64814277  0.35992114  1
  In  In29  1  0.50970165  0.67177031  0.86945601  1
  In  In30  1  0.82392712  -0.00281940  0.37691368  1
  In  In31  1  0.82053908  -0.01407573  0.86689830  1
  In  In32  1  0.84664595  0.33990507  0.37010390  1
  In  In33  1  0.85339656  0.35690847  0.85557371  1
  In  In34  1  0.82797782  0.67221467  0.38897163  1
  In  In35  1  0.83368465  0.66994662  0.87747480  1
  In  In36  1  -0.01142726  0.17391509  0.37659452  1
  In  In37  1  0.00333447  0.16655896  0.86419234  1
  In  In38  1  0.00838989  0.50136262  0.39042549  1
  In  In39  1  -0.00681813  0.50358732  0.87077373  1
  In  In40  1  -0.01565730  0.82923806  0.38284195  1
  In  In41  1  -0.01616058  0.81468931  0.86336208  1
  In  In42  1  0.33387970  0.17199754  0.37015211  1
  In  In43  1  0.33262571  0.16314460  0.87782438  1
  In  In44  1  0.33021514  0.50298281  0.37488888  1
  In  In45  1  0.32052850  0.50200617  0.87602411  1
  In  In46  1  0.34175693  0.83673835  0.36589468  1
  In  In47  1  0.34272425  0.82091024  0.88139908  1
  In  In48  1  0.66344093  0.16706853  0.37004519  1
  In  In49  1  0.67928639  0.17574120  0.86979416  1
  In  In50  1  0.67149940  0.50339679  0.37417283  1
  In  In51  1  0.69778988  0.52623207  0.84927265  1
  In  In52  1  0.67555019  0.82909073  0.36751729  1
  In  In53  1  0.66451586  0.83313302  0.87773513  1
  In  In54  1  0.16767043  0.00953411  0.12761212  1
  In  In55  1  0.15572522  -0.01179291  0.62176881  1
  In  In56  1  0.15218515  0.34797437  0.13065596  1
  In  In57  1  0.15044543  0.34691022  0.63050987  1
  In  In58  1  0.18203043  0.66319762  0.12783157  1
  In  In59  1  0.17534836  0.65465655  0.63718307  1
  In  In60  1  0.51816928  -0.01601220  0.13618536  1
  In  In61  1  0.50718088  0.00825957  0.61995904  1
  In  In62  1  0.50308757  0.34376356  0.13960554  1
  In  In63  1  0.49593831  0.34951800  0.61894828  1
  In  In64  1  0.49241796  0.66758466  0.13266158  1
  In  In65  1  0.51211723  0.65947893  0.62985840  1
  In  In66  1  0.82367430  -0.01397747  0.12163472  1
  In  In67  1  0.84500452  -0.01919683  0.62864775  1
  In  In68  1  0.82459944  0.34513183  0.13348599  1
  In  In69  1  0.82543273  0.35309340  0.63903637  1
  In  In70  1  0.82857227  0.66537248  0.11970526  1
  In  In71  1  0.82794616  0.65647934  0.62517048  1
  In  In72  1  0.16607228  0.17527918  0.50658252  1
  In  In73  1  0.50394730  0.16747348  0.01005905  1
  In  In74  1  0.50528245  0.50031290  0.00574491  1
  In  In75  1  0.50401575  0.82666720  0.48782733  1
  In  In76  1  0.16598365  0.82407535  -0.00266070  1
  In  In77  1  0.16018495  0.82846014  0.50078881  1
  In  In78  1  0.16618224  0.16667965  -0.00393613  1
  In  In79  1  -0.00532828  0.67069769  0.25319452  1
  In  In80  1  -0.00136566  0.00494879  0.25640036  1
  In  In81  1  0.83319071  0.17238023  -0.00213098  1
  In  In82  1  0.83297737  0.16842776  0.49659067  1
  In  In83  1  0.49967788  0.17129314  0.49318173  1
  In  In84  1  0.33355493  -0.00958357  0.75274195  1
  In  In85  1  0.33357442  0.33433164  0.74573806  1
  Cu  Cu86  1  0.83235558  0.16948412  0.25068279  1
  Cu  Cu87  1  0.16297475  0.82990581  0.74397331  1
  Cu  Cu88  1  -0.00537770  0.34454798  -0.00072605  1
  Cu  Cu89  1  0.32392275  0.33666113  0.00522452  1
  Cu  Cu90  1  0.66386607  0.34275278  0.50003691  1
  Cu  Cu91  1  0.83837339  0.49916000  0.25212828  1
  Cu  Cu92  1  0.33978432  -0.01682413  0.00989292  1
  Cu  Cu93  1  0.16253396  0.50040034  0.25523684  1
  Cu  Cu94  1  0.66074766  -0.00177977  -0.00113858  1
  Cu  Cu95  1  0.67442119  -0.01643230  0.50143541  1
  Cu  Cu96  1  0.67739793  0.35077212  0.00038702  1
  Cu  Cu97  1  0.66765476  0.65848127  0.50224108  1
  Cu  Cu98  1  0.33279737  0.34639532  0.49117304  1
  Cu  Cu99  1  0.33238451  0.66194102  0.00383484  1
  Cu  Cu100  1  0.49721529  0.16866047  0.25241369  1
  Cu  Cu101  1  -0.00356582  0.34112307  0.50591856  1
  Cu  Cu102  1  0.17046292  0.17264454  0.24796412  1
  Cu  Cu103  1  0.17060501  0.16184489  0.74899992  1
  Cu  Cu104  1  0.82734768  0.83189871  0.75164553  1
  Cu  Cu105  1  0.00000479  0.66022287  -0.00919381  1
  Cu  Cu106  1  -0.01172766  -0.00815876  -0.00834971  1
  Cu  Cu107  1  0.83053933  0.16247803  0.74817833  1
  Cu  Cu108  1  0.51199574  0.16094868  0.75096736  1
  Cu  Cu109  1  0.50362077  0.83441997  0.75190865  1
  Cu  Cu110  1  0.49904645  0.49634037  0.74595762  1
  Cu  Cu111  1  0.33369287  0.66388079  0.49797772  1
  Cu  Cu112  1  0.50716393  0.83369072  0.24970638  1
  Cu  Cu113  1  0.66810526  0.66945484  -0.00504855  1
  Cu  Cu114  1  0.17144665  0.83518710  0.24972651  1
  Se  Se115  1  0.07082430  0.07072436  0.05107347  1
  Se  Se116  1  0.07236869  0.07870727  0.55592677  1
  Se  Se117  1  0.08250771  0.42388339  0.05194562  1
  Se  Se118  1  0.08180575  0.42636307  0.55495138  1
  Se  Se119  1  0.07601540  0.73463781  0.06035768  1
  Se  Se120  1  0.08534787  0.74724154  0.57344934  1
  Se  Se121  1  0.41591935  0.07103226  0.06548807  1
  Se  Se122  1  0.40824871  0.07737039  0.55133547  1
  Se  Se123  1  0.41065162  0.41105600  0.06308814  1
  Se  Se124  1  0.41940026  0.42582390  0.54541738  1
  Se  Se125  1  0.41669479  0.74511036  0.05567328  1
  Se  Se126  1  0.41521226  0.74489792  0.55674320  1
  Se  Se127  1  0.73804732  0.08543059  0.05693835  1
  Se  Se128  1  0.74868575  0.07363895  0.55770988  1
  Se  Se129  1  0.75800425  0.43012442  0.05780209  1
  Se  Se130  1  0.75087225  0.41771494  0.55645134  1
  Se  Se131  1  0.75113336  0.75244443  0.05050150  1
  Se  Se132  1  0.75205259  0.74483699  0.55140597  1
  Se  Se133  1  0.24909337  0.25147702  0.06416121  1
  Se  Se134  1  0.25875844  0.27193979  0.56050484  1
  Se  Se135  1  0.24999843  0.57610776  0.05466899  1
  Se  Se136  1  0.24879812  0.58696934  0.55424272  1
  Se  Se137  1  0.24995750  0.91097960  0.06656412  1
  Se  Se138  1  0.25627060  0.92701264  0.55152290  1
  Se  Se139  1  0.59333760  0.27073553  0.05829493  1
  Se  Se140  1  0.59094563  0.25341915  0.55873382  1
  Se  Se141  1  0.59421778  0.59295533  0.06307783  1
  Se  Se142  1  0.57925665  0.57835293  0.55252767  1
  Se  Se143  1  0.58106740  0.91263793  0.05253487  1
  Se  Se144  1  0.58853530  0.90911057  0.55972894  1
  Se  Se145  1  0.92297463  0.25873975  0.06115747  1
  Se  Se146  1  0.91541824  0.25805395  0.56210657  1
  Se  Se147  1  0.91333956  0.58560742  0.04977202  1
  Se  Se148  1  0.91224498  0.57798140  0.55548007  1
  Se  Se149  1  0.90667637  0.91291917  0.04784716  1
  Se  Se150  1  0.91668545  0.91175997  0.54935926  1
  Se  Se151  1  0.07554948  0.26103700  0.44339415  1
  Se  Se152  1  0.07313001  0.25881861  0.94101854  1
  Se  Se153  1  0.07303190  0.60202768  0.45609655  1
  Se  Se154  1  0.08630879  0.57953998  0.93918803  1
  Se  Se155  1  0.07332684  0.92544869  0.44211394  1
  Se  Se156  1  0.07458376  0.91317664  0.93580381  1
  Se  Se157  1  0.41595600  0.26613539  0.43498190  1
  Se  Se158  1  0.40769554  0.25619801  0.94818859  1
  Se  Se159  1  0.41787550  0.58488237  0.44208276  1
  Se  Se160  1  0.41563282  0.58583451  0.94122232  1
  Se  Se161  1  0.40926247  0.92633256  0.44293712  1
  Se  Se162  1  0.42010180  0.90250745  0.95394698  1
  Se  Se163  1  0.74157641  0.26012675  0.43939495  1
  Se  Se164  1  0.75327892  0.26991689  0.93823932  1
  Se  Se165  1  0.75351415  0.57476163  0.45059165  1
  Se  Se166  1  0.74917241  0.58188150  0.94385784  1
  Se  Se167  1  0.75496717  0.90309271  0.44532732  1
  Se  Se168  1  0.74791275  0.91680418  0.94754097  1
  Se  Se169  1  0.25390899  0.08595585  0.44348839  1
  Se  Se170  1  0.26231786  0.06445032  0.94823066  1
  Se  Se171  1  0.24044840  0.42878270  0.44720491  1
  Se  Se172  1  0.24512534  0.41738902  0.94761063  1
  Se  Se173  1  0.25885412  0.74868334  0.43756028  1
  Se  Se174  1  0.24889511  0.73048883  0.93730487  1
  Se  Se175  1  0.59507242  0.07069521  0.44495776  1
  Se  Se176  1  0.58669096  0.08462471  0.93914771  1
  Se  Se177  1  0.58209808  0.42262538  0.44327736  1
  Se  Se178  1  0.59592233  0.42456767  0.93754709  1
  Se  Se179  1  0.59182725  0.73205956  0.43294559  1
  Se  Se180  1  0.57912490  0.75116148  0.94692511  1
  Se  Se181  1  0.92429398  0.07264476  0.44289308  1
  Se  Se182  1  0.91673699  0.08064080  0.93394762  1
  Se  Se183  1  0.91166884  0.41900803  0.44939995  1
  Se  Se184  1  0.91060291  0.42338260  0.94401527  1
  Se  Se185  1  0.94256148  0.72170742  0.44970862  1
  Se  Se186  1  0.91610659  0.75225268  0.94871209  1
  Se  Se187  1  0.25087308  0.25589055  0.30348001  1
  Se  Se188  1  0.24402268  0.24525410  0.81144241  1
  Se  Se189  1  0.24524367  0.58728637  0.30541253  1
  Se  Se190  1  0.26439041  0.58775423  0.79885789  1
  Se  Se191  1  0.25419337  0.92131994  0.30096843  1
  Se  Se192  1  0.24125545  0.90223987  0.81268430  1
  Se  Se193  1  0.58399468  0.25209675  0.30226326  1
  Se  Se194  1  0.58530299  0.25132007  0.80488325  1
  Se  Se195  1  0.59019386  0.57485413  0.29790323  1
  Se  Se196  1  0.58010925  0.58346963  0.79814902  1
  Se  Se197  1  0.58899118  0.91641539  0.30495055  1
  Se  Se198  1  0.58392332  0.91875187  0.80614692  1
  Se  Se199  1  0.92112510  0.25175823  0.29885113  1
  Se  Se200  1  0.91629001  0.24608145  0.79889588  1
  Se  Se201  1  0.91569694  0.57661331  0.31548862  1
  Se  Se202  1  0.90732649  0.58577521  0.80541636  1
  Se  Se203  1  0.90676776  0.90838773  0.30552449  1
  Se  Se204  1  0.91678764  0.91695108  0.80049908  1
  Se  Se205  1  0.09300959  0.09538947  0.31366940  1
  Se  Se206  1  0.08400781  0.07757573  0.79842710  1
  Se  Se207  1  0.07619918  0.42245799  0.31057614  1
  Se  Se208  1  0.06551806  0.41176951  0.79889550  1
  Se  Se209  1  0.08820565  0.76245259  0.31218023  1
  Se  Se210  1  0.07597572  0.74627696  0.79370960  1
  Se  Se211  1  0.41662365  0.08355489  0.30594965  1
  Se  Se212  1  0.42557305  0.08632664  0.81018922  1
  Se  Se213  1  0.39517530  0.40784965  0.30529855  1
  Se  Se214  1  0.42338298  0.41828930  0.81241872  1
  Se  Se215  1  0.42078423  0.74976575  0.30000473  1
  Se  Se216  1  0.41857099  0.75071956  0.80292889  1
  Se  Se217  1  0.75276326  0.08529957  0.30611362  1
  Se  Se218  1  0.74623218  0.08059608  0.80231097  1
  Se  Se219  1  0.75394609  0.41540919  0.30558689  1
  Se  Se220  1  0.73484253  0.40104296  0.80087707  1
  Se  Se221  1  0.76197538  0.74169298  0.30641503  1
  Se  Se222  1  0.74596078  0.75072576  0.80868804  1
  Se  Se223  1  0.25070661  0.08244049  0.19952701  1
  Se  Se224  1  0.24971678  0.08368790  0.68776526  1
  Se  Se225  1  0.24467151  0.41864354  0.19838963  1
  Se  Se226  1  0.24404924  0.42960547  0.69420466  1
  Se  Se227  1  0.25332191  0.74563582  0.20169987  1
  Se  Se228  1  0.25674285  0.75070591  0.69877174  1
  Se  Se229  1  0.58319478  0.08652519  0.19951639  1
  Se  Se230  1  0.58911034  0.07526281  0.69607384  1
  Se  Se231  1  0.58617467  0.42591180  0.20435066  1
  Se  Se232  1  0.58218235  0.41259996  0.69336238  1
  Se  Se233  1  0.58579118  0.75011198  0.19291276  1
  Se  Se234  1  0.58542432  0.74888733  0.69873515  1
  Se  Se235  1  0.90967793  0.08783588  0.18735945  1
  Se  Se236  1  0.91378461  0.07950439  0.69463390  1
  Se  Se237  1  0.92288005  0.41733870  0.19743493  1
  Se  Se238  1  0.94066403  0.40202552  0.69512180  1
  Se  Se239  1  0.90829245  0.76063098  0.19094094  1
  Se  Se240  1  0.90580369  0.74748468  0.69497251  1
  Se  Se241  1  0.08142258  0.25312871  0.19875953  1
  Se  Se242  1  0.08895610  0.24445156  0.69471702  1
  Se  Se243  1  0.08460931  0.58080300  0.19141307  1
  Se  Se244  1  0.08035075  0.58533293  0.70229623  1
  Se  Se245  1  0.08576747  0.91123739  0.19116072  1
  Se  Se246  1  0.07775870  0.91628156  0.69648815  1
  Se  Se247  1  0.41616450  0.25353792  0.19890229  1
  Se  Se248  1  0.43032924  0.24084842  0.69123146  1
  Se  Se249  1  0.42509332  0.57467987  0.20096275  1
  Se  Se250  1  0.41737499  0.58060025  0.69217289  1
  Se  Se251  1  0.41692820  0.91793907  0.20036121  1
  Se  Se252  1  0.42505702  0.91024289  0.68613764  1
  Se  Se253  1  0.74787863  0.25368726  0.19856911  1
  Se  Se254  1  0.74958962  0.25047000  0.69681230  1
  Se  Se255  1  0.76000373  0.58677643  0.19857580  1
  Se  Se256  1  0.73880423  0.58624270  0.69648587  1
  Se  Se257  1  0.73592826  0.92575559  0.19430204  1
  Se  Se258  1  0.74643390  0.91787289  0.69700645  1
