# generated using pymatgen
data_In86Cu29Se144
_symmetry_space_group_name_H-M   'P 1'
_cell_length_a   17.53939722
_cell_length_b   17.54082639
_cell_length_c   23.39753832
_cell_angle_alpha   89.99035104
_cell_angle_beta   90.01250749
_cell_angle_gamma   90.00845882
_symmetry_Int_Tables_number   1
_chemical_formula_structural   In86Cu29Se144
_chemical_formula_sum   'In86 Cu29 Se144'
_cell_volume   7198.38150318
_cell_formula_units_Z   1
loop_
 _symmetry_equiv_pos_site_id
 _symmetry_equiv_pos_as_xyz
  1  'x, y, z'
loop_
 _atom_site_type_symbol
 _atom_site_label
 _atom_site_symmetry_multiplicity
 _atom_site_fract_x
 _atom_site_fract_y
 _atom_site_fract_z
 _atom_site_occupancy
  In  In0  1  0.00458435  0.16751325  0.12042528  1
  In  In1  1  0.00489937  0.17307816  0.62273502  1
  In  In2  1  0.01212841  0.49110351  0.11728816  1
  In  In3  1  0.00163912  0.50089942  0.63099126  1
  In  In4  1  0.00292163  0.83356161  0.12506951  1
  In  In5  1  -0.00182413  0.82568735  0.61990153  1
  In  In6  1  0.36594610  0.19128238  0.08049966  1
  In  In7  1  0.33169694  0.16422977  0.63152596  1
  In  In8  1  0.33282977  0.48357977  0.11046522  1
  In  In9  1  0.32285072  0.49295104  0.62708696  1
  In  In10  1  0.33740809  0.84186029  0.10962833  1
  In  In11  1  0.34841483  0.85366088  0.61845204  1
  In  In12  1  0.66153938  0.17890963  0.14259903  1
  In  In13  1  0.66430167  0.16944793  0.61955191  1
  In  In14  1  0.66111326  0.50246525  0.13159336  1
  In  In15  1  0.66435647  0.48130590  0.62198568  1
  In  In16  1  0.65707306  0.84657504  0.14579985  1
  In  In17  1  0.66490076  0.83543716  0.61550447  1
  In  In18  1  0.16008812  0.00610447  0.38388469  1
  In  In19  1  0.18343897  -0.00197867  0.87808246  1
  In  In20  1  0.16582312  0.32292433  0.37665656  1
  In  In21  1  0.17163430  0.32341749  0.88170098  1
  In  In22  1  0.18065185  0.67759137  0.37094759  1
  In  In23  1  0.16527658  0.66792365  0.87041289  1
  In  In24  1  0.51152506  -0.00603025  0.38037304  1
  In  In25  1  0.45467326  0.02665532  0.91269484  1
  In  In26  1  0.49195146  0.32045410  0.36930776  1
  In  In27  1  0.50068549  0.32546554  0.87663525  1
  In  In28  1  0.51625594  0.66587317  0.37144296  1
  In  In29  1  0.48270067  0.67449163  0.88553824  1
  In  In30  1  0.82292046  0.00726126  0.37649634  1
  In  In31  1  0.83419944  0.00113201  0.87477396  1
  In  In32  1  0.83159868  0.33586245  0.38205053  1
  In  In33  1  0.83105357  0.33793349  0.86693051  1
  In  In34  1  0.81614288  0.67788012  0.38569886  1
  In  In35  1  0.83923471  0.65003122  0.87057531  1
  In  In36  1  0.00418376  0.16673179  0.38556073  1
  In  In37  1  0.02348106  0.19593258  0.86203967  1
  In  In38  1  -0.00246743  0.48286640  0.37897024  1
  In  In39  1  0.00158260  0.49752911  0.87265681  1
  In  In40  1  -0.00581515  0.83913544  0.38583370  1
  In  In41  1  0.02317864  0.83176650  0.86631943  1
  In  In42  1  0.33155752  0.17189824  0.37835807  1
  In  In43  1  0.33580376  0.17582951  0.87738315  1
  In  In44  1  0.35015422  0.49295752  0.37132295  1
  In  In45  1  0.34420208  0.46760509  0.90058689  1
  In  In46  1  0.32734349  0.85015293  0.38337774  1
  In  In47  1  0.32349327  0.84353135  0.88676237  1
  In  In48  1  0.66520792  0.16409121  0.37095037  1
  In  In49  1  0.63993865  0.16621685  0.87528303  1
  In  In50  1  0.67227568  0.50637434  0.36942189  1
  In  In51  1  0.66829476  0.48365885  0.87405314  1
  In  In52  1  0.67053202  0.83175370  0.37290130  1
  In  In53  1  0.65305438  0.82918757  0.87277859  1
  In  In54  1  0.18879175  0.01328665  0.10687457  1
  In  In55  1  0.18159872  0.01396611  0.62190825  1
  In  In56  1  0.18550874  0.34188757  0.09852922  1
  In  In57  1  0.18046726  0.30235763  0.65165187  1
  In  In58  1  0.17308777  0.67875911  0.11454930  1
  In  In59  1  0.15434524  0.66151676  0.62990163  1
  In  In60  1  0.50552644  0.00692397  0.11602035  1
  In  In61  1  0.49741123  0.00787753  0.62569244  1
  In  In62  1  0.50119916  0.33285373  0.11913850  1
  In  In63  1  0.50806126  0.31797678  0.64552551  1
  In  In64  1  0.50694135  0.67077415  0.12024794  1
  In  In65  1  0.49289713  0.68062874  0.62805180  1
  In  In66  1  0.82393238  0.00131682  0.13702405  1
  In  In67  1  0.82717868  -0.00281386  0.61270463  1
  In  In68  1  0.82146549  0.32235264  0.12919417  1
  In  In69  1  0.83201206  0.33187741  0.62003151  1
  In  In70  1  0.82705556  0.66322198  0.13204440  1
  In  In71  1  0.84389207  0.67151797  0.61403846  1
  In  In72  1  0.66695857  0.65912165  0.74751965  1
  In  In73  1  0.83544642  0.50275195  -0.00262434  1
  In  In74  1  0.32208401  0.65833819  0.75029825  1
  In  In75  1  0.84177515  0.16952361  0.00422985  1
  In  In76  1  0.50400608  0.50346717  0.50036978  1
  In  In77  1  0.00971711  0.00562180  0.74830970  1
  In  In78  1  0.65711294  0.00458425  0.74563822  1
  In  In79  1  -0.00359197  0.33160989  0.24908978  1
  In  In80  1  -0.01032415  0.66595194  0.24813467  1
  In  In81  1  0.34198349  0.66384782  0.24242063  1
  In  In82  1  0.83258202  0.83588805  0.00721902  1
  In  In83  1  0.33602294  0.01113558  0.23790618  1
  In  In84  1  -0.00616756  0.00465538  0.25632941  1
  In  In85  1  0.15861470  0.49704647  0.50533181  1
  Cu  Cu86  1  0.65346742  0.66577720  0.00753440  1
  Cu  Cu87  1  0.66060131  0.32645455  -0.00088145  1
  Cu  Cu88  1  0.49664697  0.16662123  0.24146722  1
  Cu  Cu89  1  0.33411709  0.68498457  0.50106294  1
  Cu  Cu90  1  0.16178000  0.84541786  0.24710368  1
  Cu  Cu91  1  0.49679527  0.49452388  0.75978579  1
  Cu  Cu92  1  0.49363909  0.85026341  0.75622043  1
  Cu  Cu93  1  0.17244559  0.83427081  0.74906993  1
  Cu  Cu94  1  0.67030811  0.66884988  0.49522408  1
  Cu  Cu95  1  0.33187687  0.01148023  0.50202747  1
  Cu  Cu96  1  0.00189331  0.32834642  0.50716040  1
  Cu  Cu97  1  0.84019109  0.49658104  0.74659953  1
  Cu  Cu98  1  0.17640390  0.49256736  0.23376087  1
  Cu  Cu99  1  0.33033468  0.32818239  0.50804836  1
  Cu  Cu100  1  0.49785776  0.48066991  0.24818017  1
  Cu  Cu101  1  0.65867668  0.00351059  0.49684138  1
  Cu  Cu102  1  0.82723931  0.49993926  0.25381490  1
  Cu  Cu103  1  0.00208964  0.66005637  0.50225419  1
  Cu  Cu104  1  0.82795132  0.17157382  0.74229468  1
  Cu  Cu105  1  0.50279910  0.82843365  0.25215364  1
  Cu  Cu106  1  0.00088458  -0.00622709  0.50317696  1
  Cu  Cu107  1  0.16625557  0.48745443  0.76095130  1
  Cu  Cu108  1  0.65755526  -0.00050403  0.00808938  1
  Cu  Cu109  1  0.66227813  0.32719305  0.49914389  1
  Cu  Cu110  1  0.33099540  0.65727962  -0.00269804  1
  Cu  Cu111  1  0.84258760  0.82328816  0.74098101  1
  Cu  Cu112  1  0.00589174  0.00453408  -0.00895806  1
  Cu  Cu113  1  0.00294763  0.67898459  -0.00364693  1
  Cu  Cu114  1  0.17759496  0.17940290  0.24649406  1
  Se  Se115  1  0.08335813  0.08573544  0.05037161  1
  Se  Se116  1  0.08100786  0.08076297  0.55655405  1
  Se  Se117  1  0.09263690  0.42800294  0.03983230  1
  Se  Se118  1  0.08780671  0.40005981  0.57087705  1
  Se  Se119  1  0.08463766  0.76240076  0.05033253  1
  Se  Se120  1  0.08692909  0.74423211  0.55314761  1
  Se  Se121  1  0.39231329  0.05015159  0.05405756  1
  Se  Se122  1  0.41676310  0.09248010  0.55645857  1
  Se  Se123  1  0.41050474  0.39509632  0.04323528  1
  Se  Se124  1  0.41536392  0.41277177  0.56156405  1
  Se  Se125  1  0.41431345  0.74173212  0.05233208  1
  Se  Se126  1  0.42562455  0.76174711  0.55140396  1
  Se  Se127  1  0.74512589  0.08220165  0.06233146  1
  Se  Se128  1  0.74490357  0.08630954  0.54979289  1
  Se  Se129  1  0.74345552  0.40979508  0.05634774  1
  Se  Se130  1  0.74860860  0.41327253  0.54748396  1
  Se  Se131  1  0.73853663  0.74617764  0.06413071  1
  Se  Se132  1  0.75280845  0.75321700  0.55083888  1
  Se  Se133  1  0.23326315  0.22776578  0.04008246  1
  Se  Se134  1  0.24501673  0.24666821  0.56096295  1
  Se  Se135  1  0.24574177  0.57965511  0.05356961  1
  Se  Se136  1  0.25717751  0.59374038  0.55633580  1
  Se  Se137  1  0.23259506  0.89879285  0.04657374  1
  Se  Se138  1  0.25062419  0.92050300  0.55170082  1
  Se  Se139  1  0.58770366  0.23918934  0.05773753  1
  Se  Se140  1  0.57393136  0.25577310  0.55739401  1
  Se  Se141  1  0.57786576  0.57105730  0.05562869  1
  Se  Se142  1  0.59130281  0.59568715  0.56391367  1
  Se  Se143  1  0.58441285  0.90490298  0.05934355  1
  Se  Se144  1  0.57750997  0.92246747  0.55547258  1
  Se  Se145  1  0.92740490  0.27118740  0.05896013  1
  Se  Se146  1  0.91210000  0.24220185  0.55282368  1
  Se  Se147  1  0.92548036  0.59699824  0.05895905  1
  Se  Se148  1  0.92116252  0.57285618  0.55337285  1
  Se  Se149  1  0.92323777  0.93582156  0.05947565  1
  Se  Se150  1  0.91470206  0.90928358  0.55214451  1
  Se  Se151  1  0.08974690  0.24894568  0.45288899  1
  Se  Se152  1  0.09066641  0.23902505  0.95292675  1
  Se  Se153  1  0.08226843  0.58954902  0.43392402  1
  Se  Se154  1  0.07529839  0.59148332  0.93887589  1
  Se  Se155  1  0.08889653  0.91236514  0.45077546  1
  Se  Se156  1  0.08733942  0.91723369  0.94098591  1
  Se  Se157  1  0.41525428  0.25193084  0.44920224  1
  Se  Se158  1  0.41624048  0.25554441  0.95314379  1
  Se  Se159  1  0.41028666  0.59689217  0.44165758  1
  Se  Se160  1  0.42158047  0.57353935  0.95289137  1
  Se  Se161  1  0.41636767  0.92546656  0.44995551  1
  Se  Se162  1  0.44296117  0.88608067  0.94178335  1
  Se  Se163  1  0.74634417  0.24639547  0.44354090  1
  Se  Se164  1  0.74570945  0.25002308  0.93882876  1
  Se  Se165  1  0.74999462  0.57483339  0.44933027  1
  Se  Se166  1  0.73656903  0.59287325  0.94269837  1
  Se  Se167  1  0.74434801  0.91910733  0.44481156  1
  Se  Se168  1  0.73930423  0.92427504  0.94396160  1
  Se  Se169  1  0.24602825  0.09149951  0.44697755  1
  Se  Se170  1  0.26604128  0.07780274  0.94599577  1
  Se  Se171  1  0.25902101  0.41514223  0.44421813  1
  Se  Se172  1  0.22044956  0.42973395  0.95341450  1
  Se  Se173  1  0.24415246  0.76101611  0.44789943  1
  Se  Se174  1  0.24755268  0.74280426  0.94433615  1
  Se  Se175  1  0.57819611  0.09290652  0.44616991  1
  Se  Se176  1  0.57659639  0.08904350  0.95697577  1
  Se  Se177  1  0.58516666  0.41030006  0.43618050  1
  Se  Se178  1  0.58252993  0.41453581  0.94599341  1
  Se  Se179  1  0.58374993  0.75191445  0.44500077  1
  Se  Se180  1  0.57955458  0.75094808  0.94846474  1
  Se  Se181  1  0.91994469  0.07548779  0.44528499  1
  Se  Se182  1  0.92792329  0.08846268  0.93252366  1
  Se  Se183  1  0.91814748  0.41249681  0.45463117  1
  Se  Se184  1  0.92147936  0.40492088  0.94368882  1
  Se  Se185  1  0.91753795  0.74510415  0.44932859  1
  Se  Se186  1  0.91708017  0.75199514  0.93510946  1
  Se  Se187  1  0.25772023  0.25815447  0.30518990  1
  Se  Se188  1  0.26118786  0.26243833  0.80581867  1
  Se  Se189  1  0.24890490  0.57296622  0.30310461  1
  Se  Se190  1  0.25438737  0.56323830  0.81972044  1
  Se  Se191  1  0.24387567  0.92654477  0.30488018  1
  Se  Se192  1  0.25607205  0.91385730  0.80332028  1
  Se  Se193  1  0.58044549  0.24642824  0.30029560  1
  Se  Se194  1  0.59053565  0.26108575  0.80166399  1
  Se  Se195  1  0.57715850  0.57301856  0.29902704  1
  Se  Se196  1  0.57346610  0.58320385  0.81585884  1
  Se  Se197  1  0.58383901  0.91512912  0.30452734  1
  Se  Se198  1  0.57114325  0.92878210  0.81804852  1
  Se  Se199  1  0.91423585  0.24190601  0.31332608  1
  Se  Se200  1  0.91054513  0.24768120  0.80189896  1
  Se  Se201  1  0.91050139  0.57506690  0.31578267  1
  Se  Se202  1  0.92407442  0.58053223  0.79814526  1
  Se  Se203  1  0.90707436  0.90726411  0.31050212  1
  Se  Se204  1  0.91467603  0.90920740  0.80514119  1
  Se  Se205  1  0.09548018  0.09863730  0.30513243  1
  Se  Se206  1  0.10307114  0.08996553  0.80721440  1
  Se  Se207  1  0.09560279  0.42382483  0.30354686  1
  Se  Se208  1  0.08044494  0.40277742  0.81148908  1
  Se  Se209  1  0.08506678  0.75953190  0.30506081  1
  Se  Se210  1  0.08755680  0.74295788  0.79222767  1
  Se  Se211  1  0.42382367  0.08749963  0.30934573  1
  Se  Se212  1  0.42128966  0.08387254  0.81600487  1
  Se  Se213  1  0.40811463  0.40129028  0.29747898  1
  Se  Se214  1  0.41273131  0.41296344  0.81173877  1
  Se  Se215  1  0.41487267  0.75846153  0.31373586  1
  Se  Se216  1  0.41362245  0.75518116  0.80521628  1
  Se  Se217  1  0.74577970  0.08076112  0.30125316  1
  Se  Se218  1  0.75256843  0.09079869  0.80770749  1
  Se  Se219  1  0.75041967  0.41079625  0.30694161  1
  Se  Se220  1  0.74863625  0.41764155  0.79590150  1
  Se  Se221  1  0.74205073  0.73859199  0.30419226  1
  Se  Se222  1  0.75773763  0.75272549  0.80739881  1
  Se  Se223  1  0.25378243  0.10675883  0.17969137  1
  Se  Se224  1  0.25042064  0.08212611  0.70234676  1
  Se  Se225  1  0.25524759  0.40346839  0.18520863  1
  Se  Se226  1  0.25230082  0.41362844  0.70278549  1
  Se  Se227  1  0.24889498  0.76385513  0.19219741  1
  Se  Se228  1  0.25143981  0.75732694  0.68356217  1
  Se  Se229  1  0.58105266  0.07577482  0.19591417  1
  Se  Se230  1  0.56929292  0.10450427  0.69605993  1
  Se  Se231  1  0.58707957  0.40430819  0.19384548  1
  Se  Se232  1  0.58530494  0.41972188  0.70279904  1
  Se  Se233  1  0.58253275  0.73965682  0.20017417  1
  Se  Se234  1  0.57794450  0.76666614  0.69911004  1
  Se  Se235  1  0.91116285  0.10087102  0.19412708  1
  Se  Se236  1  0.90572756  0.08199433  0.68819344  1
  Se  Se237  1  0.91010333  0.42900241  0.18864105  1
  Se  Se238  1  0.91837831  0.40880596  0.69209402  1
  Se  Se239  1  0.90341964  0.76693125  0.19380020  1
  Se  Se240  1  0.92558476  0.73821390  0.69273638  1
  Se  Se241  1  0.09333595  0.25541747  0.18490730  1
  Se  Se242  1  0.06802519  0.24346349  0.70647899  1
  Se  Se243  1  0.09138923  0.58309851  0.18784310  1
  Se  Se244  1  0.08873367  0.57474727  0.70417319  1
  Se  Se245  1  0.08827226  0.93017690  0.18662310  1
  Se  Se246  1  0.09183865  0.91174704  0.68556673  1
  Se  Se247  1  0.41354923  0.24014525  0.17964444  1
  Se  Se248  1  0.39275217  0.26770766  0.69972847  1
  Se  Se249  1  0.42327817  0.56503748  0.18425206  1
  Se  Se250  1  0.42539959  0.57413004  0.69204068  1
  Se  Se251  1  0.42388032  0.90739877  0.18979050  1
  Se  Se252  1  0.41335272  0.93068617  0.69873935  1
  Se  Se253  1  0.75938518  0.24526717  0.20809002  1
  Se  Se254  1  0.74419727  0.25361153  0.68959005  1
  Se  Se255  1  0.74425092  0.58422107  0.20107670  1
  Se  Se256  1  0.75845785  0.57559265  0.68414020  1
  Se  Se257  1  0.75561427  0.91449146  0.20806296  1
  Se  Se258  1  0.75531304  0.90879022  0.69178438  1
