# generated using pymatgen
data_In86Cu29Se144
_symmetry_space_group_name_H-M   'P 1'
_cell_length_a   17.59024180
_cell_length_b   17.59242349
_cell_length_c   23.44900151
_cell_angle_alpha   90.00047409
_cell_angle_beta   89.98427561
_cell_angle_gamma   90.04020806
_symmetry_Int_Tables_number   1
_chemical_formula_structural   In86Cu29Se144
_chemical_formula_sum   'In86 Cu29 Se144'
_cell_volume   7256.40830388
_cell_formula_units_Z   1
loop_
 _symmetry_equiv_pos_site_id
 _symmetry_equiv_pos_as_xyz
  1  'x, y, z'
loop_
 _atom_site_type_symbol
 _atom_site_label
 _atom_site_symmetry_multiplicity
 _atom_site_fract_x
 _atom_site_fract_y
 _atom_site_fract_z
 _atom_site_occupancy
  In  In0  1  -0.00600861  0.17819323  0.12421158  1
  In  In1  1  -0.03242950  0.19280077  0.65295699  1
  In  In2  1  0.00743249  0.48745712  0.12775500  1
  In  In3  1  -0.00431735  0.49775204  0.61655018  1
  In  In4  1  -0.01440100  0.83546727  0.12881656  1
  In  In5  1  0.00584055  0.83502656  0.62662405  1
  In  In6  1  0.32478950  0.16456616  0.12454578  1
  In  In7  1  0.33430582  0.16726467  0.63572020  1
  In  In8  1  0.33958995  0.51737797  0.11321324  1
  In  In9  1  0.32217098  0.51297928  0.63628867  1
  In  In10  1  0.35266065  0.80768063  0.14019157  1
  In  In11  1  0.33984612  0.82582432  0.63049701  1
  In  In12  1  0.66722101  0.14936783  0.11887806  1
  In  In13  1  0.67226515  0.16786873  0.63342642  1
  In  In14  1  0.66160469  0.51158486  0.12843229  1
  In  In15  1  0.66277581  0.48912396  0.62438154  1
  In  In16  1  0.66297995  0.83582329  0.12057047  1
  In  In17  1  0.66843443  0.84702090  0.62162318  1
  In  In18  1  0.17049025  -0.01413763  0.37378634  1
  In  In19  1  0.17199557  0.00438782  0.87194260  1
  In  In20  1  0.16596368  0.34911287  0.37998672  1
  In  In21  1  0.16814229  0.34459570  0.86127753  1
  In  In22  1  0.15709449  0.65890948  0.36077712  1
  In  In23  1  0.17154648  0.64653476  0.87621749  1
  In  In24  1  0.49454085  -0.01496297  0.36926472  1
  In  In25  1  0.50264439  -0.00265027  0.87519113  1
  In  In26  1  0.49098601  0.33739355  0.37625220  1
  In  In27  1  0.50610401  0.33918141  0.87301989  1
  In  In28  1  0.51908843  0.67860425  0.36289422  1
  In  In29  1  0.49284393  0.67900488  0.88369897  1
  In  In30  1  0.83075418  0.01578800  0.37628288  1
  In  In31  1  0.83181300  0.00300809  0.87089401  1
  In  In32  1  0.84352504  0.32493594  0.37890638  1
  In  In33  1  0.82882804  0.32071540  0.85850967  1
  In  In34  1  0.82430221  0.65429835  0.36669595  1
  In  In35  1  0.83922772  0.67688317  0.87956095  1
  In  In36  1  -0.01844606  0.16492262  0.37743154  1
  In  In37  1  -0.00951078  0.16560638  0.86215541  1
  In  In38  1  0.00015759  0.49557213  0.37151350  1
  In  In39  1  0.01407899  0.49124098  0.87449235  1
  In  In40  1  0.01270273  0.82843432  0.36965677  1
  In  In41  1  -0.01582444  0.83523523  0.88201822  1
  In  In42  1  0.34576863  0.16064002  0.37707398  1
  In  In43  1  0.33290890  0.16299781  0.87123218  1
  In  In44  1  0.32393830  0.49829689  0.37382037  1
  In  In45  1  0.32944083  0.50637450  0.87037350  1
  In  In46  1  0.33882062  0.83759215  0.36541926  1
  In  In47  1  0.34430043  0.84252773  0.87330358  1
  In  In48  1  0.68127964  0.16793103  0.37282431  1
  In  In49  1  0.68035754  0.16533244  0.86661628  1
  In  In50  1  0.67362820  0.52694727  0.37451171  1
  In  In51  1  0.66733895  0.48564262  0.87620653  1
  In  In52  1  0.65597260  0.82081154  0.37043562  1
  In  In53  1  0.65771203  0.84880306  0.88827771  1
  In  In54  1  0.17438199  0.00060707  0.12856777  1
  In  In55  1  0.16166389  0.00222604  0.63455043  1
  In  In56  1  0.14170294  0.33962261  0.12272565  1
  In  In57  1  0.15189464  0.35533164  0.64127454  1
  In  In58  1  0.17883039  0.65295335  0.13546310  1
  In  In59  1  0.18085821  0.67147036  0.62414380  1
  In  In60  1  0.51723588  -0.01568519  0.12840672  1
  In  In61  1  0.50723624  -0.00818325  0.62956521  1
  In  In62  1  0.48654097  0.33987874  0.11991042  1
  In  In63  1  0.50237030  0.33329890  0.63742358  1
  In  In64  1  0.49906454  0.66715919  0.12369926  1
  In  In65  1  0.48771640  0.66178825  0.62076098  1
  In  In66  1  0.81337412  -0.01250392  0.10338700  1
  In  In67  1  0.81362302  0.02218385  0.64521509  1
  In  In68  1  0.85021693  0.33025407  0.11717521  1
  In  In69  1  0.82995244  0.33718627  0.62506593  1
  In  In70  1  0.81939605  0.67290176  0.13574616  1
  In  In71  1  0.84371314  0.66567171  0.61716116  1
  In  In72  1  0.32644105  0.33388441  0.25144356  1
  In  In73  1  0.16216518  0.16786491  0.51014738  1
  In  In74  1  0.16719482  0.82769787  0.49451257  1
  In  In75  1  0.66648835  0.33434547  0.24893275  1
  In  In76  1  0.66172335  0.66624777  0.74771244  1
  In  In77  1  0.50740765  0.16062166  0.51137040  1
  In  In78  1  0.00610072  0.66808862  0.75399215  1
  In  In79  1  0.16757613  0.82887618  0.00922369  1
  In  In80  1  0.83146798  0.83104789  0.49768879  1
  In  In81  1  0.50574920  0.16619146  -0.00928722  1
  In  In82  1  0.50483471  0.50216238  0.49711534  1
  In  In83  1  0.16165594  0.17409338  -0.00939175  1
  In  In84  1  -0.00444340  0.00258190  0.25082435  1
  In  In85  1  0.83356289  0.50022347  -0.00057735  1
  Cu  Cu86  1  0.33056137  0.66574899  0.00192907  1
  Cu  Cu87  1  0.32351530  0.34656795  -0.00385161  1
  Cu  Cu88  1  -0.00150063  0.00703401  -0.00300531  1
  Cu  Cu89  1  0.83712199  0.49549445  0.74763004  1
  Cu  Cu90  1  0.34855851  -0.00808167  0.00536486  1
  Cu  Cu91  1  -0.00243242  0.66297345  0.00466850  1
  Cu  Cu92  1  0.50104088  0.15401575  0.25047107  1
  Cu  Cu93  1  0.66633439  0.33374679  -0.00589715  1
  Cu  Cu94  1  0.17063739  0.16399644  0.75210980  1
  Cu  Cu95  1  0.33233132  0.34021803  0.50984725  1
  Cu  Cu96  1  0.82919197  0.84099982  0.75501819  1
  Cu  Cu97  1  0.17129123  0.83244721  0.75563107  1
  Cu  Cu98  1  0.49794613  0.83436069  0.75471580  1
  Cu  Cu99  1  0.49992877  0.16270444  0.75589619  1
  Cu  Cu100  1  -0.00089538  0.33376492  0.50724197  1
  Cu  Cu101  1  0.83291347  0.16490204  0.24654969  1
  Cu  Cu102  1  0.00189186  0.65435440  0.48940348  1
  Cu  Cu103  1  0.49618662  0.50057597  0.75261886  1
  Cu  Cu104  1  0.66509962  0.00222959  0.50317751  1
  Cu  Cu105  1  0.83782093  0.49735728  0.24964702  1
  Cu  Cu106  1  0.67927014  0.33824192  0.49809706  1
  Cu  Cu107  1  0.66458044  0.66991813  0.00695209  1
  Cu  Cu108  1  0.16548517  0.49487270  0.24821348  1
  Cu  Cu109  1  0.82706925  0.83558259  0.24651884  1
  Cu  Cu110  1  0.33272646  -0.01058825  0.49653527  1
  Cu  Cu111  1  0.50566499  0.83317110  0.24569498  1
  Cu  Cu112  1  0.16705714  0.16491483  0.24805308  1
  Cu  Cu113  1  0.33574369  0.66423326  0.49889269  1
  Cu  Cu114  1  -0.01256669  0.00555979  0.50908293  1
  Se  Se115  1  0.08314049  0.07988111  0.05865994  1
  Se  Se116  1  0.06993638  0.08240717  0.56852575  1
  Se  Se117  1  0.07261020  0.41505863  0.04537727  1
  Se  Se118  1  0.08910479  0.41749192  0.55276869  1
  Se  Se119  1  0.07606333  0.74092788  0.06809242  1
  Se  Se120  1  0.07429344  0.73747497  0.55439206  1
  Se  Se121  1  0.42083695  0.08305057  0.06206773  1
  Se  Se122  1  0.40538189  0.07266896  0.56049901  1
  Se  Se123  1  0.41430433  0.42301297  0.04768970  1
  Se  Se124  1  0.41903261  0.41818104  0.56548183  1
  Se  Se125  1  0.41722637  0.74994754  0.05163512  1
  Se  Se126  1  0.41424923  0.75183312  0.55176517  1
  Se  Se127  1  0.76528770  0.10316157  0.04653362  1
  Se  Se128  1  0.74619573  0.08498399  0.55847710  1
  Se  Se129  1  0.74152405  0.41181571  0.06167708  1
  Se  Se130  1  0.75528411  0.42500060  0.55297367  1
  Se  Se131  1  0.75306457  0.75051612  0.05628718  1
  Se  Se132  1  0.74078802  0.74308471  0.55854303  1
  Se  Se133  1  0.25077731  0.26080182  0.05738830  1
  Se  Se134  1  0.25322145  0.25769873  0.56753271  1
  Se  Se135  1  0.23881265  0.58384147  0.04835982  1
  Se  Se136  1  0.25213977  0.58279228  0.55304695  1
  Se  Se137  1  0.26490529  0.91580175  0.06496238  1
  Se  Se138  1  0.24885278  0.91786174  0.56053400  1
  Se  Se139  1  0.58694688  0.25749240  0.05931044  1
  Se  Se140  1  0.59352501  0.26428192  0.55946811  1
  Se  Se141  1  0.58023055  0.58174770  0.05318152  1
  Se  Se142  1  0.59293930  0.59177610  0.55893396  1
  Se  Se143  1  0.59357227  0.92416995  0.04786002  1
  Se  Se144  1  0.57885927  0.91647912  0.55005530  1
  Se  Se145  1  0.92093290  0.24691649  0.04500960  1
  Se  Se146  1  0.91550314  0.24952539  0.55891697  1
  Se  Se147  1  0.91494230  0.58740904  0.06726929  1
  Se  Se148  1  0.91487081  0.57952849  0.54595624  1
  Se  Se149  1  0.92232240  0.91697682  0.05013992  1
  Se  Se150  1  0.91091474  0.91909114  0.56630845  1
  Se  Se151  1  0.07652206  0.25362397  0.44234352  1
  Se  Se152  1  0.07553735  0.25937665  0.92844821  1
  Se  Se153  1  0.09087750  0.57668843  0.43827913  1
  Se  Se154  1  0.07741082  0.58332971  0.94745044  1
  Se  Se155  1  0.06855413  0.92727257  0.44773080  1
  Se  Se156  1  0.08402660  0.92262533  0.94397301  1
  Se  Se157  1  0.41199871  0.25574592  0.45264199  1
  Se  Se158  1  0.40512449  0.25892185  0.94218658  1
  Se  Se159  1  0.41531917  0.58828241  0.43505334  1
  Se  Se160  1  0.41225680  0.58418209  0.94415426  1
  Se  Se161  1  0.41677499  0.90855168  0.44441639  1
  Se  Se162  1  0.42842426  0.91176444  0.94852382  1
  Se  Se163  1  0.75529351  0.24594402  0.44766270  1
  Se  Se164  1  0.75004061  0.25495765  0.93934537  1
  Se  Se165  1  0.75979010  0.58482554  0.45069993  1
  Se  Se166  1  0.74043782  0.59206807  0.94036647  1
  Se  Se167  1  0.74210131  0.92323005  0.43843765  1
  Se  Se168  1  0.77315361  0.90334879  0.94056379  1
  Se  Se169  1  0.25224937  0.07766481  0.44452747  1
  Se  Se170  1  0.26300988  0.07323415  0.94952809  1
  Se  Se171  1  0.25274579  0.42013747  0.45176489  1
  Se  Se172  1  0.24192100  0.42350522  0.93829439  1
  Se  Se173  1  0.25578106  0.73995256  0.43392124  1
  Se  Se174  1  0.25335834  0.74762631  0.93949279  1
  Se  Se175  1  0.58654873  0.07949519  0.43743764  1
  Se  Se176  1  0.60113999  0.07576064  0.93989292  1
  Se  Se177  1  0.59562333  0.41083746  0.43571868  1
  Se  Se178  1  0.57844029  0.41984210  0.94996126  1
  Se  Se179  1  0.58454945  0.74448450  0.44700257  1
  Se  Se180  1  0.58256030  0.75327008  0.95153403  1
  Se  Se181  1  0.90724827  0.08881661  0.45402800  1
  Se  Se182  1  0.91884284  0.08656515  0.93931325  1
  Se  Se183  1  0.92119894  0.41446111  0.44527837  1
  Se  Se184  1  0.91107531  0.41161647  0.93165655  1
  Se  Se185  1  0.92448198  0.74466193  0.43608179  1
  Se  Se186  1  0.91472555  0.75060797  0.95665894  1
  Se  Se187  1  0.24263604  0.24135274  0.31650243  1
  Se  Se188  1  0.25330673  0.24884539  0.80443998  1
  Se  Se189  1  0.25135924  0.57858810  0.29876332  1
  Se  Se190  1  0.24713839  0.58239454  0.79712181  1
  Se  Se191  1  0.25003658  0.91695646  0.30010130  1
  Se  Se192  1  0.25482274  0.91900390  0.80599627  1
  Se  Se193  1  0.57323153  0.24201645  0.31079038  1
  Se  Se194  1  0.58288550  0.24718044  0.80822221  1
  Se  Se195  1  0.57859639  0.57284526  0.30029560  1
  Se  Se196  1  0.57731159  0.57988161  0.81428055  1
  Se  Se197  1  0.58876961  0.91612165  0.30126228  1
  Se  Se198  1  0.58610101  0.91542344  0.80504444  1
  Se  Se199  1  0.91614862  0.24766592  0.30011563  1
  Se  Se200  1  0.91773787  0.24899547  0.78849548  1
  Se  Se201  1  0.92104554  0.58220183  0.30236287  1
  Se  Se202  1  0.90959957  0.57866690  0.81101557  1
  Se  Se203  1  0.90586972  0.91102432  0.31287749  1
  Se  Se204  1  0.92154738  0.91752675  0.80447494  1
  Se  Se205  1  0.08779659  0.08983941  0.31461337  1
  Se  Se206  1  0.08567572  0.08082745  0.80392745  1
  Se  Se207  1  0.08323987  0.41026982  0.30173823  1
  Se  Se208  1  0.08509450  0.42673335  0.79281274  1
  Se  Se209  1  0.08998972  0.75676149  0.29550197  1
  Se  Se210  1  0.09006171  0.75774885  0.81970328  1
  Se  Se211  1  0.41362023  0.07589080  0.30400028  1
  Se  Se212  1  0.41684213  0.07713324  0.80695261  1
  Se  Se213  1  0.42275137  0.42624627  0.30330657  1
  Se  Se214  1  0.41560998  0.41625607  0.80695398  1
  Se  Se215  1  0.42104750  0.75050701  0.29963005  1
  Se  Se216  1  0.41516048  0.74806924  0.80478385  1
  Se  Se217  1  0.74841052  0.08171947  0.29813702  1
  Se  Se218  1  0.75627295  0.08187107  0.79591161  1
  Se  Se219  1  0.75646153  0.41847915  0.31279455  1
  Se  Se220  1  0.74731223  0.41780437  0.79940237  1
  Se  Se221  1  0.74921780  0.74894388  0.30263363  1
  Se  Se222  1  0.74910543  0.75521698  0.81079030  1
  Se  Se223  1  0.25371129  0.08309025  0.19965228  1
  Se  Se224  1  0.25345538  0.07811427  0.70023611  1
  Se  Se225  1  0.24550120  0.41952623  0.18281211  1
  Se  Se226  1  0.27150179  0.39999530  0.69407020  1
  Se  Se227  1  0.23953820  0.75712057  0.19737605  1
  Se  Se228  1  0.25209990  0.74969861  0.70043954  1
  Se  Se229  1  0.58941983  0.07894247  0.19651326  1
  Se  Se230  1  0.58067783  0.08507571  0.69513666  1
  Se  Se231  1  0.57096639  0.42083475  0.19170793  1
  Se  Se232  1  0.58591413  0.41988097  0.70270709  1
  Se  Se233  1  0.58707364  0.74896296  0.19087173  1
  Se  Se234  1  0.57432096  0.75812660  0.68726578  1
  Se  Se235  1  0.90720668  0.08186007  0.18371078  1
  Se  Se236  1  0.93922112  0.05966507  0.69255382  1
  Se  Se237  1  0.91600176  0.41081278  0.19564380  1
  Se  Se238  1  0.92138295  0.41830713  0.69149595  1
  Se  Se239  1  0.91391113  0.74922739  0.20072138  1
  Se  Se240  1  0.90780826  0.75720097  0.69529728  1
  Se  Se241  1  0.08194736  0.24727779  0.19723421  1
  Se  Se242  1  0.08790965  0.24917573  0.70073911  1
  Se  Se243  1  0.07951863  0.57829391  0.19674715  1
  Se  Se244  1  0.08661470  0.58401074  0.68504024  1
  Se  Se245  1  0.08615260  0.91328194  0.19224220  1
  Se  Se246  1  0.08493975  0.90961693  0.70033528  1
  Se  Se247  1  0.42254389  0.24099291  0.19377863  1
  Se  Se248  1  0.41903446  0.24858250  0.70280214  1
  Se  Se249  1  0.40598580  0.59321495  0.19095830  1
  Se  Se250  1  0.41753975  0.58891455  0.70017940  1
  Se  Se251  1  0.41938484  0.91808968  0.19521603  1
  Se  Se252  1  0.41606234  0.91692024  0.69714086  1
  Se  Se253  1  0.75364858  0.24662814  0.18537698  1
  Se  Se254  1  0.74946698  0.25800872  0.69666197  1
  Se  Se255  1  0.74679077  0.57921727  0.20294560  1
  Se  Se256  1  0.75938741  0.58062872  0.68938704  1
  Se  Se257  1  0.75005404  0.91956983  0.18921623  1
  Se  Se258  1  0.74020789  0.91772452  0.70161963  1
