# generated using pymatgen
data_In86Cu29Se144
_symmetry_space_group_name_H-M   'P 1'
_cell_length_a   17.58252782
_cell_length_b   17.58231742
_cell_length_c   23.44237573
_cell_angle_alpha   89.95524804
_cell_angle_beta   90.00611721
_cell_angle_gamma   90.01724408
_symmetry_Int_Tables_number   1
_chemical_formula_structural   In86Cu29Se144
_chemical_formula_sum   'In86 Cu29 Se144'
_cell_volume   7247.01061298
_cell_formula_units_Z   1
loop_
 _symmetry_equiv_pos_site_id
 _symmetry_equiv_pos_as_xyz
  1  'x, y, z'
loop_
 _atom_site_type_symbol
 _atom_site_label
 _atom_site_symmetry_multiplicity
 _atom_site_fract_x
 _atom_site_fract_y
 _atom_site_fract_z
 _atom_site_occupancy
  In  In0  1  -0.01657137  0.17540384  0.14396642  1
  In  In1  1  -0.00483395  0.19001250  0.62241412  1
  In  In2  1  -0.01433614  0.49250075  0.11274328  1
  In  In3  1  -0.01310654  0.47648818  0.60500913  1
  In  In4  1  -0.00168005  0.84624406  0.12809364  1
  In  In5  1  0.00275820  0.82121995  0.62043971  1
  In  In6  1  0.33585560  0.15750400  0.12677420  1
  In  In7  1  0.34621234  0.15832273  0.63110170  1
  In  In8  1  0.32989365  0.51450870  0.12034347  1
  In  In9  1  0.33079429  0.50740208  0.63459893  1
  In  In10  1  0.33552202  0.83180496  0.12713046  1
  In  In11  1  0.33141883  0.83412743  0.62713725  1
  In  In12  1  0.66505101  0.16409738  0.11799919  1
  In  In13  1  0.66653126  0.16833683  0.62522971  1
  In  In14  1  0.68218082  0.49681810  0.12033492  1
  In  In15  1  0.65784878  0.48798042  0.62772193  1
  In  In16  1  0.65659818  0.83007560  0.12088714  1
  In  In17  1  0.68090334  0.83834964  0.63065439  1
  In  In18  1  0.16121318  -0.00827696  0.37171716  1
  In  In19  1  0.17517753  -0.00884699  0.87083872  1
  In  In20  1  0.16319098  0.34756990  0.38199783  1
  In  In21  1  0.17196235  0.34120922  0.86561203  1
  In  In22  1  0.17601915  0.65756711  0.37863381  1
  In  In23  1  0.16562298  0.65317744  0.87744048  1
  In  In24  1  0.49762069  0.01801917  0.37057991  1
  In  In25  1  0.50481197  -0.00108703  0.87594803  1
  In  In26  1  0.49606504  0.32666584  0.38225114  1
  In  In27  1  0.48970390  0.32551818  0.86509450  1
  In  In28  1  0.50954334  0.67398451  0.36708634  1
  In  In29  1  0.49953749  0.68111400  0.87510382  1
  In  In30  1  0.84251924  0.00484614  0.36898468  1
  In  In31  1  0.82229062  0.01035049  0.88607389  1
  In  In32  1  0.84963888  0.31829418  0.39267512  1
  In  In33  1  0.83257411  0.33162520  0.87014052  1
  In  In34  1  0.82250812  0.65894675  0.37267651  1
  In  In35  1  0.84494129  0.65934040  0.89650591  1
  In  In36  1  -0.00992952  0.16336368  0.36834748  1
  In  In37  1  -0.01652980  0.17002771  0.87499192  1
  In  In38  1  0.00416904  0.49046865  0.38091779  1
  In  In39  1  0.00674222  0.49366860  0.88116494  1
  In  In40  1  0.00030562  0.84929845  0.37124407  1
  In  In41  1  -0.00358918  0.81789537  0.88424860  1
  In  In42  1  0.34664022  0.16348731  0.37785440  1
  In  In43  1  0.34513503  0.17450816  0.86613393  1
  In  In44  1  0.32425170  0.50191884  0.37533047  1
  In  In45  1  0.32521315  0.48906607  0.86182080  1
  In  In46  1  0.32733898  0.82489052  0.36837093  1
  In  In47  1  0.34167906  0.84592217  0.86706074  1
  In  In48  1  0.66318099  0.16987909  0.38096411  1
  In  In49  1  0.66781149  0.16404876  0.87399605  1
  In  In50  1  0.68105330  0.51666036  0.37298654  1
  In  In51  1  0.67905041  0.49927348  0.87140634  1
  In  In52  1  0.68100655  0.82551940  0.36850418  1
  In  In53  1  0.66006608  0.83613975  0.88484427  1
  In  In54  1  0.16634907  -0.00075916  0.13550935  1
  In  In55  1  0.18251902  0.00144815  0.62279925  1
  In  In56  1  0.14925011  0.33107391  0.12449855  1
  In  In57  1  0.15360653  0.34512637  0.62757320  1
  In  In58  1  0.17483622  0.66846681  0.12375786  1
  In  In59  1  0.17210193  0.66334202  0.61760913  1
  In  In60  1  0.49879815  -0.00065968  0.12063854  1
  In  In61  1  0.49717659  0.00798303  0.62911949  1
  In  In62  1  0.50809595  0.32943500  0.11781337  1
  In  In63  1  0.51463329  0.32794362  0.63971711  1
  In  In64  1  0.48891998  0.67646310  0.12940407  1
  In  In65  1  0.49134552  0.64976731  0.62939817  1
  In  In66  1  0.83691956  0.00843166  0.12420287  1
  In  In67  1  0.81724838  -0.00051476  0.62941416  1
  In  In68  1  0.83657018  0.33397453  0.11966776  1
  In  In69  1  0.83216187  0.32870829  0.62378960  1
  In  In70  1  0.82969998  0.66063319  0.12083013  1
  In  In71  1  0.84585610  0.66637406  0.62360672  1
  In  In72  1  0.16249705  0.83206675  0.00634766  1
  In  In73  1  0.00270463  0.00432328  0.75399307  1
  In  In74  1  0.32939151  0.33214379  0.25375267  1
  In  In75  1  0.83949667  0.83099295  0.49286577  1
  In  In76  1  0.50458053  0.83512378  0.49076100  1
  In  In77  1  0.66927971  0.33514043  0.25202779  1
  In  In78  1  0.66504930  0.00135894  0.24951099  1
  In  In79  1  0.00162916  0.66967843  0.24218930  1
  In  In80  1  0.50312968  0.49454077  0.50680211  1
  In  In81  1  0.16287955  0.16930900  0.50484759  1
  In  In82  1  0.66551670  0.67015163  0.75401813  1
  In  In83  1  0.49914939  0.49981425  -0.01019193  1
  In  In84  1  0.16625538  0.16646060  0.00379829  1
  In  In85  1  0.00524141  0.66133364  0.75345599  1
  Cu  Cu86  1  0.50721954  0.15897813  0.75162673  1
  Cu  Cu87  1  0.67094515  0.32336607  -0.00436731  1
  Cu  Cu88  1  0.49887876  0.83812306  0.75122961  1
  Cu  Cu89  1  0.66533173  0.00841913  0.50163394  1
  Cu  Cu90  1  0.15965635  0.50149337  0.74578351  1
  Cu  Cu91  1  -0.00388451  0.33103996  -0.00076502  1
  Cu  Cu92  1  -0.00090532  0.00329306  0.49515783  1
  Cu  Cu93  1  0.01172410  0.66251830  0.49709770  1
  Cu  Cu94  1  0.32814214  0.66916762  0.00056044  1
  Cu  Cu95  1  0.17681645  0.83247268  0.74350929  1
  Cu  Cu96  1  0.34342296  0.00368998  -0.00326410  1
  Cu  Cu97  1  0.32907855  0.33564585  -0.01083276  1
  Cu  Cu98  1  0.83492968  0.49369376  0.74671804  1
  Cu  Cu99  1  0.83937375  0.49565486  0.24443193  1
  Cu  Cu100  1  0.33499482  0.32903776  0.50456762  1
  Cu  Cu101  1  -0.00348192  0.00574304  0.00506241  1
  Cu  Cu102  1  0.82864654  0.83847018  0.76213873  1
  Cu  Cu103  1  0.16339264  0.16322007  0.25420410  1
  Cu  Cu104  1  0.50072200  0.50874594  0.24881035  1
  Cu  Cu105  1  0.17059133  0.83199885  0.24947328  1
  Cu  Cu106  1  0.33171026  -0.00276973  0.50496148  1
  Cu  Cu107  1  0.66210101  0.66352522  0.00114302  1
  Cu  Cu108  1  0.16508708  0.50092710  0.25360786  1
  Cu  Cu109  1  0.33529939  0.66388052  0.49838065  1
  Cu  Cu110  1  0.66667338  -0.00147767  0.00171842  1
  Cu  Cu111  1  0.49563883  0.83583447  0.24584802  1
  Cu  Cu112  1  0.82870843  0.17069980  0.75012159  1
  Cu  Cu113  1  0.66691118  0.33281193  0.50617624  1
  Cu  Cu114  1  0.17125644  0.17143612  0.74436857  1
  Se  Se115  1  0.07680295  0.08195733  0.06706950  1
  Se  Se116  1  0.07295941  0.07695947  0.56548044  1
  Se  Se117  1  0.08260447  0.41538376  0.04919492  1
  Se  Se118  1  0.08821201  0.41055340  0.54298405  1
  Se  Se119  1  0.07062640  0.74281682  0.06277641  1
  Se  Se120  1  0.08971013  0.75049332  0.55015877  1
  Se  Se121  1  0.42073522  0.08986254  0.05192476  1
  Se  Se122  1  0.41837040  0.08140947  0.55264575  1
  Se  Se123  1  0.40828956  0.41285108  0.05540869  1
  Se  Se124  1  0.41385457  0.40729218  0.56808761  1
  Se  Se125  1  0.41247114  0.75190690  0.05272553  1
  Se  Se126  1  0.41838884  0.74415626  0.55609102  1
  Se  Se127  1  0.75177563  0.08387608  0.05211696  1
  Se  Se128  1  0.75249984  0.08655035  0.55530756  1
  Se  Se129  1  0.75147654  0.41051802  0.04819054  1
  Se  Se130  1  0.74758771  0.41840014  0.55846949  1
  Se  Se131  1  0.74371795  0.74672099  0.05569827  1
  Se  Se132  1  0.74874851  0.74658732  0.55807134  1
  Se  Se133  1  0.25766286  0.26001225  0.06055865  1
  Se  Se134  1  0.25555313  0.25190638  0.56779203  1
  Se  Se135  1  0.24205551  0.58318365  0.04735399  1
  Se  Se136  1  0.25719851  0.57640683  0.55286347  1
  Se  Se137  1  0.25588927  0.92977352  0.05691027  1
  Se  Se138  1  0.24909468  0.90914594  0.55233798  1
  Se  Se139  1  0.58199518  0.24505937  0.04746635  1
  Se  Se140  1  0.57971755  0.25179426  0.55801413  1
  Se  Se141  1  0.58047198  0.58324866  0.06157263  1
  Se  Se142  1  0.59339692  0.59291114  0.55915514  1
  Se  Se143  1  0.57862491  0.91585994  0.05149457  1
  Se  Se144  1  0.59109618  0.91979254  0.55953016  1
  Se  Se145  1  0.92173081  0.24416739  0.05682261  1
  Se  Se146  1  0.91368858  0.25616033  0.54799620  1
  Se  Se147  1  0.90811351  0.58107132  0.04889845  1
  Se  Se148  1  0.92086632  0.58754693  0.55030368  1
  Se  Se149  1  0.91422201  0.91879938  0.05506857  1
  Se  Se150  1  0.92019860  0.92347677  0.56080934  1
  Se  Se151  1  0.07562334  0.25224786  0.43987533  1
  Se  Se152  1  0.08080493  0.25450054  0.93844797  1
  Se  Se153  1  0.09185129  0.57513570  0.44525674  1
  Se  Se154  1  0.06047687  0.60387171  0.94246756  1
  Se  Se155  1  0.08332943  0.91635539  0.44842698  1
  Se  Se156  1  0.07657273  0.92764899  0.94316837  1
  Se  Se157  1  0.41856858  0.24495250  0.45366907  1
  Se  Se158  1  0.41719064  0.25032318  0.94446787  1
  Se  Se159  1  0.42097835  0.58749917  0.43921560  1
  Se  Se160  1  0.40391558  0.59002532  0.93530151  1
  Se  Se161  1  0.40886649  0.92443294  0.43667971  1
  Se  Se162  1  0.42070704  0.91382972  0.94503400  1
  Se  Se163  1  0.74691313  0.24670610  0.45174851  1
  Se  Se164  1  0.75682560  0.24432398  0.94114281  1
  Se  Se165  1  0.75729240  0.58286034  0.45269823  1
  Se  Se166  1  0.74514676  0.57722634  0.95085035  1
  Se  Se167  1  0.74289825  0.92618376  0.44051831  1
  Se  Se168  1  0.75137430  0.91346381  0.95084738  1
  Se  Se169  1  0.25115363  0.07867100  0.44342801  1
  Se  Se170  1  0.25659384  0.08093618  0.93934120  1
  Se  Se171  1  0.25793044  0.41568589  0.45018493  1
  Se  Se172  1  0.24532475  0.42196703  0.94135587  1
  Se  Se173  1  0.25297907  0.74895401  0.44567530  1
  Se  Se174  1  0.25242244  0.75302627  0.93751655  1
  Se  Se175  1  0.57790266  0.08626926  0.44795380  1
  Se  Se176  1  0.58574075  0.08247343  0.94527589  1
  Se  Se177  1  0.59423584  0.41308804  0.43912519  1
  Se  Se178  1  0.59028796  0.40558786  0.93563617  1
  Se  Se179  1  0.60081761  0.74078544  0.44314759  1
  Se  Se180  1  0.57789387  0.75020600  0.95248288  1
  Se  Se181  1  0.91371693  0.08491475  0.44519022  1
  Se  Se182  1  0.91445808  0.08908161  0.95089849  1
  Se  Se183  1  0.89654591  0.43763449  0.44489208  1
  Se  Se184  1  0.91389106  0.41244322  0.94255746  1
  Se  Se185  1  0.93017671  0.73974292  0.43430609  1
  Se  Se186  1  0.90727969  0.76210829  0.95889383  1
  Se  Se187  1  0.24085130  0.24388807  0.31735808  1
  Se  Se188  1  0.25425786  0.25334064  0.80115272  1
  Se  Se189  1  0.25313112  0.58442002  0.30044374  1
  Se  Se190  1  0.24324414  0.58353777  0.80018456  1
  Se  Se191  1  0.25212720  0.91829610  0.30291629  1
  Se  Se192  1  0.25543047  0.92148262  0.79530931  1
  Se  Se193  1  0.57280378  0.24477444  0.30673546  1
  Se  Se194  1  0.58617143  0.24701106  0.80424267  1
  Se  Se195  1  0.58980684  0.58479598  0.30197862  1
  Se  Se196  1  0.57662244  0.57989604  0.81296880  1
  Se  Se197  1  0.57545200  0.90942020  0.31217017  1
  Se  Se198  1  0.58699215  0.91274206  0.80704425  1
  Se  Se199  1  0.91345543  0.25802557  0.30554527  1
  Se  Se200  1  0.91825052  0.25266543  0.79835261  1
  Se  Se201  1  0.91891884  0.57696021  0.30575459  1
  Se  Se202  1  0.90704712  0.57750089  0.81057773  1
  Se  Se203  1  0.89927392  0.90270553  0.30379541  1
  Se  Se204  1  0.91686016  0.91491918  0.81818485  1
  Se  Se205  1  0.07917078  0.07880830  0.30608378  1
  Se  Se206  1  0.09422909  0.09616901  0.81281035  1
  Se  Se207  1  0.08270103  0.41551514  0.30419153  1
  Se  Se208  1  0.07768147  0.41891671  0.80175362  1
  Se  Se209  1  0.09057799  0.75178727  0.31066095  1
  Se  Se210  1  0.09433836  0.76049382  0.80824968  1
  Se  Se211  1  0.40950379  0.08452330  0.29894807  1
  Se  Se212  1  0.42001482  0.07738758  0.80420521  1
  Se  Se213  1  0.42623654  0.42452263  0.31019483  1
  Se  Se214  1  0.42186605  0.42028489  0.79863214  1
  Se  Se215  1  0.41721124  0.74801120  0.30134623  1
  Se  Se216  1  0.41525728  0.75159777  0.80078377  1
  Se  Se217  1  0.75208779  0.09601689  0.30759026  1
  Se  Se218  1  0.75287079  0.08127878  0.80427805  1
  Se  Se219  1  0.76250660  0.41991696  0.31113595  1
  Se  Se220  1  0.74860173  0.41266882  0.79891451  1
  Se  Se221  1  0.75399922  0.74240664  0.29827340  1
  Se  Se222  1  0.75923988  0.74766091  0.82056440  1
  Se  Se223  1  0.25030307  0.08633594  0.19954418  1
  Se  Se224  1  0.25326971  0.08167408  0.69795558  1
  Se  Se225  1  0.24395531  0.42132469  0.18886644  1
  Se  Se226  1  0.24599202  0.41629299  0.69605056  1
  Se  Se227  1  0.25228348  0.74837100  0.19569582  1
  Se  Se228  1  0.25177560  0.74163116  0.69125094  1
  Se  Se229  1  0.57489894  0.09279193  0.19191522  1
  Se  Se230  1  0.59128209  0.07859710  0.69590282  1
  Se  Se231  1  0.57706539  0.42564280  0.18897034  1
  Se  Se232  1  0.57818517  0.42729514  0.70604889  1
  Se  Se233  1  0.58092624  0.75041890  0.19662613  1
  Se  Se234  1  0.57644743  0.75699669  0.68814425  1
  Se  Se235  1  0.92041879  0.06971957  0.20289068  1
  Se  Se236  1  0.91218666  0.08922407  0.69036963  1
  Se  Se237  1  0.92080776  0.41123003  0.19185740  1
  Se  Se238  1  0.91894387  0.41439204  0.69117447  1
  Se  Se239  1  0.90557691  0.75796028  0.18932425  1
  Se  Se240  1  0.91019667  0.76096860  0.70027237  1
  Se  Se241  1  0.08346586  0.25179726  0.20295390  1
  Se  Se242  1  0.08150080  0.25342609  0.69789046  1
  Se  Se243  1  0.08712250  0.57252937  0.18528811  1
  Se  Se244  1  0.07833056  0.57485776  0.68104524  1
  Se  Se245  1  0.08237901  0.91614088  0.20241379  1
  Se  Se246  1  0.08675195  0.91074203  0.68930525  1
  Se  Se247  1  0.42288123  0.25023206  0.19152352  1
  Se  Se248  1  0.42179243  0.24491558  0.70082534  1
  Se  Se249  1  0.41119590  0.58466274  0.19565779  1
  Se  Se250  1  0.41747202  0.57978250  0.70619752  1
  Se  Se251  1  0.41563794  0.92123727  0.19254153  1
  Se  Se252  1  0.41602685  0.91784949  0.69316018  1
  Se  Se253  1  0.75297672  0.24436933  0.18910589  1
  Se  Se254  1  0.74603677  0.25323699  0.69534954  1
  Se  Se255  1  0.75201797  0.57903760  0.19541673  1
  Se  Se256  1  0.75771276  0.58267884  0.69096212  1
  Se  Se257  1  0.74897417  0.91319722  0.18683323  1
  Se  Se258  1  0.74721057  0.92041688  0.70755293  1
