# generated using pymatgen
data_In86Cu29Se144
_symmetry_space_group_name_H-M   'P 1'
_cell_length_a   17.59331131
_cell_length_b   17.58781861
_cell_length_c   23.45570323
_cell_angle_alpha   89.99045709
_cell_angle_beta   90.00183592
_cell_angle_gamma   89.99336329
_symmetry_Int_Tables_number   1
_chemical_formula_structural   In86Cu29Se144
_chemical_formula_sum   'In86 Cu29 Se144'
_cell_volume   7257.85043641
_cell_formula_units_Z   1
loop_
 _symmetry_equiv_pos_site_id
 _symmetry_equiv_pos_as_xyz
  1  'x, y, z'
loop_
 _atom_site_type_symbol
 _atom_site_label
 _atom_site_symmetry_multiplicity
 _atom_site_fract_x
 _atom_site_fract_y
 _atom_site_fract_z
 _atom_site_occupancy
  In  In0  1  -0.00843432  0.17777745  0.13505885  1
  In  In1  1  0.01040795  0.15976367  0.62121313  1
  In  In2  1  -0.00734943  0.50183941  0.13429649  1
  In  In3  1  -0.01247195  0.50908074  0.62798278  1
  In  In4  1  -0.01373418  0.84674414  0.13494874  1
  In  In5  1  -0.02039402  0.83349803  0.62563944  1
  In  In6  1  0.32782739  0.16371011  0.12547650  1
  In  In7  1  0.33317240  0.16484795  0.62485452  1
  In  In8  1  0.35434532  0.49126759  0.12155113  1
  In  In9  1  0.33348914  0.48597802  0.62769261  1
  In  In10  1  0.34720418  0.83785300  0.12454938  1
  In  In11  1  0.34918421  0.83305859  0.62713852  1
  In  In12  1  0.67236501  0.15685416  0.13425692  1
  In  In13  1  0.66648794  0.19423134  0.62159374  1
  In  In14  1  0.66506455  0.50395331  0.13077313  1
  In  In15  1  0.65926783  0.47901664  0.61124863  1
  In  In16  1  0.66708648  0.83590311  0.12801075  1
  In  In17  1  0.67516597  0.83981783  0.61600246  1
  In  In18  1  0.17462973  0.00588217  0.36969444  1
  In  In19  1  0.17478914  -0.00728945  0.87210829  1
  In  In20  1  0.15243016  0.32857742  0.37655007  1
  In  In21  1  0.16625166  0.33252913  0.86587112  1
  In  In22  1  0.16065067  0.67705405  0.37402300  1
  In  In23  1  0.15624524  0.67477015  0.87123746  1
  In  In24  1  0.50229697  0.00106607  0.37420757  1
  In  In25  1  0.48923990  -0.00217033  0.87836053  1
  In  In26  1  0.51635330  0.31927164  0.38951792  1
  In  In27  1  0.50568016  0.33676742  0.86883731  1
  In  In28  1  0.51894252  0.65204955  0.38338723  1
  In  In29  1  0.50723474  0.66467817  0.88270408  1
  In  In30  1  0.82528927  -0.00630009  0.37137673  1
  In  In31  1  0.83112487  0.00401605  0.88517673  1
  In  In32  1  0.83507785  0.33352601  0.37473155  1
  In  In33  1  0.81777164  0.31682096  0.85276940  1
  In  In34  1  0.83081639  0.66555368  0.37280522  1
  In  In35  1  0.84049939  0.67162562  0.87629280  1
  In  In36  1  0.00253203  0.16859389  0.37546544  1
  In  In37  1  -0.01710867  0.17235834  0.87545109  1
  In  In38  1  -0.01412132  0.48970238  0.36945618  1
  In  In39  1  -0.00399466  0.49739620  0.86698799  1
  In  In40  1  -0.01119979  0.82834321  0.36889732  1
  In  In41  1  -0.00247172  0.82850289  0.87523828  1
  In  In42  1  0.34365090  0.15637835  0.38180871  1
  In  In43  1  0.33282742  0.16186038  0.86650854  1
  In  In44  1  0.34730623  0.50352005  0.37638631  1
  In  In45  1  0.34908101  0.49345917  0.87495713  1
  In  In46  1  0.33845570  0.84866332  0.37194521  1
  In  In47  1  0.34023958  0.84541273  0.87389429  1
  In  In48  1  0.66665551  0.16476623  0.37162805  1
  In  In49  1  0.66996050  0.18172611  0.87584951  1
  In  In50  1  0.66817869  0.49483050  0.37339045  1
  In  In51  1  0.66337454  0.48234912  0.87897320  1
  In  In52  1  0.66858792  0.83381912  0.37616622  1
  In  In53  1  0.66996560  0.83069133  0.88520853  1
  In  In54  1  0.16759212  -0.00277396  0.13428863  1
  In  In55  1  0.16415364  0.01895654  0.61911965  1
  In  In56  1  0.16429327  0.32457241  0.12362391  1
  In  In57  1  0.17556129  0.32559979  0.63009933  1
  In  In58  1  0.15790895  0.65805030  0.12706700  1
  In  In59  1  0.15657520  0.65594020  0.62487652  1
  In  In60  1  0.50550709  -0.00284279  0.13342213  1
  In  In61  1  0.49558906  -0.00636627  0.62021328  1
  In  In62  1  0.50707337  0.34649544  0.11714605  1
  In  In63  1  0.49805777  0.32636836  0.62155050  1
  In  In64  1  0.51179015  0.67490468  0.12311383  1
  In  In65  1  0.51629093  0.67184745  0.61617567  1
  In  In66  1  0.83186726  0.00227139  0.12751764  1
  In  In67  1  0.84324122  -0.00416075  0.61780291  1
  In  In68  1  0.83191079  0.32909171  0.13051793  1
  In  In69  1  0.82050013  0.33991924  0.63720081  1
  In  In70  1  0.81856262  0.67861647  0.13459871  1
  In  In71  1  0.83990982  0.66949561  0.61804862  1
  In  In72  1  0.82803384  0.16965412  0.49924803  1
  In  In73  1  0.16983899  0.83375016  -0.00267951  1
  In  In74  1  0.17081361  0.16359735  -0.00271706  1
  In  In75  1  0.32964892  0.66034462  0.75052037  1
  In  In76  1  0.00118625  0.00337848  0.74546657  1
  In  In77  1  0.16836736  0.50210166  -0.00823723  1
  In  In78  1  0.16643893  0.83688637  0.49389145  1
  In  In79  1  0.67495224  0.66345004  0.75356598  1
  In  In80  1  0.33001536  0.67464915  0.25088930  1
  In  In81  1  0.50299334  0.16449531  -0.00040537  1
  In  In82  1  0.17042452  0.49370495  0.50216696  1
  In  In83  1  0.82824344  0.49947462  -0.00135122  1
  In  In84  1  0.67023613  0.00719491  0.74460960  1
  In  In85  1  0.33286046  0.33250818  0.24350358  1
  Cu  Cu86  1  0.83476862  0.16508767  0.25436469  1
  Cu  Cu87  1  0.33541868  0.00235654  0.49870916  1
  Cu  Cu88  1  0.33412368  0.32819391  0.50594796  1
  Cu  Cu89  1  0.16379155  0.83483061  0.75067783  1
  Cu  Cu90  1  -0.01132173  0.67721439  0.00425584  1
  Cu  Cu91  1  -0.00115044  0.33037766  0.49942222  1
  Cu  Cu92  1  0.66218378  0.66824734  0.00805750  1
  Cu  Cu93  1  0.66205908  0.00286844  0.49471828  1
  Cu  Cu94  1  0.16567068  0.16790756  0.25077350  1
  Cu  Cu95  1  -0.00782252  0.33397031  0.00377398  1
  Cu  Cu96  1  0.49530823  0.16865515  0.74824219  1
  Cu  Cu97  1  0.15850001  0.83662139  0.25324740  1
  Cu  Cu98  1  -0.00595885  0.00708073  0.00703971  1
  Cu  Cu99  1  0.82995639  0.83457835  0.25098390  1
  Cu  Cu100  1  0.34202985  0.66318872  0.00096857  1
  Cu  Cu101  1  0.16845298  0.16548670  0.74660675  1
  Cu  Cu102  1  0.83165578  0.50417263  0.74771434  1
  Cu  Cu103  1  -0.00411819  0.66393041  0.49489700  1
  Cu  Cu104  1  0.83230576  0.49796342  0.25218555  1
  Cu  Cu105  1  0.15859753  0.50029787  0.25117908  1
  Cu  Cu106  1  0.34737797  0.66964201  0.50181363  1
  Cu  Cu107  1  0.15812837  0.49676063  0.74676382  1
  Cu  Cu108  1  0.50160119  0.16637045  0.25633014  1
  Cu  Cu109  1  0.49834436  0.49219696  0.74410236  1
  Cu  Cu110  1  0.67464680  0.66507409  0.49547208  1
  Cu  Cu111  1  0.50268507  0.83962081  0.74993413  1
  Cu  Cu112  1  0.66777575  -0.00082889  0.00873253  1
  Cu  Cu113  1  0.50469972  0.83385563  0.25226211  1
  Cu  Cu114  1  0.50809352  0.49846916  0.25271972  1
  Se  Se115  1  0.08011244  0.08296430  0.06426496  1
  Se  Se116  1  0.07142751  0.07244260  0.54594673  1
  Se  Se117  1  0.07606560  0.41693361  0.05826605  1
  Se  Se118  1  0.07736800  0.41077489  0.56352136  1
  Se  Se119  1  0.07674701  0.75152073  0.06178105  1
  Se  Se120  1  0.07807771  0.74353147  0.55447016  1
  Se  Se121  1  0.41351671  0.07574371  0.06073332  1
  Se  Se122  1  0.41722387  0.08448346  0.55473564  1
  Se  Se123  1  0.41555068  0.40935828  0.04524788  1
  Se  Se124  1  0.41612961  0.41695563  0.55391612  1
  Se  Se125  1  0.41941692  0.74907428  0.05577698  1
  Se  Se126  1  0.42692790  0.75636192  0.55367818  1
  Se  Se127  1  0.75156533  0.08626484  0.05657293  1
  Se  Se128  1  0.73809384  0.07961219  0.56208769  1
  Se  Se129  1  0.74273741  0.41101056  0.06071730  1
  Se  Se130  1  0.76382416  0.41300927  0.55239579  1
  Se  Se131  1  0.74856998  0.75338633  0.05548559  1
  Se  Se132  1  0.75411592  0.75080732  0.55069225  1
  Se  Se133  1  0.26129886  0.26040152  0.05298748  1
  Se  Se134  1  0.24652446  0.24526253  0.55442262  1
  Se  Se135  1  0.25772527  0.58745380  0.05978635  1
  Se  Se136  1  0.26144687  0.59095868  0.55874422  1
  Se  Se137  1  0.25564936  0.92415133  0.05881045  1
  Se  Se138  1  0.25789893  0.91894473  0.55970178  1
  Se  Se139  1  0.59408014  0.24842065  0.06117516  1
  Se  Se140  1  0.57796108  0.25112158  0.54684962  1
  Se  Se141  1  0.58174967  0.57859498  0.05681593  1
  Se  Se142  1  0.59052294  0.58227989  0.54977429  1
  Se  Se143  1  0.58138484  0.91705244  0.05903602  1
  Se  Se144  1  0.58347030  0.91662543  0.55163007  1
  Se  Se145  1  0.91331630  0.24916989  0.05781842  1
  Se  Se146  1  0.91879333  0.25403388  0.56287968  1
  Se  Se147  1  0.91413904  0.59061716  0.06240362  1
  Se  Se148  1  0.91418377  0.57922086  0.54805126  1
  Se  Se149  1  0.91257159  0.91771903  0.05576380  1
  Se  Se150  1  0.91810532  0.91375575  0.54728606  1
  Se  Se151  1  0.08369948  0.24500103  0.45110955  1
  Se  Se152  1  0.07730983  0.25805991  0.94333090  1
  Se  Se153  1  0.08096451  0.58258779  0.43961518  1
  Se  Se154  1  0.06739233  0.59540235  0.94378933  1
  Se  Se155  1  0.07748778  0.92105340  0.43247447  1
  Se  Se156  1  0.07423194  0.92924648  0.94394099  1
  Se  Se157  1  0.41684457  0.24633468  0.45006992  1
  Se  Se158  1  0.41373745  0.24872580  0.93568688  1
  Se  Se159  1  0.42391947  0.57976969  0.45029442  1
  Se  Se160  1  0.42137721  0.57885271  0.94633403  1
  Se  Se161  1  0.42009408  0.91863284  0.44667108  1
  Se  Se162  1  0.42279526  0.90828292  0.94987257  1
  Se  Se163  1  0.73699884  0.26128441  0.44354447  1
  Se  Se164  1  0.75587564  0.26026611  0.94212325  1
  Se  Se165  1  0.75346469  0.57837354  0.44189321  1
  Se  Se166  1  0.73759397  0.59271607  0.93890804  1
  Se  Se167  1  0.74911791  0.91760325  0.44752369  1
  Se  Se168  1  0.75065475  0.91724740  0.95167588  1
  Se  Se169  1  0.24783842  0.08327943  0.44715293  1
  Se  Se170  1  0.26267559  0.07016200  0.94332573  1
  Se  Se171  1  0.25982755  0.40629560  0.43802540  1
  Se  Se172  1  0.25698425  0.40577030  0.93938857  1
  Se  Se173  1  0.26425003  0.74349422  0.44023648  1
  Se  Se174  1  0.25971350  0.73856834  0.93868005  1
  Se  Se175  1  0.58153339  0.08839799  0.44298540  1
  Se  Se176  1  0.59516172  0.07476016  0.93846986  1
  Se  Se177  1  0.56660917  0.43655464  0.44171285  1
  Se  Se178  1  0.57509939  0.41299795  0.94781564  1
  Se  Se179  1  0.58681711  0.75128370  0.44746443  1
  Se  Se180  1  0.58107754  0.75280374  0.95151982  1
  Se  Se181  1  0.91493139  0.07868516  0.43972336  1
  Se  Se182  1  0.91357324  0.09061888  0.95137668  1
  Se  Se183  1  0.91545040  0.41388401  0.44786047  1
  Se  Se184  1  0.91818811  0.41180623  0.93850192  1
  Se  Se185  1  0.91332798  0.74930340  0.44341199  1
  Se  Se186  1  0.90973587  0.76020461  0.94896355  1
  Se  Se187  1  0.24884480  0.24620792  0.31121634  1
  Se  Se188  1  0.25139134  0.24859686  0.80070209  1
  Se  Se189  1  0.24325166  0.57629860  0.31068780  1
  Se  Se190  1  0.23872983  0.57202157  0.81279088  1
  Se  Se191  1  0.25066928  0.91677778  0.30018333  1
  Se  Se192  1  0.25333667  0.91383527  0.79974386  1
  Se  Se193  1  0.58450289  0.25392482  0.30488010  1
  Se  Se194  1  0.58283883  0.24785412  0.80098608  1
  Se  Se195  1  0.59149101  0.58500158  0.30201255  1
  Se  Se196  1  0.57539422  0.57376968  0.80604076  1
  Se  Se197  1  0.58674823  0.91808699  0.30651988  1
  Se  Se198  1  0.58572107  0.91503372  0.81058453  1
  Se  Se199  1  0.91820899  0.24977539  0.30708517  1
  Se  Se200  1  0.92868036  0.25758133  0.79720885  1
  Se  Se201  1  0.91624846  0.58444799  0.30283202  1
  Se  Se202  1  0.91241215  0.58629401  0.80422424  1
  Se  Se203  1  0.91475627  0.91986254  0.30118397  1
  Se  Se204  1  0.91213848  0.91921399  0.81057732  1
  Se  Se205  1  0.08301371  0.08504497  0.30482630  1
  Se  Se206  1  0.08957647  0.08934071  0.81249727  1
  Se  Se207  1  0.08050994  0.41354401  0.30459991  1
  Se  Se208  1  0.07748955  0.41193747  0.80068882  1
  Se  Se209  1  0.07755028  0.74723701  0.30108359  1
  Se  Se210  1  0.07655463  0.75257856  0.79964688  1
  Se  Se211  1  0.41522502  0.08091948  0.30370695  1
  Se  Se212  1  0.41960517  0.07838722  0.80159681  1
  Se  Se213  1  0.42485676  0.41524543  0.30711032  1
  Se  Se214  1  0.41455186  0.41087607  0.79819657  1
  Se  Se215  1  0.42725804  0.75027217  0.31401442  1
  Se  Se216  1  0.42604181  0.75040273  0.80654385  1
  Se  Se217  1  0.74731467  0.08121615  0.30312008  1
  Se  Se218  1  0.75782529  0.09129604  0.80965070  1
  Se  Se219  1  0.75047034  0.41189816  0.30402218  1
  Se  Se220  1  0.74371772  0.42247520  0.79830338  1
  Se  Se221  1  0.74791863  0.75046359  0.30491896  1
  Se  Se222  1  0.75888129  0.76321493  0.80780979  1
  Se  Se223  1  0.25122546  0.08526263  0.19864021  1
  Se  Se224  1  0.25094152  0.07979800  0.69538621  1
  Se  Se225  1  0.24264037  0.43009687  0.18663834  1
  Se  Se226  1  0.24897179  0.41574110  0.70006053  1
  Se  Se227  1  0.23861847  0.76114324  0.18739140  1
  Se  Se228  1  0.24285123  0.75320736  0.68818514  1
  Se  Se229  1  0.58446602  0.08064670  0.20314960  1
  Se  Se230  1  0.57710831  0.09291845  0.68485138  1
  Se  Se231  1  0.58548071  0.41242414  0.19661420  1
  Se  Se232  1  0.58283449  0.41056656  0.69074907  1
  Se  Se233  1  0.58730741  0.74984514  0.19884966  1
  Se  Se234  1  0.58635536  0.76007277  0.69327638  1
  Se  Se235  1  0.91668164  0.08268450  0.19811333  1
  Se  Se236  1  0.90689964  0.09252507  0.68988175  1
  Se  Se237  1  0.91519417  0.41235331  0.19914214  1
  Se  Se238  1  0.91681805  0.41868171  0.69782332  1
  Se  Se239  1  0.91573843  0.74931990  0.19954128  1
  Se  Se240  1  0.91458235  0.74338392  0.69569911  1
  Se  Se241  1  0.08452129  0.25625945  0.19989369  1
  Se  Se242  1  0.08307377  0.24570374  0.69340515  1
  Se  Se243  1  0.07612069  0.58709451  0.20095782  1
  Se  Se244  1  0.07592488  0.58531281  0.69914513  1
  Se  Se245  1  0.07696156  0.92325443  0.20127606  1
  Se  Se246  1  0.08964891  0.91165238  0.68372028  1
  Se  Se247  1  0.42843127  0.24346191  0.18738939  1
  Se  Se248  1  0.41208126  0.25172761  0.69385828  1
  Se  Se249  1  0.42340429  0.58036266  0.19570371  1
  Se  Se250  1  0.42699089  0.58302307  0.68638190  1
  Se  Se251  1  0.41713119  0.91595358  0.20168043  1
  Se  Se252  1  0.41704768  0.92169881  0.69934796  1
  Se  Se253  1  0.74996099  0.24784673  0.20063609  1
  Se  Se254  1  0.74957461  0.24494497  0.70245938  1
  Se  Se255  1  0.74838869  0.58321958  0.20028959  1
  Se  Se256  1  0.74983443  0.57618318  0.68258295  1
  Se  Se257  1  0.74850651  0.91980851  0.19676340  1
  Se  Se258  1  0.76180637  0.91119332  0.69211728  1
