# generated using pymatgen
data_In86Cu29Se144
_symmetry_space_group_name_H-M   'P 1'
_cell_length_a   17.58196447
_cell_length_b   17.58424296
_cell_length_c   23.44336912
_cell_angle_alpha   90.01270983
_cell_angle_beta   90.00351087
_cell_angle_gamma   89.97900772
_symmetry_Int_Tables_number   1
_chemical_formula_structural   In86Cu29Se144
_chemical_formula_sum   'In86 Cu29 Se144'
_cell_volume   7247.88107985
_cell_formula_units_Z   1
loop_
 _symmetry_equiv_pos_site_id
 _symmetry_equiv_pos_as_xyz
  1  'x, y, z'
loop_
 _atom_site_type_symbol
 _atom_site_label
 _atom_site_symmetry_multiplicity
 _atom_site_fract_x
 _atom_site_fract_y
 _atom_site_fract_z
 _atom_site_occupancy
  In  In0  1  -0.01338587  0.16222633  0.11993822  1
  In  In1  1  0.00668674  0.17556680  0.62490416  1
  In  In2  1  -0.01774188  0.50874190  0.12659722  1
  In  In3  1  -0.01430547  0.50804979  0.63874353  1
  In  In4  1  0.01104629  0.83994617  0.12020062  1
  In  In5  1  -0.00336791  0.82240146  0.62533206  1
  In  In6  1  0.32720937  0.14886082  0.12900051  1
  In  In7  1  0.33556123  0.16945724  0.62085329  1
  In  In8  1  0.35564864  0.50826616  0.12868627  1
  In  In9  1  0.33669395  0.48600012  0.62325184  1
  In  In10  1  0.33661053  0.83904757  0.12409675  1
  In  In11  1  0.33785641  0.83908171  0.61601076  1
  In  In12  1  0.66309428  0.15424035  0.10580667  1
  In  In13  1  0.65915002  0.15653078  0.61927520  1
  In  In14  1  0.68136517  0.51589766  0.12074429  1
  In  In15  1  0.68486502  0.51989426  0.60969091  1
  In  In16  1  0.65163497  0.82828171  0.10988069  1
  In  In17  1  0.65986319  0.83158481  0.63557116  1
  In  In18  1  0.16610665  -0.00090503  0.38007344  1
  In  In19  1  0.15877362  -0.00728502  0.87626984  1
  In  In20  1  0.15231257  0.32841329  0.38058318  1
  In  In21  1  0.16746786  0.32687165  0.85727677  1
  In  In22  1  0.18587782  0.66782653  0.37554346  1
  In  In23  1  0.15960437  0.68077112  0.87710527  1
  In  In24  1  0.49730474  -0.00035654  0.37616930  1
  In  In25  1  0.52423735  -0.02078270  0.89528274  1
  In  In26  1  0.50271164  0.33009878  0.38487172  1
  In  In27  1  0.49067867  0.32983676  0.86518185  1
  In  In28  1  0.50433810  0.67201610  0.38695877  1
  In  In29  1  0.50753530  0.67508095  0.87111747  1
  In  In30  1  0.84260328  -0.00000351  0.37085496  1
  In  In31  1  0.82183872  0.00505797  0.88913864  1
  In  In32  1  0.82882398  0.33587729  0.38786915  1
  In  In33  1  0.83234926  0.33123958  0.87194699  1
  In  In34  1  0.82155460  0.65733153  0.37683563  1
  In  In35  1  0.83292915  0.66622705  0.87745697  1
  In  In36  1  0.00358447  0.16298734  0.38555423  1
  In  In37  1  -0.00736816  0.16586943  0.86948993  1
  In  In38  1  -0.00397411  0.49265836  0.37895041  1
  In  In39  1  -0.01812688  0.49042928  0.85945998  1
  In  In40  1  -0.00337316  0.85065572  0.37320448  1
  In  In41  1  0.00064438  0.82444500  0.87981995  1
  In  In42  1  0.34206055  0.15121990  0.38108147  1
  In  In43  1  0.34313078  0.17601307  0.86691281  1
  In  In44  1  0.33798032  0.52047815  0.37146167  1
  In  In45  1  0.34292084  0.48923091  0.86662574  1
  In  In46  1  0.33658580  0.83138990  0.37944391  1
  In  In47  1  0.33342286  0.83348141  0.88420968  1
  In  In48  1  0.66402491  0.16878170  0.38367771  1
  In  In49  1  0.67342332  0.15324765  0.88261258  1
  In  In50  1  0.66545249  0.51018847  0.39061225  1
  In  In51  1  0.67342536  0.51546672  0.86621037  1
  In  In52  1  0.65475735  0.81342455  0.37264492  1
  In  In53  1  0.66720480  0.83660069  0.87987419  1
  In  In54  1  0.18127623  -0.01309301  0.13567890  1
  In  In55  1  0.17112889  0.00478316  0.61705013  1
  In  In56  1  0.16261230  0.32723133  0.12479295  1
  In  In57  1  0.16757343  0.32255656  0.63759588  1
  In  In58  1  0.16641865  0.68638425  0.12683746  1
  In  In59  1  0.15422449  0.66784951  0.62182917  1
  In  In60  1  0.49515820  -0.01116493  0.11060132  1
  In  In61  1  0.50459187  -0.00115307  0.62117574  1
  In  In62  1  0.51298041  0.33646102  0.12138583  1
  In  In63  1  0.49483717  0.32633686  0.61905808  1
  In  In64  1  0.49314576  0.69356978  0.14363345  1
  In  In65  1  0.52437326  0.68285037  0.60685792  1
  In  In66  1  0.83730708  0.00480495  0.11865535  1
  In  In67  1  0.81381710  -0.00813968  0.62803462  1
  In  In68  1  0.82850515  0.33235420  0.11550992  1
  In  In69  1  0.84466083  0.34100317  0.62614568  1
  In  In70  1  0.81768443  0.66078036  0.11981402  1
  In  In71  1  0.83395585  0.66161313  0.63612335  1
  In  In72  1  -0.00440394  0.00065768  0.75756977  1
  In  In73  1  0.34207074  0.00381169  0.74213322  1
  In  In74  1  0.67160801  0.33708255  0.25083290  1
  In  In75  1  0.16643972  0.16087402  -0.00636231  1
  In  In76  1  0.33532316  0.66260807  0.75075026  1
  In  In77  1  0.16504691  0.49363150  0.50185616  1
  In  In78  1  -0.00222703  0.67229751  0.25272769  1
  In  In79  1  0.33479591  0.33251085  0.25822280  1
  In  In80  1  0.66735731  0.33729574  0.74537056  1
  In  In81  1  0.51050310  0.50440152  -0.01002926  1
  In  In82  1  0.66079398  -0.00892211  0.24690431  1
  In  In83  1  0.82975792  0.83464460  0.49534315  1
  In  In84  1  -0.00589869  0.32834865  0.24520100  1
  In  In85  1  0.16203480  0.50647043  0.00045235  1
  Cu  Cu86  1  0.32878662  0.32845999  0.49957603  1
  Cu  Cu87  1  0.33691280  -0.00139514  0.00394495  1
  Cu  Cu88  1  0.16454766  0.15183711  0.25878658  1
  Cu  Cu89  1  0.33871264  0.66856465  0.49852907  1
  Cu  Cu90  1  0.66344239  0.66885809  -0.00300160  1
  Cu  Cu91  1  0.00397131  -0.00662420  -0.00045196  1
  Cu  Cu92  1  0.49993257  0.49866949  0.73941292  1
  Cu  Cu93  1  0.17520852  0.83980091  0.25256103  1
  Cu  Cu94  1  -0.00359117  0.33293037  0.50775355  1
  Cu  Cu95  1  0.49469123  0.16158718  0.24832816  1
  Cu  Cu96  1  0.33377355  0.33184779  -0.00855281  1
  Cu  Cu97  1  0.33623595  0.67292474  0.00413275  1
  Cu  Cu98  1  -0.00098974  0.66837345  0.50469893  1
  Cu  Cu99  1  0.51077457  0.51604882  0.25614733  1
  Cu  Cu100  1  0.33089968  -0.00028300  0.49827680  1
  Cu  Cu101  1  0.16301205  0.50375374  0.74452738  1
  Cu  Cu102  1  0.83029848  0.16472713  0.75246994  1
  Cu  Cu103  1  0.66897572  0.32779933  0.50780976  1
  Cu  Cu104  1  0.66168539  -0.00214164  0.49896933  1
  Cu  Cu105  1  -0.00255309  0.00592035  0.49910571  1
  Cu  Cu106  1  0.82443020  0.82846047  0.75520623  1
  Cu  Cu107  1  -0.00989189  0.66681271  0.00113642  1
  Cu  Cu108  1  0.17221410  0.50208361  0.24699866  1
  Cu  Cu109  1  0.83333569  0.16543056  0.24639319  1
  Cu  Cu110  1  0.50299743  0.15846421  0.74506405  1
  Cu  Cu111  1  0.16575081  0.83440547  0.74829831  1
  Cu  Cu112  1  0.66933384  0.32974097  -0.00580515  1
  Cu  Cu113  1  -0.00790544  0.33981080  -0.00733083  1
  Cu  Cu114  1  0.83382977  0.83409940  0.24870309  1
  Se  Se115  1  0.08490472  0.07414724  0.06158069  1
  Se  Se116  1  0.08101710  0.08685338  0.55460766  1
  Se  Se117  1  0.07115639  0.41116565  0.06016934  1
  Se  Se118  1  0.07599328  0.41486911  0.56868628  1
  Se  Se119  1  0.08149375  0.74693433  0.04983217  1
  Se  Se120  1  0.08392354  0.75636306  0.55019440  1
  Se  Se121  1  0.41512526  0.08989719  0.05364525  1
  Se  Se122  1  0.41488637  0.07924540  0.55590778  1
  Se  Se123  1  0.41418903  0.41373464  0.05124753  1
  Se  Se124  1  0.41553125  0.41208988  0.54830180  1
  Se  Se125  1  0.42186441  0.75255765  0.05731253  1
  Se  Se126  1  0.42106898  0.75567543  0.54896916  1
  Se  Se127  1  0.77240687  0.09826887  0.04824748  1
  Se  Se128  1  0.74907395  0.07718968  0.55190203  1
  Se  Se129  1  0.74269518  0.41745639  0.05159946  1
  Se  Se130  1  0.75585177  0.41299568  0.55487780  1
  Se  Se131  1  0.74959713  0.75152957  0.04904420  1
  Se  Se132  1  0.75128933  0.75014806  0.56471477  1
  Se  Se133  1  0.25628289  0.25399543  0.05573157  1
  Se  Se134  1  0.24482643  0.25326132  0.55764034  1
  Se  Se135  1  0.25965235  0.58827571  0.06304197  1
  Se  Se136  1  0.25614242  0.58860608  0.55902641  1
  Se  Se137  1  0.24818265  0.91586817  0.05326821  1
  Se  Se138  1  0.24641254  0.91500686  0.55011943  1
  Se  Se139  1  0.58158504  0.25231642  0.04815420  1
  Se  Se140  1  0.57921196  0.24278276  0.55178009  1
  Se  Se141  1  0.57875792  0.59568210  0.06150945  1
  Se  Se142  1  0.56564981  0.56174464  0.55397136  1
  Se  Se143  1  0.60898753  0.94325944  0.04904192  1
  Se  Se144  1  0.58868494  0.91109589  0.55677783  1
  Se  Se145  1  0.91762920  0.25235583  0.04999097  1
  Se  Se146  1  0.91230626  0.24574015  0.55689272  1
  Se  Se147  1  0.90641934  0.58043212  0.05065845  1
  Se  Se148  1  0.91762510  0.58810843  0.56038771  1
  Se  Se149  1  0.91837759  0.91388981  0.05373273  1
  Se  Se150  1  0.91939284  0.92324363  0.56016936  1
  Se  Se151  1  0.08137568  0.24954122  0.45572418  1
  Se  Se152  1  0.07941501  0.26030899  0.93820278  1
  Se  Se153  1  0.08012715  0.59067350  0.44053526  1
  Se  Se154  1  0.06973471  0.58717888  0.93781997  1
  Se  Se155  1  0.07936905  0.91741303  0.44917410  1
  Se  Se156  1  0.08665962  0.90862141  0.94751109  1
  Se  Se157  1  0.41473174  0.24572274  0.44708042  1
  Se  Se158  1  0.42152261  0.25002331  0.94338358  1
  Se  Se159  1  0.41988127  0.57851225  0.45080247  1
  Se  Se160  1  0.40615316  0.59078102  0.93769637  1
  Se  Se161  1  0.41854095  0.91746367  0.44789289  1
  Se  Se162  1  0.41907382  0.90987149  0.95408441  1
  Se  Se163  1  0.75169457  0.24429053  0.45214624  1
  Se  Se164  1  0.75554394  0.24757683  0.94290281  1
  Se  Se165  1  0.75955355  0.58194215  0.45730462  1
  Se  Se166  1  0.74730035  0.58264928  0.94703474  1
  Se  Se167  1  0.73918383  0.92233209  0.43240021  1
  Se  Se168  1  0.73888444  0.92152746  0.95469839  1
  Se  Se169  1  0.24528543  0.08642256  0.44938735  1
  Se  Se170  1  0.26250926  0.07449016  0.93570853  1
  Se  Se171  1  0.25707048  0.41214455  0.43464571  1
  Se  Se172  1  0.24891861  0.41298621  0.93795258  1
  Se  Se173  1  0.24947034  0.75203535  0.45139329  1
  Se  Se174  1  0.24764728  0.74940214  0.94954109  1
  Se  Se175  1  0.57817645  0.08292133  0.44617176  1
  Se  Se176  1  0.56687901  0.10075458  0.94688023  1
  Se  Se177  1  0.58887748  0.41049708  0.45019370  1
  Se  Se178  1  0.59340304  0.40832406  0.92893959  1
  Se  Se179  1  0.59271938  0.74600128  0.45706930  1
  Se  Se180  1  0.57725866  0.75300045  0.94781550  1
  Se  Se181  1  0.90777044  0.08419080  0.44737547  1
  Se  Se182  1  0.92719150  0.08085166  0.94447924  1
  Se  Se183  1  0.91720431  0.41877373  0.45289285  1
  Se  Se184  1  0.90884736  0.42234169  0.94107791  1
  Se  Se185  1  0.92434363  0.74446948  0.43679715  1
  Se  Se186  1  0.90902722  0.75404539  0.94911016  1
  Se  Se187  1  0.24097905  0.24212253  0.31405530  1
  Se  Se188  1  0.26028602  0.24988150  0.79655382  1
  Se  Se189  1  0.25340280  0.58893714  0.29669711  1
  Se  Se190  1  0.24014470  0.57732236  0.81284383  1
  Se  Se191  1  0.25354234  0.91933318  0.31255615  1
  Se  Se192  1  0.24878006  0.91264249  0.80594435  1
  Se  Se193  1  0.57559092  0.24327645  0.30608076  1
  Se  Se194  1  0.58435937  0.23998404  0.80555695  1
  Se  Se195  1  0.59144242  0.59093141  0.31605856  1
  Se  Se196  1  0.57237328  0.57976986  0.80205134  1
  Se  Se197  1  0.57012455  0.90282489  0.30587418  1
  Se  Se198  1  0.58671296  0.91884604  0.80848524  1
  Se  Se199  1  0.90720625  0.24496431  0.31215784  1
  Se  Se200  1  0.91472824  0.25092336  0.80071116  1
  Se  Se201  1  0.91270990  0.57334281  0.30721029  1
  Se  Se202  1  0.92644722  0.60378324  0.80479990  1
  Se  Se203  1  0.91802707  0.92118044  0.29597073  1
  Se  Se204  1  0.90481895  0.91067227  0.81574174  1
  Se  Se205  1  0.07453840  0.07791349  0.31211174  1
  Se  Se206  1  0.09643516  0.09223835  0.80647182  1
  Se  Se207  1  0.08988999  0.42233926  0.30333547  1
  Se  Se208  1  0.08218067  0.41784254  0.79842673  1
  Se  Se209  1  0.09305154  0.75825667  0.31197952  1
  Se  Se210  1  0.08048588  0.75394280  0.80134392  1
  Se  Se211  1  0.41532447  0.07801593  0.30262901  1
  Se  Se212  1  0.43165721  0.07850963  0.81186627  1
  Se  Se213  1  0.43138936  0.42555388  0.31009498  1
  Se  Se214  1  0.41698367  0.41218654  0.79083645  1
  Se  Se215  1  0.40966584  0.73528698  0.31629371  1
  Se  Se216  1  0.41829764  0.76248442  0.80649354  1
  Se  Se217  1  0.74787357  0.08977586  0.30663752  1
  Se  Se218  1  0.75243401  0.07870307  0.80723466  1
  Se  Se219  1  0.75409102  0.42408445  0.31597775  1
  Se  Se220  1  0.76029133  0.42814955  0.80111907  1
  Se  Se221  1  0.75716026  0.75219421  0.30685881  1
  Se  Se222  1  0.74262451  0.74612884  0.81069462  1
  Se  Se223  1  0.25452910  0.07546816  0.20651631  1
  Se  Se224  1  0.24193652  0.09161341  0.69221018  1
  Se  Se225  1  0.25052429  0.42013755  0.18700542  1
  Se  Se226  1  0.24931915  0.41936181  0.69634807  1
  Se  Se227  1  0.25482826  0.75585890  0.19657335  1
  Se  Se228  1  0.24694458  0.75537334  0.68812350  1
  Se  Se229  1  0.57865840  0.08861889  0.18646960  1
  Se  Se230  1  0.58762184  0.07474658  0.69482014  1
  Se  Se231  1  0.58080544  0.43125494  0.19228248  1
  Se  Se232  1  0.58200788  0.42161776  0.67957574  1
  Se  Se233  1  0.60661050  0.75063779  0.19665724  1
  Se  Se234  1  0.58434624  0.73550691  0.69799763  1
  Se  Se235  1  0.91729805  0.08090288  0.19567552  1
  Se  Se236  1  0.90787800  0.08246107  0.68984440  1
  Se  Se237  1  0.89898335  0.42098083  0.19420979  1
  Se  Se238  1  0.91648058  0.41313845  0.70444650  1
  Se  Se239  1  0.91257083  0.75502750  0.18515609  1
  Se  Se240  1  0.91408760  0.75417102  0.70026236  1
  Se  Se241  1  0.09090541  0.23253519  0.19407314  1
  Se  Se242  1  0.07458000  0.25032548  0.70372248  1
  Se  Se243  1  0.08824901  0.58000715  0.18874055  1
  Se  Se244  1  0.08040188  0.59252325  0.69788679  1
  Se  Se245  1  0.08308978  0.91516901  0.19943321  1
  Se  Se246  1  0.08563527  0.91701393  0.68972781  1
  Se  Se247  1  0.42129560  0.24960241  0.18852268  1
  Se  Se248  1  0.42023895  0.24432840  0.69375834  1
  Se  Se249  1  0.41962048  0.59228934  0.20408282  1
  Se  Se250  1  0.42140497  0.58355536  0.68194377  1
  Se  Se251  1  0.42364246  0.91970114  0.19005912  1
  Se  Se252  1  0.42853095  0.90299994  0.69162125  1
  Se  Se253  1  0.74932262  0.24025609  0.18606098  1
  Se  Se254  1  0.75299345  0.24095847  0.68713447  1
  Se  Se255  1  0.75146498  0.58609507  0.20016290  1
  Se  Se256  1  0.73914625  0.58536774  0.69827741  1
  Se  Se257  1  0.75522111  0.91078725  0.18499120  1
  Se  Se258  1  0.74231882  0.91539283  0.70490406  1
