# generated using pymatgen
data_In86Cu29Se144
_symmetry_space_group_name_H-M   'P 1'
_cell_length_a   17.58321988
_cell_length_b   17.57962237
_cell_length_c   23.44347564
_cell_angle_alpha   90.01626056
_cell_angle_beta   90.01371389
_cell_angle_gamma   90.01237906
_symmetry_Int_Tables_number   1
_chemical_formula_structural   In86Cu29Se144
_chemical_formula_sum   'In86 Cu29 Se144'
_cell_volume   7246.52688105
_cell_formula_units_Z   1
loop_
 _symmetry_equiv_pos_site_id
 _symmetry_equiv_pos_as_xyz
  1  'x, y, z'
loop_
 _atom_site_type_symbol
 _atom_site_label
 _atom_site_symmetry_multiplicity
 _atom_site_fract_x
 _atom_site_fract_y
 _atom_site_fract_z
 _atom_site_occupancy
  In  In0  1  0.01546515  0.15988706  0.12391787  1
  In  In1  1  -0.00761974  0.17784072  0.63413903  1
  In  In2  1  -0.00589281  0.51175297  0.12384391  1
  In  In3  1  -0.00687704  0.50030523  0.63029728  1
  In  In4  1  0.00978722  0.81454305  0.12299949  1
  In  In5  1  0.00448464  0.83876141  0.62826674  1
  In  In6  1  0.33531573  0.16625734  0.12625718  1
  In  In7  1  0.33752367  0.15488742  0.61961422  1
  In  In8  1  0.34821582  0.49416703  0.13975658  1
  In  In9  1  0.33946303  0.49659114  0.62098456  1
  In  In10  1  0.33341436  0.83318681  0.12586945  1
  In  In11  1  0.32966078  0.84555448  0.62164645  1
  In  In12  1  0.65507114  0.17136148  0.12627471  1
  In  In13  1  0.66601522  0.16513512  0.62686583  1
  In  In14  1  0.66427750  0.49431134  0.11725801  1
  In  In15  1  0.65434464  0.50122917  0.62297514  1
  In  In16  1  0.66983333  0.85210845  0.12747360  1
  In  In17  1  0.67878984  0.82867735  0.62765845  1
  In  In18  1  0.16328750  -0.01466799  0.37466119  1
  In  In19  1  0.16328030  0.00112915  0.87657998  1
  In  In20  1  0.16749537  0.33561648  0.36395000  1
  In  In21  1  0.15456221  0.32796614  0.87341978  1
  In  In22  1  0.16626075  0.67248840  0.37015292  1
  In  In23  1  0.16052029  0.67887102  0.87899729  1
  In  In24  1  0.50719955  0.00809452  0.36847192  1
  In  In25  1  0.50340536  -0.00436973  0.88103573  1
  In  In26  1  0.49104702  0.33603383  0.37823417  1
  In  In27  1  0.50567538  0.32463336  0.88303603  1
  In  In28  1  0.48357676  0.66163952  0.37039858  1
  In  In29  1  0.49766314  0.67352095  0.88836701  1
  In  In30  1  0.82470489  0.00629807  0.38423612  1
  In  In31  1  0.83330786  0.00101586  0.86485159  1
  In  In32  1  0.83063621  0.31708831  0.37209491  1
  In  In33  1  0.83889555  0.34049803  0.86898044  1
  In  In34  1  0.84892218  0.66745694  0.37724626  1
  In  In35  1  0.83658155  0.65366971  0.87722014  1
  In  In36  1  -0.01555622  0.16863343  0.37397045  1
  In  In37  1  0.00784486  0.16387088  0.86498967  1
  In  In38  1  0.00494503  0.50417095  0.36639189  1
  In  In39  1  -0.00776884  0.49438456  0.87152194  1
  In  In40  1  0.00514241  0.82322401  0.38907126  1
  In  In41  1  0.01121490  0.83946737  0.86347546  1
  In  In42  1  0.34246769  0.17637632  0.36581317  1
  In  In43  1  0.33097952  0.16860735  0.88648113  1
  In  In44  1  0.34115794  0.50228404  0.36235681  1
  In  In45  1  0.33790264  0.50961440  0.88396225  1
  In  In46  1  0.32147169  0.82298325  0.36469970  1
  In  In47  1  0.33612730  0.83657456  0.88370069  1
  In  In48  1  0.67506527  0.15271936  0.38130495  1
  In  In49  1  0.65606057  0.15789609  0.86735178  1
  In  In50  1  0.65877487  0.48380125  0.37503288  1
  In  In51  1  0.67485173  0.49508900  0.88055048  1
  In  In52  1  0.66496960  0.85076004  0.37608345  1
  In  In53  1  0.65639712  0.84058043  0.87211958  1
  In  In54  1  0.17853523  0.01012308  0.11553779  1
  In  In55  1  0.16717204  -0.01329580  0.62691288  1
  In  In56  1  0.17561058  0.32809258  0.12916260  1
  In  In57  1  0.14899592  0.32711436  0.62734536  1
  In  In58  1  0.15898330  0.67784949  0.12615101  1
  In  In59  1  0.14827220  0.67794093  0.63190774  1
  In  In60  1  0.49839059  0.00094231  0.12542902  1
  In  In61  1  0.49255133  0.01233548  0.62644969  1
  In  In62  1  0.49883072  0.32955142  0.12252729  1
  In  In63  1  0.51047251  0.33793831  0.62305065  1
  In  In64  1  0.49016861  0.65725033  0.12335564  1
  In  In65  1  0.51122745  0.66341756  0.62281061  1
  In  In66  1  0.83293947  -0.00220945  0.13203259  1
  In  In67  1  0.83222423  0.00077514  0.62701782  1
  In  In68  1  0.82787133  0.34494680  0.12550642  1
  In  In69  1  0.83770749  0.32060751  0.62829370  1
  In  In70  1  0.85407999  0.66398318  0.12457677  1
  In  In71  1  0.84244573  0.68375530  0.61715432  1
  In  In72  1  0.17013833  0.49964584  0.00356495  1
  In  In73  1  0.32814805  0.33105101  0.75792255  1
  In  In74  1  0.32956276  0.67173393  0.76131311  1
  In  In75  1  0.16583587  0.16410410  0.50303663  1
  In  In76  1  -0.00081225  -0.00114700  0.25324732  1
  In  In77  1  0.83501964  0.17001082  -0.00604536  1
  In  In78  1  0.17386366  0.50673700  0.48909645  1
  In  In79  1  0.33016934  0.00030340  0.74890924  1
  In  In80  1  0.83574147  0.82930459  -0.00011368  1
  In  In81  1  0.66261408  0.66732438  0.25162475  1
  In  In82  1  0.49886294  0.83293184  0.49670290  1
  In  In83  1  0.66520686  0.32763454  0.24632314  1
  In  In84  1  0.83112424  0.50006431  0.50502261  1
  In  In85  1  0.67351563  0.66631117  0.74833230  1
  Cu  Cu86  1  0.50442926  0.50253386  0.75208807  1
  Cu  Cu87  1  0.33572420  -0.00171879  0.00444937  1
  Cu  Cu88  1  0.33357481  -0.00094862  0.49487573  1
  Cu  Cu89  1  0.83799789  0.83514458  0.74619604  1
  Cu  Cu90  1  0.00864787  -0.00861069  -0.00211206  1
  Cu  Cu91  1  0.66449470  0.66261724  0.49899168  1
  Cu  Cu92  1  0.83196619  0.49644783  0.74908771  1
  Cu  Cu93  1  0.32670691  0.66608970  0.49286263  1
  Cu  Cu94  1  0.66584971  0.66896468  0.00209608  1
  Cu  Cu95  1  0.33758453  0.66592347  0.00748662  1
  Cu  Cu96  1  0.82626926  0.16817450  0.74953812  1
  Cu  Cu97  1  0.84153138  0.50434501  0.24629747  1
  Cu  Cu98  1  -0.00106825  0.33143463  -0.00543569  1
  Cu  Cu99  1  0.15725033  0.49354936  0.75088091  1
  Cu  Cu100  1  0.16642693  0.83588111  0.24771978  1
  Cu  Cu101  1  0.66466254  0.33663561  -0.00082792  1
  Cu  Cu102  1  0.66825413  0.00026788  0.50413288  1
  Cu  Cu103  1  0.83622351  0.83520419  0.25057987  1
  Cu  Cu104  1  0.50168429  0.16996855  0.75059970  1
  Cu  Cu105  1  0.34538042  0.33004444  0.49950757  1
  Cu  Cu106  1  0.50015361  0.16324307  0.24781968  1
  Cu  Cu107  1  0.33430826  0.33063925  0.00911058  1
  Cu  Cu108  1  0.49639537  0.83811187  0.24897109  1
  Cu  Cu109  1  0.17003668  0.16582840  0.24519544  1
  Cu  Cu110  1  0.65944396  0.00635466  -0.00019510  1
  Cu  Cu111  1  0.16514096  0.50219565  0.24434764  1
  Cu  Cu112  1  -0.00733859  -0.00200630  0.50308464  1
  Cu  Cu113  1  0.66103450  0.32068643  0.49803378  1
  Cu  Cu114  1  -0.00422967  0.33483757  0.50045548  1
  Se  Se115  1  0.08712361  0.08390109  0.04673181  1
  Se  Se116  1  0.07434590  0.07874079  0.56386867  1
  Se  Se117  1  0.07808569  0.40783693  0.06009355  1
  Se  Se118  1  0.07968603  0.41876138  0.55355864  1
  Se  Se119  1  0.08542187  0.74602133  0.04542513  1
  Se  Se120  1  0.08750218  0.76068006  0.55557807  1
  Se  Se121  1  0.41818234  0.08526713  0.05567380  1
  Se  Se122  1  0.41884841  0.08194956  0.54566674  1
  Se  Se123  1  0.41593395  0.41930698  0.05793455  1
  Se  Se124  1  0.42363933  0.41754824  0.55366414  1
  Se  Se125  1  0.42133493  0.75364594  0.05666691  1
  Se  Se126  1  0.40886065  0.74178790  0.55809181  1
  Se  Se127  1  0.74812518  0.07986507  0.05834021  1
  Se  Se128  1  0.75082484  0.08521095  0.55714312  1
  Se  Se129  1  0.75295165  0.41859693  0.04832803  1
  Se  Se130  1  0.73989279  0.40487985  0.55916641  1
  Se  Se131  1  0.74592910  0.74527597  0.06597253  1
  Se  Se132  1  0.74575158  0.74958854  0.54905567  1
  Se  Se133  1  0.24770815  0.24479496  0.05532843  1
  Se  Se134  1  0.25649450  0.26106508  0.56105252  1
  Se  Se135  1  0.25885513  0.58411113  0.06784793  1
  Se  Se136  1  0.25205946  0.59193936  0.56277710  1
  Se  Se137  1  0.24992228  0.91127921  0.05295516  1
  Se  Se138  1  0.24845236  0.91898418  0.54826577  1
  Se  Se139  1  0.58322476  0.25057631  0.05140711  1
  Se  Se140  1  0.57797330  0.24196265  0.55580602  1
  Se  Se141  1  0.58249561  0.58468781  0.05474934  1
  Se  Se142  1  0.57808115  0.57925803  0.54736864  1
  Se  Se143  1  0.58252108  0.91868880  0.05421824  1
  Se  Se144  1  0.58539535  0.91906449  0.56267686  1
  Se  Se145  1  0.92193227  0.25404891  0.06068684  1
  Se  Se146  1  0.91746199  0.24706326  0.55277740  1
  Se  Se147  1  0.91680123  0.58341500  0.04711058  1
  Se  Se148  1  0.92937004  0.59194753  0.55345627  1
  Se  Se149  1  0.92499032  0.92144010  0.06185296  1
  Se  Se150  1  0.91299253  0.91446655  0.55907431  1
  Se  Se151  1  0.08165340  0.25820421  0.44090068  1
  Se  Se152  1  0.07862632  0.24325772  0.94412154  1
  Se  Se153  1  0.07277577  0.59486689  0.44155230  1
  Se  Se154  1  0.07868881  0.58189259  0.94066568  1
  Se  Se155  1  0.08244128  0.91910556  0.45181446  1
  Se  Se156  1  0.08894317  0.90724020  0.94401427  1
  Se  Se157  1  0.42121679  0.24034123  0.44663622  1
  Se  Se158  1  0.41753637  0.24957254  0.95212380  1
  Se  Se159  1  0.40982393  0.57912377  0.44412229  1
  Se  Se160  1  0.42219814  0.58207972  0.95546956  1
  Se  Se161  1  0.41076237  0.91787087  0.43254636  1
  Se  Se162  1  0.42123834  0.91603165  0.95151998  1
  Se  Se163  1  0.75287220  0.24455142  0.44806262  1
  Se  Se164  1  0.74106255  0.25605677  0.93530129  1
  Se  Se165  1  0.74249865  0.58333990  0.43631773  1
  Se  Se166  1  0.74947936  0.58513410  0.94958473  1
  Se  Se167  1  0.75019213  0.91443517  0.45238765  1
  Se  Se168  1  0.74709440  0.92689028  0.94330832  1
  Se  Se169  1  0.25314585  0.08146860  0.43584013  1
  Se  Se170  1  0.24997635  0.07675045  0.94773125  1
  Se  Se171  1  0.26130551  0.40580427  0.43865453  1
  Se  Se172  1  0.25648608  0.40480557  0.94093599  1
  Se  Se173  1  0.24501499  0.75317415  0.44394209  1
  Se  Se174  1  0.25730750  0.74337842  0.94692853  1
  Se  Se175  1  0.58240301  0.07847177  0.44831038  1
  Se  Se176  1  0.57787828  0.09110514  0.94699280  1
  Se  Se177  1  0.57990513  0.41075682  0.44942164  1
  Se  Se178  1  0.58042962  0.42109622  0.94658301  1
  Se  Se179  1  0.58656676  0.74156210  0.43442797  1
  Se  Se180  1  0.58937363  0.75743890  0.94883488  1
  Se  Se181  1  0.91583176  0.08630740  0.44959194  1
  Se  Se182  1  0.92357284  0.07166875  0.94070483  1
  Se  Se183  1  0.91932580  0.41587615  0.43804027  1
  Se  Se184  1  0.91355486  0.41657215  0.94637481  1
  Se  Se185  1  0.90529134  0.75544489  0.45264217  1
  Se  Se186  1  0.92457132  0.74879352  0.93516891  1
  Se  Se187  1  0.25208399  0.25160597  0.29872090  1
  Se  Se188  1  0.23922147  0.23358306  0.80928704  1
  Se  Se189  1  0.24514602  0.58365049  0.30392635  1
  Se  Se190  1  0.23902203  0.57063619  0.81205669  1
  Se  Se191  1  0.24984762  0.92056392  0.29948714  1
  Se  Se192  1  0.24702433  0.90622954  0.80928599  1
  Se  Se193  1  0.58063594  0.24056938  0.31229646  1
  Se  Se194  1  0.58251282  0.25645094  0.80332225  1
  Se  Se195  1  0.57490503  0.57146502  0.30733101  1
  Se  Se196  1  0.57981306  0.58567262  0.81346061  1
  Se  Se197  1  0.58458678  0.91942886  0.29967141  1
  Se  Se198  1  0.58780382  0.93153702  0.80425187  1
  Se  Se199  1  0.92714001  0.26161319  0.30164843  1
  Se  Se200  1  0.91346858  0.24587958  0.80511969  1
  Se  Se201  1  0.92086928  0.58998810  0.30036719  1
  Se  Se202  1  0.91506783  0.58155081  0.80071527  1
  Se  Se203  1  0.91361017  0.91111128  0.31721561  1
  Se  Se204  1  0.91967337  0.91964572  0.79964696  1
  Se  Se205  1  0.09106063  0.09185056  0.31187723  1
  Se  Se206  1  0.07528773  0.06431779  0.80130716  1
  Se  Se207  1  0.08192912  0.41770411  0.29819276  1
  Se  Se208  1  0.07521869  0.40962538  0.80357092  1
  Se  Se209  1  0.08046971  0.75893828  0.30571669  1
  Se  Se210  1  0.08325415  0.74140953  0.79979356  1
  Se  Se211  1  0.41465373  0.08024106  0.30047709  1
  Se  Se212  1  0.41829382  0.09231332  0.81071255  1
  Se  Se213  1  0.41469017  0.40546201  0.30090316  1
  Se  Se214  1  0.42149555  0.42528567  0.81221625  1
  Se  Se215  1  0.41501673  0.74935741  0.29843906  1
  Se  Se216  1  0.42920889  0.76074430  0.81109808  1
  Se  Se217  1  0.75926799  0.08671312  0.30650361  1
  Se  Se218  1  0.74438676  0.08093363  0.80003911  1
  Se  Se219  1  0.75952037  0.42286937  0.30422471  1
  Se  Se220  1  0.74581522  0.41711548  0.80256412  1
  Se  Se221  1  0.75447349  0.75611802  0.31177008  1
  Se  Se222  1  0.75971445  0.75726482  0.81155220  1
  Se  Se223  1  0.25311891  0.08006895  0.19513195  1
  Se  Se224  1  0.24052985  0.09311064  0.69019322  1
  Se  Se225  1  0.25124236  0.41491786  0.19883431  1
  Se  Se226  1  0.24395873  0.42189749  0.69056616  1
  Se  Se227  1  0.24918655  0.75050298  0.19547484  1
  Se  Se228  1  0.24861221  0.75903500  0.69314588  1
  Se  Se229  1  0.58588392  0.08077808  0.19584670  1
  Se  Se230  1  0.58074217  0.08316633  0.69691621  1
  Se  Se231  1  0.57705371  0.42457024  0.19301087  1
  Se  Se232  1  0.58488014  0.41824160  0.69854941  1
  Se  Se233  1  0.57933324  0.75917484  0.18851040  1
  Se  Se234  1  0.57647430  0.75730406  0.69472316  1
  Se  Se235  1  0.91411216  0.09385335  0.19352637  1
  Se  Se236  1  0.91186839  0.08598215  0.69675900  1
  Se  Se237  1  0.92020001  0.41864328  0.19180879  1
  Se  Se238  1  0.91509423  0.41099188  0.69540629  1
  Se  Se239  1  0.92016911  0.75269840  0.19838718  1
  Se  Se240  1  0.92074410  0.74910174  0.69580513  1
  Se  Se241  1  0.08416480  0.24906574  0.19523807  1
  Se  Se242  1  0.08350443  0.24891697  0.70339290  1
  Se  Se243  1  0.08154712  0.58764744  0.19340654  1
  Se  Se244  1  0.07956810  0.58086443  0.69722066  1
  Se  Se245  1  0.08820723  0.91721646  0.18600868  1
  Se  Se246  1  0.08040026  0.92364603  0.70054216  1
  Se  Se247  1  0.41949791  0.24985375  0.19491814  1
  Se  Se248  1  0.41703711  0.24656245  0.69081501  1
  Se  Se249  1  0.41700187  0.59207425  0.20438793  1
  Se  Se250  1  0.42092133  0.58243699  0.69516939  1
  Se  Se251  1  0.41319830  0.92054215  0.19463950  1
  Se  Se252  1  0.42573436  0.90867771  0.69342745  1
  Se  Se253  1  0.76072373  0.23990413  0.19024014  1
  Se  Se254  1  0.74329032  0.25300280  0.69704154  1
  Se  Se255  1  0.75371516  0.57989486  0.18842342  1
  Se  Se256  1  0.76069454  0.57886500  0.68280738  1
  Se  Se257  1  0.75100483  0.92192011  0.20427296  1
  Se  Se258  1  0.74916488  0.91708483  0.69782942  1
