# generated using pymatgen
data_In86Cu29Se144
_symmetry_space_group_name_H-M   'P 1'
_cell_length_a   17.58714787
_cell_length_b   17.59084827
_cell_length_c   23.44318754
_cell_angle_alpha   90.01939980
_cell_angle_beta   90.01161237
_cell_angle_gamma   89.98990987
_symmetry_Int_Tables_number   1
_chemical_formula_structural   In86Cu29Se144
_chemical_formula_sum   'In86 Cu29 Se144'
_cell_volume   7252.68505867
_cell_formula_units_Z   1
loop_
 _symmetry_equiv_pos_site_id
 _symmetry_equiv_pos_as_xyz
  1  'x, y, z'
loop_
 _atom_site_type_symbol
 _atom_site_label
 _atom_site_symmetry_multiplicity
 _atom_site_fract_x
 _atom_site_fract_y
 _atom_site_fract_z
 _atom_site_occupancy
  In  In0  1  0.00206311  0.18250432  0.12243832  1
  In  In1  1  -0.01769596  0.17471114  0.64436050  1
  In  In2  1  -0.00646192  0.50802344  0.12789157  1
  In  In3  1  -0.00597382  0.50760325  0.62562524  1
  In  In4  1  -0.00827652  0.82197555  0.12128266  1
  In  In5  1  -0.00191854  0.83155302  0.62798587  1
  In  In6  1  0.34333695  0.16186121  0.11954672  1
  In  In7  1  0.35069426  0.16623406  0.62870631  1
  In  In8  1  0.34856642  0.50982686  0.12803300  1
  In  In9  1  0.33620220  0.50150507  0.63799643  1
  In  In10  1  0.32670053  0.82302068  0.12083251  1
  In  In11  1  0.31757596  0.82912487  0.62448462  1
  In  In12  1  0.66479352  0.16380008  0.11452413  1
  In  In13  1  0.66938876  0.17459294  0.64100203  1
  In  In14  1  0.67427139  0.50801004  0.11251282  1
  In  In15  1  0.67709999  0.48567004  0.63059380  1
  In  In16  1  0.66432606  0.84303679  0.12850635  1
  In  In17  1  0.68270489  0.82797946  0.62679728  1
  In  In18  1  0.14998794  -0.00274876  0.38029424  1
  In  In19  1  0.14686876  -0.00620629  0.87948560  1
  In  In20  1  0.15995078  0.34942875  0.37994093  1
  In  In21  1  0.16022667  0.32298500  0.86096431  1
  In  In22  1  0.16832966  0.67137305  0.37099402  1
  In  In23  1  0.16978090  0.67464387  0.87165342  1
  In  In24  1  0.51380085  0.00233313  0.37288904  1
  In  In25  1  0.51148603  -0.00928564  0.87831410  1
  In  In26  1  0.49352666  0.33110583  0.37613785  1
  In  In27  1  0.50519856  0.33679986  0.88048271  1
  In  In28  1  0.50181884  0.66293049  0.35568443  1
  In  In29  1  0.50139349  0.67148021  0.88742870  1
  In  In30  1  0.81744028  -0.00539169  0.37346098  1
  In  In31  1  0.84193851  0.01573703  0.86364378  1
  In  In32  1  0.84700952  0.33768525  0.37738615  1
  In  In33  1  0.82695253  0.33243352  0.87525355  1
  In  In34  1  0.83479484  0.66726614  0.37336850  1
  In  In35  1  0.82851671  0.64478056  0.87816387  1
  In  In36  1  -0.01276875  0.17229195  0.37733498  1
  In  In37  1  -0.02113560  0.15608680  0.85226412  1
  In  In38  1  -0.01074876  0.49852248  0.37344020  1
  In  In39  1  -0.01245597  0.48708299  0.86495345  1
  In  In40  1  0.01037744  0.81793090  0.39342625  1
  In  In41  1  0.00804705  0.84105497  0.87264493  1
  In  In42  1  0.34337656  0.18051993  0.37810788  1
  In  In43  1  0.33589131  0.17718703  0.87354771  1
  In  In44  1  0.32556016  0.50283131  0.37056445  1
  In  In45  1  0.34126270  0.50713241  0.87097733  1
  In  In46  1  0.33170434  0.82147761  0.37440598  1
  In  In47  1  0.34042088  0.82199884  0.88196761  1
  In  In48  1  0.66682091  0.15571192  0.37330995  1
  In  In49  1  0.67400496  0.17109435  0.87562187  1
  In  In50  1  0.66522133  0.51297730  0.36928032  1
  In  In51  1  0.68045302  0.48766063  0.90076342  1
  In  In52  1  0.67023255  0.83295798  0.36838245  1
  In  In53  1  0.65332152  0.83021780  0.87613280  1
  In  In54  1  0.17819611  0.00041522  0.11917116  1
  In  In55  1  0.15855883  -0.01918975  0.62214952  1
  In  In56  1  0.15413692  0.33138752  0.12469153  1
  In  In57  1  0.16398147  0.34227880  0.63604265  1
  In  In58  1  0.15872810  0.67546518  0.13241779  1
  In  In59  1  0.15294401  0.68105940  0.63382111  1
  In  In60  1  0.51311986  0.01150865  0.11345598  1
  In  In61  1  0.50109073  0.01509657  0.62905149  1
  In  In62  1  0.52775360  0.35408015  0.09000334  1
  In  In63  1  0.51777558  0.32765865  0.63871448  1
  In  In64  1  0.50230863  0.66466720  0.12533924  1
  In  In65  1  0.49977864  0.65031435  0.62831147  1
  In  In66  1  0.82223016  -0.00964756  0.12261858  1
  In  In67  1  0.83980216  -0.00499349  0.64174019  1
  In  In68  1  0.83872201  0.34474364  0.10959764  1
  In  In69  1  0.82917710  0.33532941  0.63034494  1
  In  In70  1  0.84149155  0.66050332  0.12924715  1
  In  In71  1  0.85499758  0.67962812  0.60560795  1
  In  In72  1  0.16498831  0.16234593  -0.00707412  1
  In  In73  1  0.83128161  0.16377534  0.51240739  1
  In  In74  1  0.66818320  0.33841684  0.23309848  1
  In  In75  1  0.50377948  0.49800919  0.49441287  1
  In  In76  1  0.33704663  0.33847648  0.24543971  1
  In  In77  1  0.50177121  0.83336500  0.49386974  1
  In  In78  1  0.33054587  -0.00509481  0.74735266  1
  In  In79  1  0.33605213  0.00030111  0.24338803  1
  In  In80  1  0.83466715  0.83476084  -0.00242549  1
  In  In81  1  0.17002713  0.50254194  -0.00858069  1
  In  In82  1  0.16373386  0.50609579  0.50541002  1
  In  In83  1  0.66620954  0.65916635  0.75433158  1
  In  In84  1  -0.00912764  -0.00718635  0.24881800  1
  In  In85  1  0.16602814  0.16007443  0.50636159  1
  Cu  Cu86  1  0.32753609  0.66909060  0.49926287  1
  Cu  Cu87  1  0.83679585  0.82946259  0.74996314  1
  Cu  Cu88  1  0.66131102  0.00236344  0.50077289  1
  Cu  Cu89  1  0.34008648  -0.00797574  -0.00227109  1
  Cu  Cu90  1  0.82919390  0.50237013  0.75121134  1
  Cu  Cu91  1  0.34559348  0.32915050  0.50845687  1
  Cu  Cu92  1  -0.00334644  0.66034302  0.00180220  1
  Cu  Cu93  1  -0.00899640  0.33482894  -0.00807055  1
  Cu  Cu94  1  0.50334483  0.83452587  0.24500796  1
  Cu  Cu95  1  0.83480495  0.49735604  0.24634843  1
  Cu  Cu96  1  0.17009534  0.50268597  0.75289870  1
  Cu  Cu97  1  0.16359142  0.82938207  0.75113564  1
  Cu  Cu98  1  0.15823838  0.17935312  0.25115317  1
  Cu  Cu99  1  0.16337360  0.83301229  0.25119656  1
  Cu  Cu100  1  0.49611615  0.82815557  0.75626375  1
  Cu  Cu101  1  0.16084226  0.50486010  0.25195869  1
  Cu  Cu102  1  0.33468645  0.33225341  -0.00498601  1
  Cu  Cu103  1  0.83253676  0.16784603  0.25171322  1
  Cu  Cu104  1  0.50364372  0.17105745  0.75610895  1
  Cu  Cu105  1  0.50766955  0.17027955  0.23955955  1
  Cu  Cu106  1  0.50192631  0.49776239  0.75865026  1
  Cu  Cu107  1  0.67629777  0.66187220  0.49514448  1
  Cu  Cu108  1  0.33396297  0.66983944  0.00188006  1
  Cu  Cu109  1  0.67239226  0.00375028  -0.00536004  1
  Cu  Cu110  1  0.83064157  0.82515268  0.25055975  1
  Cu  Cu111  1  0.33318685  0.00194438  0.50622268  1
  Cu  Cu112  1  -0.00760992  -0.00601338  0.50902507  1
  Cu  Cu113  1  0.66844176  0.32382694  0.50879149  1
  Cu  Cu114  1  0.16754077  0.16274581  0.74996370  1
  Se  Se115  1  0.07750983  0.07902210  0.05958141  1
  Se  Se116  1  0.06751535  0.08130893  0.56779319  1
  Se  Se117  1  0.07557919  0.41425066  0.05128681  1
  Se  Se118  1  0.07839729  0.40819888  0.55932743  1
  Se  Se119  1  0.08029687  0.74469532  0.05337672  1
  Se  Se120  1  0.08227409  0.75401978  0.55666034  1
  Se  Se121  1  0.41906784  0.08390886  0.04606897  1
  Se  Se122  1  0.42066844  0.08502255  0.55226732  1
  Se  Se123  1  0.40675957  0.42138293  0.05110319  1
  Se  Se124  1  0.42179825  0.41521530  0.56633829  1
  Se  Se125  1  0.42013260  0.75090017  0.05503001  1
  Se  Se126  1  0.41627455  0.74216648  0.55927219  1
  Se  Se127  1  0.75700666  0.08137134  0.05116067  1
  Se  Se128  1  0.74080687  0.07239920  0.56847942  1
  Se  Se129  1  0.72826020  0.39807953  0.05022657  1
  Se  Se130  1  0.75298140  0.41256262  0.55347713  1
  Se  Se131  1  0.75189661  0.75041067  0.06505364  1
  Se  Se132  1  0.75083214  0.75266216  0.54757336  1
  Se  Se133  1  0.25222643  0.25625394  0.05710082  1
  Se  Se134  1  0.25650021  0.25465553  0.56465900  1
  Se  Se135  1  0.24985349  0.58969417  0.06083332  1
  Se  Se136  1  0.25728645  0.59064091  0.56635445  1
  Se  Se137  1  0.25264682  0.91384636  0.05088636  1
  Se  Se138  1  0.24862736  0.91351933  0.54984658  1
  Se  Se139  1  0.57594767  0.23298744  0.04340719  1
  Se  Se140  1  0.58608990  0.24339236  0.56298680  1
  Se  Se141  1  0.57360575  0.57877581  0.05258494  1
  Se  Se142  1  0.59681922  0.58374169  0.55738505  1
  Se  Se143  1  0.59137478  0.91855381  0.04961838  1
  Se  Se144  1  0.58562569  0.91783516  0.56293956  1
  Se  Se145  1  0.91556171  0.24696974  0.04765979  1
  Se  Se146  1  0.92674086  0.25734524  0.56004957  1
  Se  Se147  1  0.91104864  0.57748314  0.05190248  1
  Se  Se148  1  0.91442100  0.57229840  0.54646455  1
  Se  Se149  1  0.92681397  0.92592703  0.05627187  1
  Se  Se150  1  0.90706558  0.91539314  0.56321013  1
  Se  Se151  1  0.08028873  0.25225571  0.44442950  1
  Se  Se152  1  0.07437572  0.25314861  0.93644925  1
  Se  Se153  1  0.07865795  0.58957303  0.43921342  1
  Se  Se154  1  0.07259945  0.58540820  0.93415396  1
  Se  Se155  1  0.08299265  0.91700900  0.45669129  1
  Se  Se156  1  0.08408247  0.90684917  0.95305394  1
  Se  Se157  1  0.42758431  0.24782661  0.45332018  1
  Se  Se158  1  0.41977114  0.24729880  0.94660901  1
  Se  Se159  1  0.41071505  0.59265173  0.43895615  1
  Se  Se160  1  0.41288186  0.58292099  0.94914214  1
  Se  Se161  1  0.40879947  0.92669753  0.43680180  1
  Se  Se162  1  0.42479507  0.90960501  0.94534700  1
  Se  Se163  1  0.74796886  0.24926967  0.44121197  1
  Se  Se164  1  0.74383239  0.25895116  0.94847869  1
  Se  Se165  1  0.75518921  0.57619637  0.44169833  1
  Se  Se166  1  0.73654531  0.60194452  0.95622580  1
  Se  Se167  1  0.73877698  0.91566477  0.44613373  1
  Se  Se168  1  0.74993465  0.92334910  0.93264272  1
  Se  Se169  1  0.25763434  0.07907861  0.43736349  1
  Se  Se170  1  0.25964329  0.07105959  0.93514372  1
  Se  Se171  1  0.26447462  0.41133711  0.44983210  1
  Se  Se172  1  0.25157591  0.40438330  0.93249739  1
  Se  Se173  1  0.24501806  0.75225878  0.44656859  1
  Se  Se174  1  0.24619671  0.74917622  0.94898811  1
  Se  Se175  1  0.58061181  0.08783311  0.44822587  1
  Se  Se176  1  0.58618163  0.08477322  0.94212467  1
  Se  Se177  1  0.59735753  0.40440085  0.43998166  1
  Se  Se178  1  0.56477878  0.43087700  0.95389367  1
  Se  Se179  1  0.58560425  0.73504283  0.43703619  1
  Se  Se180  1  0.58942716  0.75048122  0.95359227  1
  Se  Se181  1  0.91613015  0.07210140  0.44407970  1
  Se  Se182  1  0.92595360  0.08379052  0.93856256  1
  Se  Se183  1  0.92348215  0.41441813  0.44964828  1
  Se  Se184  1  0.90788721  0.42360398  0.94442614  1
  Se  Se185  1  0.89669732  0.76161075  0.44567632  1
  Se  Se186  1  0.92082571  0.74093619  0.93733832  1
  Se  Se187  1  0.24333736  0.25286648  0.31116002  1
  Se  Se188  1  0.25542060  0.24658595  0.79726430  1
  Se  Se189  1  0.24884983  0.58694859  0.30155110  1
  Se  Se190  1  0.25153129  0.58706869  0.80593801  1
  Se  Se191  1  0.24143201  0.91862345  0.30901693  1
  Se  Se192  1  0.24508940  0.90875788  0.81269864  1
  Se  Se193  1  0.58298042  0.25023326  0.30457225  1
  Se  Se194  1  0.58549545  0.25538072  0.80902474  1
  Se  Se195  1  0.58448438  0.57746026  0.29307930  1
  Se  Se196  1  0.58240587  0.57489352  0.82099516  1
  Se  Se197  1  0.58437954  0.91714598  0.30141501  1
  Se  Se198  1  0.58384677  0.91367298  0.80016171  1
  Se  Se199  1  0.91583487  0.25233638  0.30223685  1
  Se  Se200  1  0.92603454  0.27511499  0.80465824  1
  Se  Se201  1  0.91443964  0.58314247  0.30178629  1
  Se  Se202  1  0.91606619  0.58605680  0.80066235  1
  Se  Se203  1  0.91069811  0.90373752  0.31459743  1
  Se  Se204  1  0.91794030  0.91458799  0.80381334  1
  Se  Se205  1  0.08229253  0.09134520  0.30695464  1
  Se  Se206  1  0.08558623  0.07742925  0.80126219  1
  Se  Se207  1  0.07988060  0.41923658  0.30495119  1
  Se  Se208  1  0.08249089  0.41633194  0.79838125  1
  Se  Se209  1  0.07841896  0.75474911  0.30699469  1
  Se  Se210  1  0.07767887  0.74699130  0.80321950  1
  Se  Se211  1  0.42428958  0.09554027  0.30338735  1
  Se  Se212  1  0.42106892  0.08258610  0.80883929  1
  Se  Se213  1  0.42744552  0.42824427  0.30647380  1
  Se  Se214  1  0.41678987  0.41150774  0.80795441  1
  Se  Se215  1  0.41572730  0.75657972  0.29886513  1
  Se  Se216  1  0.41882459  0.74188946  0.80922858  1
  Se  Se217  1  0.74861619  0.08171931  0.29986537  1
  Se  Se218  1  0.74341222  0.08481482  0.80153677  1
  Se  Se219  1  0.75433204  0.41660847  0.30614536  1
  Se  Se220  1  0.74543946  0.42837663  0.81190687  1
  Se  Se221  1  0.74484133  0.74154767  0.30196855  1
  Se  Se222  1  0.75654028  0.75227768  0.81292840  1
  Se  Se223  1  0.24092520  0.10031318  0.19279794  1
  Se  Se224  1  0.24251993  0.08407035  0.68405309  1
  Se  Se225  1  0.23951402  0.42635776  0.18749408  1
  Se  Se226  1  0.25526511  0.41522298  0.70368440  1
  Se  Se227  1  0.25029694  0.75191071  0.19943702  1
  Se  Se228  1  0.25275203  0.74690736  0.70139796  1
  Se  Se229  1  0.59090864  0.08292757  0.19149748  1
  Se  Se230  1  0.58408430  0.08360345  0.70323979  1
  Se  Se231  1  0.57153615  0.42682875  0.18222003  1
  Se  Se232  1  0.59102029  0.41985750  0.70550451  1
  Se  Se233  1  0.58721850  0.75069522  0.19335269  1
  Se  Se234  1  0.57731922  0.75204427  0.69094958  1
  Se  Se235  1  0.91153307  0.08921129  0.18747061  1
  Se  Se236  1  0.91066783  0.08446726  0.71053046  1
  Se  Se237  1  0.91474758  0.41318137  0.19026690  1
  Se  Se238  1  0.91384942  0.42272643  0.69474144  1
  Se  Se239  1  0.92021474  0.74684029  0.19915831  1
  Se  Se240  1  0.91495825  0.74355496  0.69452428  1
  Se  Se241  1  0.07302859  0.26106770  0.20037873  1
  Se  Se242  1  0.08496899  0.25098367  0.70022297  1
  Se  Se243  1  0.07725165  0.58712739  0.19739898  1
  Se  Se244  1  0.08450056  0.58032914  0.69566745  1
  Se  Se245  1  0.08957977  0.91315619  0.18745208  1
  Se  Se246  1  0.07951195  0.91466229  0.70009521  1
  Se  Se247  1  0.42698041  0.25274169  0.18334222  1
  Se  Se248  1  0.41970176  0.25248855  0.70122748  1
  Se  Se249  1  0.41194264  0.59811697  0.19950024  1
  Se  Se250  1  0.42025466  0.58430111  0.70600867  1
  Se  Se251  1  0.42614756  0.91536883  0.18209059  1
  Se  Se252  1  0.42289312  0.90538933  0.68715892  1
  Se  Se253  1  0.76125330  0.24365364  0.18288061  1
  Se  Se254  1  0.76496884  0.24573278  0.70335762  1
  Se  Se255  1  0.75021887  0.57801808  0.19219025  1
  Se  Se256  1  0.76022463  0.58771631  0.68543819  1
  Se  Se257  1  0.75163192  0.91686837  0.20156938  1
  Se  Se258  1  0.74620098  0.91207217  0.70313761  1
