# generated using pymatgen
data_In86Cu29Se144
_symmetry_space_group_name_H-M   'P 1'
_cell_length_a   17.58662103
_cell_length_b   17.58630037
_cell_length_c   23.44918453
_cell_angle_alpha   89.99995123
_cell_angle_beta   90.01715331
_cell_angle_gamma   90.00571041
_symmetry_Int_Tables_number   1
_chemical_formula_structural   In86Cu29Se144
_chemical_formula_sum   'In86 Cu29 Se144'
_cell_volume   7252.44784567
_cell_formula_units_Z   1
loop_
 _symmetry_equiv_pos_site_id
 _symmetry_equiv_pos_as_xyz
  1  'x, y, z'
loop_
 _atom_site_type_symbol
 _atom_site_label
 _atom_site_symmetry_multiplicity
 _atom_site_fract_x
 _atom_site_fract_y
 _atom_site_fract_z
 _atom_site_occupancy
  In  In0  1  -0.00663535  0.15847487  0.10741354  1
  In  In1  1  -0.00810122  0.17700572  0.63656314  1
  In  In2  1  0.00107675  0.50961573  0.11924073  1
  In  In3  1  -0.00065326  0.50172693  0.62647568  1
  In  In4  1  -0.00058664  0.81895031  0.11846447  1
  In  In5  1  -0.00550892  0.84017747  0.63587771  1
  In  In6  1  0.32289551  0.17426585  0.13136337  1
  In  In7  1  0.31575342  0.16618588  0.63097926  1
  In  In8  1  0.31487413  0.50119824  0.13303883  1
  In  In9  1  0.33474106  0.51707468  0.62490261  1
  In  In10  1  0.33487780  0.83653606  0.12051796  1
  In  In11  1  0.33787069  0.82865462  0.63164327  1
  In  In12  1  0.66374686  0.16310360  0.12367406  1
  In  In13  1  0.68786730  0.16581101  0.62745448  1
  In  In14  1  0.67336157  0.49639433  0.12292465  1
  In  In15  1  0.67663490  0.49112138  0.63358517  1
  In  In16  1  0.67059276  0.84615920  0.12284384  1
  In  In17  1  0.66169643  0.82467322  0.62199384  1
  In  In18  1  0.17106607  -0.01212839  0.36578921  1
  In  In19  1  0.16257991  -0.00739845  0.88304581  1
  In  In20  1  0.17416330  0.33918854  0.36925294  1
  In  In21  1  0.15053294  0.34973492  0.88449994  1
  In  In22  1  0.14818431  0.66317076  0.37166154  1
  In  In23  1  0.16517560  0.66422482  0.87263692  1
  In  In24  1  0.49553945  -0.00780963  0.37167373  1
  In  In25  1  0.48778229  -0.00220056  0.87390832  1
  In  In26  1  0.49269511  0.34210068  0.36859469  1
  In  In27  1  0.50714402  0.32495606  0.87242439  1
  In  In28  1  0.51385102  0.66703295  0.37745438  1
  In  In29  1  0.51199866  0.68033239  0.87166442  1
  In  In30  1  0.82308919  0.00770989  0.38039233  1
  In  In31  1  0.85640093  -0.00276662  0.87996407  1
  In  In32  1  0.83414506  0.33423663  0.38101851  1
  In  In33  1  0.83970859  0.33612950  0.87305745  1
  In  In34  1  0.84222925  0.65824543  0.38596031  1
  In  In35  1  0.82952672  0.65494959  0.87100987  1
  In  In36  1  -0.01335569  0.16371569  0.37489374  1
  In  In37  1  -0.00055367  0.16465128  0.88155350  1
  In  In38  1  -0.00917407  0.50857069  0.38006621  1
  In  In39  1  0.00324237  0.50319184  0.87180098  1
  In  In40  1  -0.00103914  0.81810364  0.37442258  1
  In  In41  1  0.01085930  0.83702527  0.87190269  1
  In  In42  1  0.33129448  0.16352791  0.36512853  1
  In  In43  1  0.33122420  0.15029231  0.87379242  1
  In  In44  1  0.33084312  0.48880363  0.36871014  1
  In  In45  1  0.31408167  0.50375548  0.87897334  1
  In  In46  1  0.33434519  0.84352335  0.37281887  1
  In  In47  1  0.33313879  0.83279816  0.87782053  1
  In  In48  1  0.68681106  0.16213257  0.37296055  1
  In  In49  1  0.67263151  0.18228605  0.87066463  1
  In  In50  1  0.67264647  0.50869089  0.37623942  1
  In  In51  1  0.68609791  0.51667320  0.86795094  1
  In  In52  1  0.66230687  0.83713045  0.38285659  1
  In  In53  1  0.67092814  0.81105252  0.88170840  1
  In  In54  1  0.17064854  0.01073716  0.11148411  1
  In  In55  1  0.16642382  0.00117933  0.63718432  1
  In  In56  1  0.16708678  0.34095586  0.11774426  1
  In  In57  1  0.14945893  0.33166304  0.62694368  1
  In  In58  1  0.13929068  0.64934246  0.09293694  1
  In  In59  1  0.17240442  0.66287515  0.63227254  1
  In  In60  1  0.50539430  -0.00697528  0.12847506  1
  In  In61  1  0.50061561  -0.01684916  0.62507620  1
  In  In62  1  0.49981736  0.32307403  0.13055606  1
  In  In63  1  0.50274894  0.35140253  0.62756804  1
  In  In64  1  0.48985775  0.66734840  0.11870438  1
  In  In65  1  0.49301258  0.67501240  0.63221640  1
  In  In66  1  0.81930603  0.00366619  0.12817293  1
  In  In67  1  0.84228444  0.00653917  0.62311267  1
  In  In68  1  0.83880862  0.34136647  0.11778682  1
  In  In69  1  0.83650204  0.33459914  0.62649913  1
  In  In70  1  0.84815762  0.66552076  0.12453155  1
  In  In71  1  0.83500294  0.66587606  0.62859768  1
  In  In72  1  0.49976580  0.16354756  0.00202833  1
  In  In73  1  0.50491211  0.50638688  0.49551717  1
  In  In74  1  0.16292753  0.83248040  0.49617510  1
  In  In75  1  0.66960997  0.66788184  0.25325365  1
  In  In76  1  0.49912007  0.50073169  0.00314988  1
  In  In77  1  0.83786419  0.83017592  -0.00206185  1
  In  In78  1  0.50318210  0.16271434  0.50131310  1
  In  In79  1  0.33287219  0.33564840  0.75440317  1
  In  In80  1  0.66567911  0.33176841  0.25376905  1
  In  In81  1  0.15628763  0.16737941  0.49493367  1
  In  In82  1  0.32770049  0.66945739  0.24247931  1
  In  In83  1  0.00261268  0.33504711  0.24600735  1
  In  In84  1  -0.00199768  -0.00214218  0.24111223  1
  In  In85  1  0.66874129  -0.00218920  0.74692289  1
  Cu  Cu86  1  0.33640545  -0.00610958  0.49915950  1
  Cu  Cu87  1  0.32676105  0.33846058  0.49179151  1
  Cu  Cu88  1  -0.00269286  0.66580925  0.50414168  1
  Cu  Cu89  1  0.84044305  0.16807184  0.75249195  1
  Cu  Cu90  1  0.83498981  0.83340086  0.24750497  1
  Cu  Cu91  1  0.16984136  0.82834928  0.24294825  1
  Cu  Cu92  1  0.50357716  0.83623717  0.24977485  1
  Cu  Cu93  1  0.33131749  -0.00431770  -0.00188615  1
  Cu  Cu94  1  0.16394050  0.16212372  0.76089709  1
  Cu  Cu95  1  0.50294814  0.50608579  0.75214986  1
  Cu  Cu96  1  0.17115600  0.83420389  0.75647641  1
  Cu  Cu97  1  0.67527220  0.32936412  0.50407426  1
  Cu  Cu98  1  0.49620189  0.83499182  0.75240524  1
  Cu  Cu99  1  0.33098526  0.67046872  0.50595760  1
  Cu  Cu100  1  0.32693463  0.32916511  0.00484929  1
  Cu  Cu101  1  -0.00670595  0.33939562  0.50515582  1
  Cu  Cu102  1  0.33171366  0.67188818  -0.00208893  1
  Cu  Cu103  1  0.50292595  0.16755988  0.75172735  1
  Cu  Cu104  1  -0.00781012  0.00050303  0.50585637  1
  Cu  Cu105  1  0.83607490  0.82785627  0.75583691  1
  Cu  Cu106  1  0.67180250  -0.00562802  0.50432771  1
  Cu  Cu107  1  0.67821859  0.34380050  -0.00724054  1
  Cu  Cu108  1  0.16358602  0.50158888  0.75184541  1
  Cu  Cu109  1  0.83823640  0.49667120  0.74906498  1
  Cu  Cu110  1  0.67144470  0.66735124  0.50432362  1
  Cu  Cu111  1  -0.00327224  0.33489944  -0.00402000  1
  Cu  Cu112  1  0.16667726  0.16533310  0.24210742  1
  Cu  Cu113  1  0.49851849  0.15538919  0.24933605  1
  Cu  Cu114  1  0.66550038  0.00120945  0.00114672  1
  Se  Se115  1  0.07637869  0.07570341  0.04293520  1
  Se  Se116  1  0.07696258  0.07916524  0.56336250  1
  Se  Se117  1  0.07786180  0.41757570  0.05216061  1
  Se  Se118  1  0.08287518  0.41933784  0.55468931  1
  Se  Se119  1  0.08189111  0.76211959  0.03781260  1
  Se  Se120  1  0.07902591  0.74766668  0.56310364  1
  Se  Se121  1  0.40845817  0.07753237  0.06200135  1
  Se  Se122  1  0.40564802  0.08012234  0.56229490  1
  Se  Se123  1  0.41065359  0.40769491  0.06332347  1
  Se  Se124  1  0.40797192  0.41564747  0.55355144  1
  Se  Se125  1  0.41684589  0.75418298  0.04960957  1
  Se  Se126  1  0.41652545  0.75280485  0.55610148  1
  Se  Se127  1  0.74750776  0.08616194  0.05244357  1
  Se  Se128  1  0.75459158  0.08268190  0.55259674  1
  Se  Se129  1  0.75723157  0.42643846  0.04914351  1
  Se  Se130  1  0.75313984  0.41791373  0.55661684  1
  Se  Se131  1  0.74697776  0.74615232  0.06199021  1
  Se  Se132  1  0.75536846  0.75051976  0.55714071  1
  Se  Se133  1  0.24311337  0.24334533  0.05426769  1
  Se  Se134  1  0.25101028  0.25752257  0.55444264  1
  Se  Se135  1  0.25717863  0.57966139  0.05028774  1
  Se  Se136  1  0.24556607  0.58532337  0.55336816  1
  Se  Se137  1  0.24762506  0.91281181  0.05091381  1
  Se  Se138  1  0.24993833  0.92144064  0.56025411  1
  Se  Se139  1  0.59367529  0.26390934  0.05207399  1
  Se  Se140  1  0.58819397  0.25676852  0.56351384  1
  Se  Se141  1  0.59278861  0.59205623  0.05799621  1
  Se  Se142  1  0.58839806  0.58752627  0.56541840  1
  Se  Se143  1  0.58148938  0.91715729  0.05155727  1
  Se  Se144  1  0.58308239  0.91196579  0.55220363  1
  Se  Se145  1  0.91113568  0.25256361  0.04795621  1
  Se  Se146  1  0.91757851  0.24770085  0.55714513  1
  Se  Se147  1  0.91676879  0.58678717  0.04866690  1
  Se  Se148  1  0.91397386  0.58164474  0.55727776  1
  Se  Se149  1  0.91545542  0.92358593  0.06391570  1
  Se  Se150  1  0.91583143  0.91066898  0.55776254  1
  Se  Se151  1  0.06993559  0.26338922  0.43702599  1
  Se  Se152  1  0.08522678  0.24947929  0.94906045  1
  Se  Se153  1  0.08143671  0.58419452  0.44992806  1
  Se  Se154  1  0.10315483  0.56442854  0.93973292  1
  Se  Se155  1  0.07198387  0.92793182  0.43947149  1
  Se  Se156  1  0.07612896  0.91455463  0.95215573  1
  Se  Se157  1  0.41010654  0.25293690  0.44051345  1
  Se  Se158  1  0.40857218  0.25485651  0.94172685  1
  Se  Se159  1  0.40726787  0.59228617  0.43863273  1
  Se  Se160  1  0.41263493  0.58868768  0.93841165  1
  Se  Se161  1  0.42026694  0.91169903  0.44726397  1
  Se  Se162  1  0.41928089  0.91440001  0.94818342  1
  Se  Se163  1  0.75460306  0.24598488  0.44840078  1
  Se  Se164  1  0.75622581  0.25179354  0.94394107  1
  Se  Se165  1  0.75083278  0.57987588  0.45218381  1
  Se  Se166  1  0.74826004  0.58971655  0.94955957  1
  Se  Se167  1  0.75513047  0.91289540  0.44883395  1
  Se  Se168  1  0.74513015  0.92299705  0.93778219  1
  Se  Se169  1  0.25356074  0.07343005  0.44065288  1
  Se  Se170  1  0.24867575  0.08246066  0.94837795  1
  Se  Se171  1  0.24320047  0.42446384  0.44429180  1
  Se  Se172  1  0.24744776  0.41704057  0.95279058  1
  Se  Se173  1  0.25410318  0.74285070  0.43627604  1
  Se  Se174  1  0.24576999  0.75008224  0.94300081  1
  Se  Se175  1  0.59284238  0.07498928  0.44085339  1
  Se  Se176  1  0.58996282  0.08110077  0.93551759  1
  Se  Se177  1  0.59312600  0.40529620  0.44127616  1
  Se  Se178  1  0.58872325  0.41765266  0.93627675  1
  Se  Se179  1  0.58423623  0.74823121  0.45188905  1
  Se  Se180  1  0.57869669  0.75167225  0.95342377  1
  Se  Se181  1  0.91339047  0.08479610  0.44929934  1
  Se  Se182  1  0.91199913  0.08993457  0.95244774  1
  Se  Se183  1  0.91221007  0.42144473  0.44848064  1
  Se  Se184  1  0.91768511  0.42250471  0.94199489  1
  Se  Se185  1  0.91680583  0.75316165  0.45199437  1
  Se  Se186  1  0.92259137  0.74265122  0.93443402  1
  Se  Se187  1  0.24542166  0.24744851  0.30107276  1
  Se  Se188  1  0.24393902  0.24977595  0.81718233  1
  Se  Se189  1  0.24216620  0.58084768  0.30659507  1
  Se  Se190  1  0.25140728  0.58461337  0.80014660  1
  Se  Se191  1  0.25382441  0.91196495  0.29483562  1
  Se  Se192  1  0.25129522  0.91994890  0.81052956  1
  Se  Se193  1  0.57542633  0.23635869  0.31326683  1
  Se  Se194  1  0.58829508  0.25408699  0.79687943  1
  Se  Se195  1  0.57346842  0.57040019  0.30437312  1
  Se  Se196  1  0.58719619  0.58877171  0.80478174  1
  Se  Se197  1  0.58772973  0.91493581  0.30617417  1
  Se  Se198  1  0.58332733  0.91024109  0.81213442  1
  Se  Se199  1  0.90616820  0.24667785  0.30371989  1
  Se  Se200  1  0.92373542  0.24925891  0.80762737  1
  Se  Se201  1  0.92305057  0.59703704  0.30763025  1
  Se  Se202  1  0.91985495  0.58328652  0.80088428  1
  Se  Se203  1  0.91450554  0.91322039  0.31049031  1
  Se  Se204  1  0.92112275  0.91492287  0.80267417  1
  Se  Se205  1  0.08756216  0.08972523  0.30741970  1
  Se  Se206  1  0.08132844  0.07835628  0.81317100  1
  Se  Se207  1  0.08420368  0.42757142  0.30863812  1
  Se  Se208  1  0.08090762  0.41399255  0.80051133  1
  Se  Se209  1  0.08298821  0.75207353  0.29818616  1
  Se  Se210  1  0.08428320  0.74752261  0.80225038  1
  Se  Se211  1  0.41275498  0.07404483  0.30265946  1
  Se  Se212  1  0.41792022  0.08260482  0.79976034  1
  Se  Se213  1  0.41160096  0.41420040  0.29684673  1
  Se  Se214  1  0.42275230  0.42697096  0.81469746  1
  Se  Se215  1  0.42462494  0.75194605  0.30814831  1
  Se  Se216  1  0.41459930  0.75024549  0.80630820  1
  Se  Se217  1  0.75404238  0.07854981  0.29936032  1
  Se  Se218  1  0.75847084  0.08428333  0.81022388  1
  Se  Se219  1  0.75922239  0.42556687  0.30774852  1
  Se  Se220  1  0.75235047  0.41596823  0.80365279  1
  Se  Se221  1  0.75798243  0.75666062  0.31427080  1
  Se  Se222  1  0.74875729  0.74414402  0.80298538  1
  Se  Se223  1  0.24793401  0.07558193  0.19342354  1
  Se  Se224  1  0.25020626  0.08278184  0.70626040  1
  Se  Se225  1  0.24904056  0.40294627  0.19686870  1
  Se  Se226  1  0.24593242  0.42209501  0.68930246  1
  Se  Se227  1  0.23717843  0.74664594  0.17629177  1
  Se  Se228  1  0.25167922  0.75061578  0.69920850  1
  Se  Se229  1  0.58671540  0.08041483  0.19477959  1
  Se  Se230  1  0.57825762  0.08949384  0.68585124  1
  Se  Se231  1  0.57805561  0.42318821  0.19200429  1
  Se  Se232  1  0.58469864  0.41772852  0.70310991  1
  Se  Se233  1  0.57890897  0.75347996  0.18882396  1
  Se  Se234  1  0.58251314  0.75358720  0.69904775  1
  Se  Se235  1  0.90907701  0.09594606  0.19056868  1
  Se  Se236  1  0.92020688  0.07868074  0.70043492  1
  Se  Se237  1  0.91142182  0.42827561  0.19164471  1
  Se  Se238  1  0.92208264  0.41330724  0.69572773  1
  Se  Se239  1  0.92058309  0.75084266  0.19755959  1
  Se  Se240  1  0.91907156  0.74578403  0.69975506  1
  Se  Se241  1  0.08180823  0.23885162  0.18257343  1
  Se  Se242  1  0.08667530  0.24780525  0.70380912  1
  Se  Se243  1  0.09288276  0.58568831  0.18491285  1
  Se  Se244  1  0.08125715  0.58475549  0.69683959  1
  Se  Se245  1  0.09034301  0.91057152  0.18296602  1
  Se  Se246  1  0.08492836  0.91627996  0.70280732  1
  Se  Se247  1  0.41724829  0.24409398  0.19964346  1
  Se  Se248  1  0.42198012  0.24707963  0.68880704  1
  Se  Se249  1  0.42421983  0.57489441  0.19151747  1
  Se  Se250  1  0.41521711  0.58648023  0.70054870  1
  Se  Se251  1  0.41626261  0.91324483  0.19478392  1
  Se  Se252  1  0.41356358  0.92013216  0.69995793  1
  Se  Se253  1  0.75420232  0.25123680  0.18720695  1
  Se  Se254  1  0.75580557  0.25175533  0.69986534  1
  Se  Se255  1  0.75848356  0.57895495  0.19347716  1
  Se  Se256  1  0.75225664  0.58302674  0.69885615  1
  Se  Se257  1  0.74727026  0.91733672  0.20089655  1
  Se  Se258  1  0.75941996  0.90735258  0.68983560  1
