# generated using pymatgen
data_In86Cu29Se144
_symmetry_space_group_name_H-M   'P 1'
_cell_length_a   17.58353707
_cell_length_b   17.58426306
_cell_length_c   23.44379320
_cell_angle_alpha   89.98133262
_cell_angle_beta   89.99755828
_cell_angle_gamma   89.96742740
_symmetry_Int_Tables_number   1
_chemical_formula_structural   In86Cu29Se144
_chemical_formula_sum   'In86 Cu29 Se144'
_cell_volume   7248.66787951
_cell_formula_units_Z   1
loop_
 _symmetry_equiv_pos_site_id
 _symmetry_equiv_pos_as_xyz
  1  'x, y, z'
loop_
 _atom_site_type_symbol
 _atom_site_label
 _atom_site_symmetry_multiplicity
 _atom_site_fract_x
 _atom_site_fract_y
 _atom_site_fract_z
 _atom_site_occupancy
  In  In0  1  0.01815759  0.19724930  0.10459483  1
  In  In1  1  -0.01412381  0.16118907  0.61679565  1
  In  In2  1  0.01772236  0.48134040  0.13421460  1
  In  In3  1  0.00459929  0.49471538  0.62252828  1
  In  In4  1  -0.00695845  0.82310374  0.11883795  1
  In  In5  1  0.00739664  0.84600391  0.62716877  1
  In  In6  1  0.33279813  0.16742278  0.12695076  1
  In  In7  1  0.32851984  0.17458583  0.62218610  1
  In  In8  1  0.32890348  0.50307001  0.12066779  1
  In  In9  1  0.34375648  0.50600287  0.62808924  1
  In  In10  1  0.33293438  0.83414221  0.12074289  1
  In  In11  1  0.33431936  0.81880828  0.63071062  1
  In  In12  1  0.67812383  0.17459292  0.11768610  1
  In  In13  1  0.68225957  0.16043108  0.62919173  1
  In  In14  1  0.65519168  0.50486339  0.12740624  1
  In  In15  1  0.66772992  0.50344300  0.64219220  1
  In  In16  1  0.66298871  0.82865088  0.11579944  1
  In  In17  1  0.65553484  0.81550274  0.60596288  1
  In  In18  1  0.18056320  0.00516086  0.36765155  1
  In  In19  1  0.16132455  0.00117751  0.88111537  1
  In  In20  1  0.15471114  0.32233033  0.36120036  1
  In  In21  1  0.16325489  0.33101145  0.89346434  1
  In  In22  1  0.16142963  0.66073575  0.36284845  1
  In  In23  1  0.18034074  0.65815036  0.89051952  1
  In  In24  1  0.48780537  -0.00853920  0.37239373  1
  In  In25  1  0.50727484  -0.00405838  0.88096073  1
  In  In26  1  0.50382577  0.33748345  0.36052359  1
  In  In27  1  0.50270983  0.33342573  0.88588943  1
  In  In28  1  0.49850183  0.68051730  0.37428340  1
  In  In29  1  0.49967349  0.66566354  0.88138517  1
  In  In30  1  0.83538018  -0.00028703  0.38049665  1
  In  In31  1  0.84286753  -0.00947209  0.87609895  1
  In  In32  1  0.82693898  0.32992976  0.36907942  1
  In  In33  1  0.81988005  0.33938958  0.87717489  1
  In  In34  1  0.83462626  0.66460969  0.37795563  1
  In  In35  1  0.83401016  0.67357815  0.87136007  1
  In  In36  1  -0.01034282  0.18038299  0.38421768  1
  In  In37  1  0.01003088  0.15738222  0.88579522  1
  In  In38  1  -0.01914509  0.49537871  0.35388466  1
  In  In39  1  0.00254870  0.50249526  0.88245971  1
  In  In40  1  0.00001336  0.82296914  0.37177104  1
  In  In41  1  -0.01068772  0.83835794  0.88192405  1
  In  In42  1  0.32557074  0.15989237  0.36422802  1
  In  In43  1  0.32826126  0.17149969  0.88687193  1
  In  In44  1  0.33168235  0.49957853  0.36057649  1
  In  In45  1  0.33063605  0.51573368  0.89240071  1
  In  In46  1  0.33440028  0.83599991  0.36622385  1
  In  In47  1  0.35655682  0.80364563  0.90228074  1
  In  In48  1  0.67274872  0.17665232  0.37274267  1
  In  In49  1  0.65986835  0.17695538  0.88269686  1
  In  In50  1  0.67812128  0.49613057  0.37160342  1
  In  In51  1  0.66194088  0.48716504  0.86864947  1
  In  In52  1  0.65884438  0.83025615  0.38868497  1
  In  In53  1  0.66925583  0.82820798  0.87367344  1
  In  In54  1  0.17378000  0.01231606  0.12168441  1
  In  In55  1  0.15442177  -0.00015359  0.62997676  1
  In  In56  1  0.16835775  0.34044214  0.12314521  1
  In  In57  1  0.16800191  0.32560197  0.61687800  1
  In  In58  1  0.17276080  0.66416549  0.11709652  1
  In  In59  1  0.16912138  0.67902109  0.63282346  1
  In  In60  1  0.48894459  -0.01099234  0.11651862  1
  In  In61  1  0.51263811  -0.00711215  0.62712131  1
  In  In62  1  0.50073834  0.33260179  0.12627953  1
  In  In63  1  0.50167737  0.34474452  0.62767644  1
  In  In64  1  0.46802356  0.64783887  0.09241597  1
  In  In65  1  0.50077887  0.67306945  0.63301684  1
  In  In66  1  0.83325701  -0.00043552  0.11840327  1
  In  In67  1  0.84014211  0.00277595  0.62185093  1
  In  In68  1  0.84468139  0.32875787  0.13824624  1
  In  In69  1  0.83399158  0.32158395  0.62780296  1
  In  In70  1  0.82925377  0.67053160  0.12495302  1
  In  In71  1  0.80271614  0.66965526  0.62685954  1
  In  In72  1  0.33318894  0.34039343  0.75426977  1
  In  In73  1  0.00361716  0.00865893  0.24133637  1
  In  In74  1  0.67281738  -0.00739328  0.75584876  1
  In  In75  1  0.16767657  0.83947007  0.49690576  1
  In  In76  1  0.50290236  0.16132283  0.49599565  1
  In  In77  1  0.16004503  0.49719956  0.49483166  1
  In  In78  1  -0.00499245  0.33292699  0.75164700  1
  In  In79  1  0.65733114  0.00417853  0.25226557  1
  In  In80  1  0.83845702  0.49730824  0.00240980  1
  In  In81  1  0.33327685  -0.00801835  0.75768444  1
  In  In82  1  0.66073715  0.66441407  0.24929852  1
  In  In83  1  -0.00176995  0.67201636  0.75961651  1
  In  In84  1  0.50120884  0.50205183  0.50414230  1
  In  In85  1  0.83096596  0.50168281  0.49615402  1
  Cu  Cu86  1  0.33304397  0.66808894  0.50187321  1
  Cu  Cu87  1  0.67200879  -0.00070506  0.50307587  1
  Cu  Cu88  1  0.83057415  0.83301774  0.24758538  1
  Cu  Cu89  1  0.00299929  0.00663371  0.50089615  1
  Cu  Cu90  1  0.67208150  0.32857477  0.50006573  1
  Cu  Cu91  1  0.66564575  0.33623227  0.00268020  1
  Cu  Cu92  1  0.83427661  0.83585668  0.74825363  1
  Cu  Cu93  1  0.00476777  0.66381896  0.00058084  1
  Cu  Cu94  1  0.33697688  0.33231816  0.00850930  1
  Cu  Cu95  1  -0.00726460  0.66530964  0.49570735  1
  Cu  Cu96  1  0.84094331  0.17456484  0.24401204  1
  Cu  Cu97  1  0.50501226  0.17278954  0.76194239  1
  Cu  Cu98  1  0.33652205  -0.00610681  0.49476274  1
  Cu  Cu99  1  0.49300021  0.82490411  0.23930828  1
  Cu  Cu100  1  0.17154358  0.50737839  0.24152457  1
  Cu  Cu101  1  0.49411157  0.50083982  0.23991070  1
  Cu  Cu102  1  0.16682187  0.17321744  0.24327186  1
  Cu  Cu103  1  0.32543240  0.00577168  0.00166253  1
  Cu  Cu104  1  0.17270025  0.50470561  0.75900021  1
  Cu  Cu105  1  0.83623963  0.16485968  0.74871741  1
  Cu  Cu106  1  0.49849515  0.16516316  0.24579276  1
  Cu  Cu107  1  0.16842102  0.82810391  0.24390606  1
  Cu  Cu108  1  0.66868690  0.00200152  -0.00536205  1
  Cu  Cu109  1  0.49883550  0.50980980  0.75532552  1
  Cu  Cu110  1  0.67029508  0.67003402  -0.00241051  1
  Cu  Cu111  1  -0.00592438  -0.00468301  0.00319923  1
  Cu  Cu112  1  0.17411017  0.83143413  0.75971426  1
  Cu  Cu113  1  0.15884902  0.16327215  0.75619236  1
  Cu  Cu114  1  0.32525907  0.32310553  0.49067226  1
  Se  Se115  1  0.07772816  0.08036230  0.05407115  1
  Se  Se116  1  0.08721099  0.08549537  0.55641811  1
  Se  Se117  1  0.08289820  0.41475195  0.05083894  1
  Se  Se118  1  0.07017871  0.40116620  0.55032248  1
  Se  Se119  1  0.08596824  0.75129724  0.05169531  1
  Se  Se120  1  0.07796210  0.74277925  0.55537627  1
  Se  Se121  1  0.41318448  0.08594807  0.05438804  1
  Se  Se122  1  0.41229366  0.07416346  0.56076410  1
  Se  Se123  1  0.42060693  0.41832060  0.05756107  1
  Se  Se124  1  0.40178228  0.40403815  0.55354643  1
  Se  Se125  1  0.43541045  0.77828027  0.05153104  1
  Se  Se126  1  0.41686274  0.74666136  0.55693243  1
  Se  Se127  1  0.75151232  0.08278441  0.05026894  1
  Se  Se128  1  0.75489321  0.08536031  0.55261992  1
  Se  Se129  1  0.74607996  0.41378109  0.06511302  1
  Se  Se130  1  0.74164522  0.41536210  0.56262083  1
  Se  Se131  1  0.75522753  0.75131278  0.05049493  1
  Se  Se132  1  0.76844591  0.76294811  0.54803275  1
  Se  Se133  1  0.24943176  0.24915522  0.05759611  1
  Se  Se134  1  0.24518477  0.24101071  0.54632390  1
  Se  Se135  1  0.26346668  0.59344092  0.04742021  1
  Se  Se136  1  0.24980075  0.58808294  0.55972968  1
  Se  Se137  1  0.24546658  0.91899185  0.05453683  1
  Se  Se138  1  0.25738050  0.92188671  0.56381337  1
  Se  Se139  1  0.58219580  0.25034639  0.05451021  1
  Se  Se140  1  0.58730603  0.25301621  0.56154590  1
  Se  Se141  1  0.58857110  0.58358828  0.04914240  1
  Se  Se142  1  0.59173527  0.58639541  0.56482580  1
  Se  Se143  1  0.58653111  0.92019338  0.05062505  1
  Se  Se144  1  0.57979562  0.91764423  0.54786720  1
  Se  Se145  1  0.89678486  0.24633568  0.05594956  1
  Se  Se146  1  0.91531886  0.25643774  0.55226482  1
  Se  Se147  1  0.92626250  0.58565162  0.06422686  1
  Se  Se148  1  0.91861909  0.58966125  0.56290818  1
  Se  Se149  1  0.90974319  0.90880123  0.05244858  1
  Se  Se150  1  0.92463827  0.91844619  0.55389774  1
  Se  Se151  1  0.09493869  0.24594092  0.44292686  1
  Se  Se152  1  0.08006589  0.24639051  0.95604015  1
  Se  Se153  1  0.06841460  0.58466854  0.43411519  1
  Se  Se154  1  0.08779924  0.57543730  0.95257863  1
  Se  Se155  1  0.07800242  0.92820754  0.43467956  1
  Se  Se156  1  0.07946450  0.91486716  0.94867316  1
  Se  Se157  1  0.41759123  0.25309748  0.43386999  1
  Se  Se158  1  0.41833121  0.24929156  0.95175499  1
  Se  Se159  1  0.40669308  0.58335106  0.44038836  1
  Se  Se160  1  0.42566612  0.58556488  0.95795473  1
  Se  Se161  1  0.41559296  0.90543513  0.44463036  1
  Se  Se162  1  0.41218753  0.92657781  0.94781251  1
  Se  Se163  1  0.75591294  0.24770115  0.44670684  1
  Se  Se164  1  0.75004190  0.25314804  0.95024084  1
  Se  Se165  1  0.73315333  0.59489682  0.44548522  1
  Se  Se166  1  0.74854972  0.58404035  0.93876639  1
  Se  Se167  1  0.75193754  0.91564856  0.44645138  1
  Se  Se168  1  0.74942816  0.91522039  0.94119356  1
  Se  Se169  1  0.25624701  0.08137337  0.44386733  1
  Se  Se170  1  0.23997241  0.08890129  0.94971439  1
  Se  Se171  1  0.25285043  0.41222179  0.43343971  1
  Se  Se172  1  0.25525119  0.41515789  0.95180654  1
  Se  Se173  1  0.24963057  0.74077528  0.43834818  1
  Se  Se174  1  0.24352737  0.75308493  0.96018045  1
  Se  Se175  1  0.59316812  0.07187670  0.43443703  1
  Se  Se176  1  0.58046585  0.08746770  0.94793985  1
  Se  Se177  1  0.58888869  0.40824519  0.44194487  1
  Se  Se178  1  0.58471146  0.42303565  0.95025658  1
  Se  Se179  1  0.57705062  0.74386564  0.45261839  1
  Se  Se180  1  0.58566705  0.75373475  0.94625896  1
  Se  Se181  1  0.91463410  0.08545080  0.44780394  1
  Se  Se182  1  0.91341760  0.07961553  0.94726813  1
  Se  Se183  1  0.92148532  0.41255912  0.43744384  1
  Se  Se184  1  0.92573216  0.40249619  0.94375934  1
  Se  Se185  1  0.91344463  0.75430505  0.44489148  1
  Se  Se186  1  0.91586986  0.74258613  0.94741070  1
  Se  Se187  1  0.25466800  0.25384394  0.29708700  1
  Se  Se188  1  0.23966032  0.24838684  0.81088263  1
  Se  Se189  1  0.25502146  0.59074126  0.29543597  1
  Se  Se190  1  0.25569528  0.58576151  0.81140261  1
  Se  Se191  1  0.24858920  0.91464434  0.29744094  1
  Se  Se192  1  0.25247987  0.90580943  0.82409529  1
  Se  Se193  1  0.58546552  0.24425787  0.29985069  1
  Se  Se194  1  0.58536732  0.26122526  0.80967855  1
  Se  Se195  1  0.57019217  0.57287222  0.31132186  1
  Se  Se196  1  0.58585979  0.58718191  0.80968770  1
  Se  Se197  1  0.57410426  0.89979300  0.30473752  1
  Se  Se198  1  0.57155268  0.90536353  0.80516653  1
  Se  Se199  1  0.92177434  0.25342540  0.30299645  1
  Se  Se200  1  0.91321076  0.24141328  0.81506227  1
  Se  Se201  1  0.91427809  0.60227474  0.29968974  1
  Se  Se202  1  0.91108722  0.57016174  0.80919984  1
  Se  Se203  1  0.91352389  0.91602233  0.30347443  1
  Se  Se204  1  0.92138757  0.91494134  0.80074966  1
  Se  Se205  1  0.08741479  0.09483257  0.30797828  1
  Se  Se206  1  0.07816466  0.07749633  0.80702421  1
  Se  Se207  1  0.08932691  0.42635587  0.29948060  1
  Se  Se208  1  0.09297256  0.41855123  0.81206883  1
  Se  Se209  1  0.08089445  0.75046090  0.29793709  1
  Se  Se210  1  0.09269610  0.75276788  0.82099736  1
  Se  Se211  1  0.41882522  0.07970511  0.30122342  1
  Se  Se212  1  0.41941187  0.09199899  0.81451786  1
  Se  Se213  1  0.41404187  0.41424628  0.29466057  1
  Se  Se214  1  0.41907113  0.42819805  0.81655970  1
  Se  Se215  1  0.41226362  0.74539988  0.29943971  1
  Se  Se216  1  0.41247719  0.74445316  0.81239292  1
  Se  Se217  1  0.76294003  0.08931266  0.30345057  1
  Se  Se218  1  0.75502299  0.09068916  0.81380016  1
  Se  Se219  1  0.75061178  0.41594466  0.30006186  1
  Se  Se220  1  0.75310335  0.41616555  0.79970114  1
  Se  Se221  1  0.74667686  0.76019081  0.30991386  1
  Se  Se222  1  0.75149451  0.75172720  0.80022000  1
  Se  Se223  1  0.25153635  0.08364758  0.19881863  1
  Se  Se224  1  0.24721117  0.08985360  0.69632820  1
  Se  Se225  1  0.25406723  0.41828574  0.19345336  1
  Se  Se226  1  0.23993391  0.42459405  0.68831000  1
  Se  Se227  1  0.25269960  0.74810889  0.18930395  1
  Se  Se228  1  0.25427157  0.74575956  0.70666326  1
  Se  Se229  1  0.57695156  0.08739358  0.18256255  1
  Se  Se230  1  0.57929402  0.09084923  0.69834905  1
  Se  Se231  1  0.58390662  0.41513743  0.19725578  1
  Se  Se232  1  0.57696784  0.41852908  0.70307475  1
  Se  Se233  1  0.57394599  0.74468761  0.18151206  1
  Se  Se234  1  0.59625751  0.75164916  0.69294198  1
  Se  Se235  1  0.91610365  0.09631566  0.18008609  1
  Se  Se236  1  0.91950009  0.08159480  0.69607392  1
  Se  Se237  1  0.91908095  0.42129372  0.20211013  1
  Se  Se238  1  0.90894482  0.42562382  0.69106308  1
  Se  Se239  1  0.91337189  0.75021361  0.19538247  1
  Se  Se240  1  0.91596298  0.75381275  0.68797080  1
  Se  Se241  1  0.08183252  0.25758763  0.19298026  1
  Se  Se242  1  0.08647741  0.24393336  0.69065024  1
  Se  Se243  1  0.08585656  0.58992307  0.18990883  1
  Se  Se244  1  0.08873339  0.57840621  0.69604010  1
  Se  Se245  1  0.08788985  0.91060279  0.18478159  1
  Se  Se246  1  0.09015818  0.91216022  0.70468745  1
  Se  Se247  1  0.41547357  0.25122987  0.19549001  1
  Se  Se248  1  0.42339077  0.24411225  0.69524060  1
  Se  Se249  1  0.41708910  0.58929512  0.18687098  1
  Se  Se250  1  0.41448973  0.58929985  0.69993426  1
  Se  Se251  1  0.41177091  0.91851767  0.19482661  1
  Se  Se252  1  0.42512981  0.90856309  0.69392350  1
  Se  Se253  1  0.74434741  0.25160963  0.19821612  1
  Se  Se254  1  0.74865300  0.24999724  0.70150819  1
  Se  Se255  1  0.75619099  0.57531726  0.19462611  1
  Se  Se256  1  0.75795697  0.58236817  0.70575929  1
  Se  Se257  1  0.74819536  0.91363537  0.19116021  1
  Se  Se258  1  0.75263003  0.91046074  0.68452362  1
