# generated using pymatgen
data_In86Cu29Se144
_symmetry_space_group_name_H-M   'P 1'
_cell_length_a   17.57854343
_cell_length_b   17.58190546
_cell_length_c   23.44333842
_cell_angle_alpha   90.02585740
_cell_angle_beta   89.98863763
_cell_angle_gamma   89.99684341
_symmetry_Int_Tables_number   1
_chemical_formula_structural   In86Cu29Se144
_chemical_formula_sum   'In86 Cu29 Se144'
_cell_volume   7245.49782014
_cell_formula_units_Z   1
loop_
 _symmetry_equiv_pos_site_id
 _symmetry_equiv_pos_as_xyz
  1  'x, y, z'
loop_
 _atom_site_type_symbol
 _atom_site_label
 _atom_site_symmetry_multiplicity
 _atom_site_fract_x
 _atom_site_fract_y
 _atom_site_fract_z
 _atom_site_occupancy
  In  In0  1  0.03090633  0.14785993  0.13966967  1
  In  In1  1  0.01473318  0.15923676  0.63853918  1
  In  In2  1  0.01384610  0.49203292  0.13076678  1
  In  In3  1  0.01136968  0.48899203  0.63310258  1
  In  In4  1  0.00860839  0.83242339  0.13068175  1
  In  In5  1  0.00569877  0.83620689  0.62311307  1
  In  In6  1  0.31897434  0.16368879  0.12210323  1
  In  In7  1  0.33684925  0.17008747  0.62019479  1
  In  In8  1  0.34103853  0.50240525  0.11686261  1
  In  In9  1  0.32376177  0.50491142  0.61230215  1
  In  In10  1  0.31033563  0.84947119  0.14349408  1
  In  In11  1  0.33096088  0.82599977  0.61640862  1
  In  In12  1  0.66696344  0.16333146  0.12476213  1
  In  In13  1  0.65829830  0.17752995  0.63206388  1
  In  In14  1  0.64943359  0.50727353  0.12164537  1
  In  In15  1  0.64758948  0.51822829  0.64390610  1
  In  In16  1  0.66784126  0.83097508  0.12644831  1
  In  In17  1  0.65262461  0.81536981  0.61820044  1
  In  In18  1  0.16632054  -0.00102199  0.37766265  1
  In  In19  1  0.15890779  0.00715854  0.89447653  1
  In  In20  1  0.16035128  0.34120749  0.38153033  1
  In  In21  1  0.17094566  0.33983807  0.86800630  1
  In  In22  1  0.16737477  0.66899634  0.37920155  1
  In  In23  1  0.15253005  0.67494745  0.88185869  1
  In  In24  1  0.48906729  0.00553686  0.38593575  1
  In  In25  1  0.49291829  -0.00426562  0.87024929  1
  In  In26  1  0.48656248  0.34163629  0.38748394  1
  In  In27  1  0.49578601  0.34031807  0.85791796  1
  In  In28  1  0.46650554  0.68992386  0.40703523  1
  In  In29  1  0.48862349  0.64673127  0.86167981  1
  In  In30  1  0.83825486  -0.01014928  0.37863433  1
  In  In31  1  0.85238619  -0.01166322  0.87875892  1
  In  In32  1  0.84192074  0.32432185  0.37903729  1
  In  In33  1  0.83619750  0.33635585  0.86724476  1
  In  In34  1  0.85029091  0.66853308  0.37506103  1
  In  In35  1  0.83870600  0.67169587  0.86740179  1
  In  In36  1  0.01324933  0.17212187  0.37203441  1
  In  In37  1  0.01990840  0.16832485  0.86236124  1
  In  In38  1  0.01249727  0.51035586  0.36837316  1
  In  In39  1  0.00729257  0.51010481  0.87045713  1
  In  In40  1  0.00348740  0.83402508  0.37904252  1
  In  In41  1  0.03497938  0.85641396  0.83933077  1
  In  In42  1  0.33805878  0.15788321  0.38342057  1
  In  In43  1  0.28764951  0.16382796  0.86437026  1
  In  In44  1  0.31635566  0.51916860  0.39658789  1
  In  In45  1  0.34174813  0.49589964  0.87576080  1
  In  In46  1  0.32307181  0.83087995  0.38285577  1
  In  In47  1  0.32314976  0.82787643  0.87571770  1
  In  In48  1  0.66532655  0.15837338  0.38125225  1
  In  In49  1  0.65082457  0.16894401  0.86926577  1
  In  In50  1  0.65200101  0.49924300  0.37363206  1
  In  In51  1  0.64450671  0.49102568  0.85292895  1
  In  In52  1  0.67046707  0.83014397  0.38441655  1
  In  In53  1  0.66868899  0.83130968  0.86360254  1
  In  In54  1  0.16907997  -0.00308840  0.12267368  1
  In  In55  1  0.16070227  -0.00544847  0.62291431  1
  In  In56  1  0.16335689  0.32254299  0.11858989  1
  In  In57  1  0.16709840  0.33351747  0.62510372  1
  In  In58  1  0.16998432  0.66528372  0.12884916  1
  In  In59  1  0.16800996  0.66484181  0.61877149  1
  In  In60  1  0.49272023  -0.01664805  0.12910494  1
  In  In61  1  0.48783076  -0.00988214  0.61577640  1
  In  In62  1  0.48444127  0.34283133  0.12314519  1
  In  In63  1  0.49619864  0.33807744  0.62900832  1
  In  In64  1  0.49454234  0.65476121  0.11859439  1
  In  In65  1  0.50167597  0.67114575  0.61969932  1
  In  In66  1  0.84854796  0.01472083  0.12331966  1
  In  In67  1  0.85016241  -0.00256301  0.62516920  1
  In  In68  1  0.84669573  0.34755195  0.11674392  1
  In  In69  1  0.83220240  0.33251423  0.63353896  1
  In  In70  1  0.83570083  0.67791026  0.12720437  1
  In  In71  1  0.83045549  0.67290657  0.62462479  1
  In  In72  1  0.32898340  0.33272009  0.24917127  1
  In  In73  1  0.84450186  0.82945403  0.00567679  1
  In  In74  1  0.84894730  0.17577786  -0.01421949  1
  In  In75  1  0.32815674  0.66865088  0.74179080  1
  In  In76  1  0.67187797  0.00118948  0.75058386  1
  In  In77  1  0.48548232  0.17760883  -0.00190908  1
  In  In78  1  0.83462217  0.50431990  -0.00712438  1
  In  In79  1  0.66609072  0.66409123  0.24452846  1
  In  In80  1  0.67238007  -0.00407413  0.26222254  1
  In  In81  1  0.48341680  0.82162996  -0.00932597  1
  In  In82  1  0.83071118  0.50305278  0.50356781  1
  In  In83  1  0.32651158  -0.00356403  0.74448603  1
  In  In84  1  0.83146445  0.16582612  0.50818927  1
  In  In85  1  0.67521232  0.32776667  0.25584265  1
  Cu  Cu86  1  0.83395607  0.83020866  0.74145042  1
  Cu  Cu87  1  0.66720353  -0.00264424  -0.00079713  1
  Cu  Cu88  1  0.83797576  0.16517107  0.75297534  1
  Cu  Cu89  1  0.84710883  0.83431680  0.25208578  1
  Cu  Cu90  1  0.85412506  0.17453725  0.24924089  1
  Cu  Cu91  1  0.65428966  0.34328500  -0.01080386  1
  Cu  Cu92  1  0.84667270  0.49627013  0.24950485  1
  Cu  Cu93  1  0.17149375  0.50391600  0.25415148  1
  Cu  Cu94  1  0.83463375  0.50012126  0.75005186  1
  Cu  Cu95  1  0.17007422  0.16143130  0.25110503  1
  Cu  Cu96  1  0.49373032  0.50608014  0.25305374  1
  Cu  Cu97  1  0.01250878  0.32618833  -0.00206516  1
  Cu  Cu98  1  0.16512397  0.82867500  0.25588777  1
  Cu  Cu99  1  0.00358093  0.66639111  0.00138841  1
  Cu  Cu100  1  0.49567547  0.15957253  0.25946456  1
  Cu  Cu101  1  0.32545069  0.66616308  -0.00196756  1
  Cu  Cu102  1  0.00529628  -0.00197179  0.50214259  1
  Cu  Cu103  1  0.66827439  0.66422692  0.50567499  1
  Cu  Cu104  1  0.17014921  0.50429763  0.74796683  1
  Cu  Cu105  1  0.32629686  0.00105562  0.50144323  1
  Cu  Cu106  1  0.48499414  0.82756129  0.25929777  1
  Cu  Cu107  1  0.65920906  0.33622420  0.51330553  1
  Cu  Cu108  1  0.00267074  0.67008599  0.49970178  1
  Cu  Cu109  1  0.49025056  0.16891332  0.74670076  1
  Cu  Cu110  1  0.00543355  0.33669393  0.50454640  1
  Cu  Cu111  1  0.33445031  0.33883753  -0.00891472  1
  Cu  Cu112  1  0.33237470  0.32781685  0.50531700  1
  Cu  Cu113  1  0.66217962  -0.00160191  0.50248230  1
  Cu  Cu114  1  0.65785215  0.65450325  -0.01085486  1
  Se  Se115  1  0.09354224  0.08777638  0.05371562  1
  Se  Se116  1  0.08184304  0.08672286  0.55613560  1
  Se  Se117  1  0.08667722  0.41577143  0.05294584  1
  Se  Se118  1  0.09025517  0.42279642  0.55361343  1
  Se  Se119  1  0.08396696  0.74715341  0.05978045  1
  Se  Se120  1  0.08626873  0.75322057  0.55240185  1
  Se  Se121  1  0.41519829  0.07498489  0.06100469  1
  Se  Se122  1  0.41481756  0.08356420  0.55083194  1
  Se  Se123  1  0.42031565  0.42058875  0.04402750  1
  Se  Se124  1  0.41561660  0.41548191  0.55462733  1
  Se  Se125  1  0.40038161  0.74757941  0.06487281  1
  Se  Se126  1  0.42016175  0.75011586  0.54935915  1
  Se  Se127  1  0.75087933  0.08309144  0.05098376  1
  Se  Se128  1  0.73930169  0.07617453  0.56748462  1
  Se  Se129  1  0.73788300  0.41545795  0.05394938  1
  Se  Se130  1  0.74308293  0.41817236  0.56743872  1
  Se  Se131  1  0.73564201  0.73605334  0.05159433  1
  Se  Se132  1  0.75392521  0.75240818  0.55086163  1
  Se  Se133  1  0.25707859  0.25453294  0.04863391  1
  Se  Se134  1  0.24429176  0.24637445  0.55437784  1
  Se  Se135  1  0.24716819  0.58198317  0.05573038  1
  Se  Se136  1  0.26704678  0.60947371  0.54544452  1
  Se  Se137  1  0.25205193  0.91059586  0.05582671  1
  Se  Se138  1  0.24632783  0.91500397  0.55439095  1
  Se  Se139  1  0.58699888  0.26075564  0.05882547  1
  Se  Se140  1  0.57475968  0.24742974  0.55829166  1
  Se  Se141  1  0.57200413  0.57571350  0.04383927  1
  Se  Se142  1  0.58476559  0.57867846  0.55538929  1
  Se  Se143  1  0.58455178  0.91342508  0.05347076  1
  Se  Se144  1  0.57963478  0.91098250  0.55250454  1
  Se  Se145  1  0.93134954  0.24963679  0.06057778  1
  Se  Se146  1  0.92482480  0.25577689  0.56305020  1
  Se  Se147  1  0.92036169  0.58780311  0.06139136  1
  Se  Se148  1  0.92746114  0.58584189  0.56193240  1
  Se  Se149  1  0.93247720  0.92829806  0.05758533  1
  Se  Se150  1  0.91774602  0.91405052  0.55055810  1
  Se  Se151  1  0.08423857  0.25001213  0.44954219  1
  Se  Se152  1  0.09260819  0.24970959  0.93750597  1
  Se  Se153  1  0.08337475  0.58227213  0.44762534  1
  Se  Se154  1  0.08441126  0.57768031  0.95042076  1
  Se  Se155  1  0.08789465  0.91394882  0.44863940  1
  Se  Se156  1  0.07447015  0.90219755  0.93832598  1
  Se  Se157  1  0.41731596  0.24478197  0.45132811  1
  Se  Se158  1  0.40461755  0.25505501  0.92552443  1
  Se  Se159  1  0.44729391  0.55230314  0.43938733  1
  Se  Se160  1  0.41460295  0.58835359  0.94649384  1
  Se  Se161  1  0.41074644  0.91482248  0.44988802  1
  Se  Se162  1  0.40094010  0.92854833  0.94242563  1
  Se  Se163  1  0.73966020  0.26046181  0.44876259  1
  Se  Se164  1  0.73721288  0.25824732  0.93736302  1
  Se  Se165  1  0.74356502  0.59065758  0.43599035  1
  Se  Se166  1  0.74184472  0.58170876  0.92809267  1
  Se  Se167  1  0.75027969  0.91998240  0.44966119  1
  Se  Se168  1  0.74669086  0.91531308  0.94171917  1
  Se  Se169  1  0.24323579  0.08531279  0.44864235  1
  Se  Se170  1  0.26136987  0.08075161  0.95036511  1
  Se  Se171  1  0.24876509  0.41251269  0.45275015  1
  Se  Se172  1  0.24814384  0.42252085  0.94209340  1
  Se  Se173  1  0.26346304  0.72883799  0.45234789  1
  Se  Se174  1  0.24280562  0.75255439  0.94901207  1
  Se  Se175  1  0.58062298  0.08479314  0.45122768  1
  Se  Se176  1  0.58230720  0.07721388  0.94386936  1
  Se  Se177  1  0.58606411  0.41543798  0.44906533  1
  Se  Se178  1  0.57145264  0.42134408  0.93416771  1
  Se  Se179  1  0.58622458  0.75101779  0.45316608  1
  Se  Se180  1  0.58384337  0.74258829  0.93168309  1
  Se  Se181  1  0.92261196  0.08233903  0.44383888  1
  Se  Se182  1  0.93943220  0.07654128  0.94022539  1
  Se  Se183  1  0.92451660  0.41598524  0.44338988  1
  Se  Se184  1  0.92687459  0.40686375  0.94148640  1
  Se  Se185  1  0.91609354  0.75351871  0.44924295  1
  Se  Se186  1  0.92762652  0.74626879  0.93890252  1
  Se  Se187  1  0.24593344  0.24374791  0.31429800  1
  Se  Se188  1  0.25366008  0.26575485  0.79320176  1
  Se  Se189  1  0.25269716  0.58393851  0.31015123  1
  Se  Se190  1  0.24516166  0.58449827  0.81223756  1
  Se  Se191  1  0.24854183  0.91342595  0.30927801  1
  Se  Se192  1  0.23979446  0.91485577  0.81047709  1
  Se  Se193  1  0.57543669  0.24583948  0.31505439  1
  Se  Se194  1  0.58149976  0.25002544  0.79492537  1
  Se  Se195  1  0.57157411  0.59142101  0.31033826  1
  Se  Se196  1  0.59289392  0.60265157  0.79235476  1
  Se  Se197  1  0.57478905  0.90582228  0.31515566  1
  Se  Se198  1  0.57098705  0.90945801  0.79972369  1
  Se  Se199  1  0.92963145  0.25944290  0.30560308  1
  Se  Se200  1  0.92131247  0.24925958  0.80479989  1
  Se  Se201  1  0.92243789  0.58728238  0.30060525  1
  Se  Se202  1  0.91892866  0.58410543  0.80127585  1
  Se  Se203  1  0.92468989  0.92015252  0.30657571  1
  Se  Se204  1  0.91280771  0.91677849  0.79516392  1
  Se  Se205  1  0.08502222  0.07959784  0.30460575  1
  Se  Se206  1  0.09099798  0.06445719  0.80599524  1
  Se  Se207  1  0.08764268  0.41627398  0.30298373  1
  Se  Se208  1  0.08350337  0.42262481  0.80143412  1
  Se  Se209  1  0.08120567  0.74680980  0.30960392  1
  Se  Se210  1  0.07241621  0.72724507  0.79806274  1
  Se  Se211  1  0.41066350  0.07568393  0.30758928  1
  Se  Se212  1  0.41178343  0.09181252  0.80941300  1
  Se  Se213  1  0.41269904  0.42425899  0.31146174  1
  Se  Se214  1  0.42012995  0.43502364  0.79502312  1
  Se  Se215  1  0.40695550  0.74289758  0.31419470  1
  Se  Se216  1  0.41857317  0.75831268  0.80588804  1
  Se  Se217  1  0.76690918  0.09793251  0.30962717  1
  Se  Se218  1  0.76058304  0.08631084  0.81751050  1
  Se  Se219  1  0.76276087  0.42596306  0.31357571  1
  Se  Se220  1  0.74957798  0.41394887  0.79943113  1
  Se  Se221  1  0.75638100  0.75571403  0.30595042  1
  Se  Se222  1  0.75221182  0.74956689  0.79790499  1
  Se  Se223  1  0.25161601  0.07948325  0.19612090  1
  Se  Se224  1  0.24171105  0.09182866  0.68747552  1
  Se  Se225  1  0.24415559  0.42347298  0.18696949  1
  Se  Se226  1  0.25095297  0.42516525  0.68880719  1
  Se  Se227  1  0.24964810  0.74294717  0.20425536  1
  Se  Se228  1  0.23561919  0.76475118  0.69142199  1
  Se  Se229  1  0.58127834  0.08405993  0.19737415  1
  Se  Se230  1  0.56888217  0.08035253  0.69156413  1
  Se  Se231  1  0.57672146  0.41932041  0.19849006  1
  Se  Se232  1  0.59576723  0.40182777  0.69629244  1
  Se  Se233  1  0.56760348  0.75851462  0.19167806  1
  Se  Se234  1  0.58525869  0.73935156  0.69670214  1
  Se  Se235  1  0.92837688  0.07854560  0.20185837  1
  Se  Se236  1  0.91806219  0.08086709  0.69972654  1
  Se  Se237  1  0.92530799  0.40942767  0.19685160  1
  Se  Se238  1  0.91826754  0.41485654  0.69911984  1
  Se  Se239  1  0.92340146  0.74698547  0.19767280  1
  Se  Se240  1  0.92194137  0.74950405  0.69076337  1
  Se  Se241  1  0.09162728  0.25453134  0.20137768  1
  Se  Se242  1  0.07322756  0.26782121  0.69585765  1
  Se  Se243  1  0.08488623  0.58360112  0.19870829  1
  Se  Se244  1  0.08762924  0.58814612  0.69305592  1
  Se  Se245  1  0.09062735  0.91638829  0.19808801  1
  Se  Se246  1  0.07341937  0.92614844  0.69584553  1
  Se  Se247  1  0.42442572  0.24003066  0.19226638  1
  Se  Se248  1  0.40813947  0.25318255  0.69480042  1
  Se  Se249  1  0.41263518  0.58394298  0.19396842  1
  Se  Se250  1  0.41880792  0.57727843  0.68616043  1
  Se  Se251  1  0.41138554  0.92003073  0.20667129  1
  Se  Se252  1  0.42061999  0.90242812  0.69114713  1
  Se  Se253  1  0.76528550  0.24475493  0.18738471  1
  Se  Se254  1  0.75154985  0.24492054  0.70065798  1
  Se  Se255  1  0.75894392  0.56828220  0.18757108  1
  Se  Se256  1  0.75653969  0.58718203  0.69673346  1
  Se  Se257  1  0.76095823  0.91341806  0.19161001  1
  Se  Se258  1  0.74983336  0.91069610  0.68315608  1
