# generated using pymatgen
data_In86Cu29Se144
_symmetry_space_group_name_H-M   'P 1'
_cell_length_a   17.58043936
_cell_length_b   17.57985454
_cell_length_c   23.44675703
_cell_angle_alpha   89.99833471
_cell_angle_beta   90.02306059
_cell_angle_gamma   89.98621907
_symmetry_Int_Tables_number   1
_chemical_formula_structural   In86Cu29Se144
_chemical_formula_sum   'In86 Cu29 Se144'
_cell_volume   7246.49065773
_cell_formula_units_Z   1
loop_
 _symmetry_equiv_pos_site_id
 _symmetry_equiv_pos_as_xyz
  1  'x, y, z'
loop_
 _atom_site_type_symbol
 _atom_site_label
 _atom_site_symmetry_multiplicity
 _atom_site_fract_x
 _atom_site_fract_y
 _atom_site_fract_z
 _atom_site_occupancy
  In  In0  1  -0.00393230  0.16849043  0.12405932  1
  In  In1  1  -0.00542462  0.16133107  0.62209281  1
  In  In2  1  -0.00451229  0.50690395  0.12346903  1
  In  In3  1  -0.00216691  0.49989766  0.61932459  1
  In  In4  1  -0.00613531  0.83182577  0.11424966  1
  In  In5  1  0.00752535  0.84459284  0.62308218  1
  In  In6  1  0.32267487  0.15492359  0.12972357  1
  In  In7  1  0.33265116  0.16109878  0.61499182  1
  In  In8  1  0.35468090  0.50883253  0.12041285  1
  In  In9  1  0.34225406  0.50779992  0.61242394  1
  In  In10  1  0.33410524  0.83414117  0.13154346  1
  In  In11  1  0.33787405  0.83386816  0.61961941  1
  In  In12  1  0.67082731  0.15467792  0.11991840  1
  In  In13  1  0.66708845  0.16345068  0.62623411  1
  In  In14  1  0.68048533  0.52957529  0.10182539  1
  In  In15  1  0.66074022  0.49844015  0.62818116  1
  In  In16  1  0.65563926  0.82319775  0.11176861  1
  In  In17  1  0.66409462  0.82859507  0.63079016  1
  In  In18  1  0.16866393  -0.00757923  0.38055612  1
  In  In19  1  0.15535019  -0.00928335  0.86632319  1
  In  In20  1  0.16619287  0.33196728  0.38531737  1
  In  In21  1  0.16683642  0.33449371  0.87099948  1
  In  In22  1  0.17732983  0.65822033  0.37733481  1
  In  In23  1  0.18235500  0.67180166  0.87712936  1
  In  In24  1  0.49269229  0.00513707  0.38429226  1
  In  In25  1  0.49953782  -0.02330315  0.87166106  1
  In  In26  1  0.49844556  0.33318919  0.38442986  1
  In  In27  1  0.51788048  0.33971793  0.86362928  1
  In  In28  1  0.50168742  0.67096789  0.37610804  1
  In  In29  1  0.52224916  0.65999485  0.89428155  1
  In  In30  1  0.83200625  -0.00270556  0.38344380  1
  In  In31  1  0.83788082  0.00152292  0.86722054  1
  In  In32  1  0.83520133  0.33373762  0.38490693  1
  In  In33  1  0.81652737  0.34897700  0.88200489  1
  In  In34  1  0.81668162  0.67825138  0.38056132  1
  In  In35  1  0.79292162  0.69646571  0.90339284  1
  In  In36  1  -0.00061383  0.16425158  0.38609989  1
  In  In37  1  -0.00370218  0.14698661  0.86236714  1
  In  In38  1  -0.00054906  0.50209392  0.38279465  1
  In  In39  1  -0.01328207  0.48818891  0.86959712  1
  In  In40  1  -0.01088343  0.83791933  0.38089175  1
  In  In41  1  -0.00945725  0.83808815  0.87472655  1
  In  In42  1  0.33245607  0.15969960  0.38210251  1
  In  In43  1  0.32761101  0.16581645  0.87414726  1
  In  In44  1  0.33581426  0.50458763  0.37912561  1
  In  In45  1  0.35568395  0.51469031  0.87537642  1
  In  In46  1  0.33495324  0.83176777  0.37506754  1
  In  In47  1  0.34753791  0.80318877  0.90211045  1
  In  In48  1  0.66790244  0.16371693  0.38969405  1
  In  In49  1  0.67918909  0.17565959  0.86509877  1
  In  In50  1  0.65626348  0.51258807  0.38412914  1
  In  In51  1  0.66156567  0.51070248  0.87105122  1
  In  In52  1  0.67419337  0.82016795  0.38084516  1
  In  In53  1  0.66391397  0.84023585  0.86612908  1
  In  In54  1  0.18265134  -0.00006295  0.13584114  1
  In  In55  1  0.16476041  -0.00282504  0.62255277  1
  In  In56  1  0.16711771  0.32606131  0.12793474  1
  In  In57  1  0.16429278  0.32935590  0.61431904  1
  In  In58  1  0.16916707  0.67989638  0.12648869  1
  In  In59  1  0.17259124  0.67118475  0.61313138  1
  In  In60  1  0.49689686  -0.01862937  0.12574926  1
  In  In61  1  0.50076668  -0.00514799  0.62374048  1
  In  In62  1  0.49046250  0.35159506  0.12429663  1
  In  In63  1  0.51585467  0.34337791  0.62001581  1
  In  In64  1  0.50110246  0.67426807  0.12456285  1
  In  In65  1  0.51240654  0.67176961  0.62395900  1
  In  In66  1  0.82489726  -0.00414052  0.11200811  1
  In  In67  1  0.83206911  -0.00131538  0.62762278  1
  In  In68  1  0.82948486  0.33034336  0.11905913  1
  In  In69  1  0.82238126  0.33298939  0.62465792  1
  In  In70  1  0.83181229  0.66863461  0.11596859  1
  In  In71  1  0.82219182  0.65864329  0.62063765  1
  In  In72  1  0.35053375  0.67132685  0.75182885  1
  In  In73  1  0.16060050  0.16030629  0.00295580  1
  In  In74  1  0.50820412  0.17068556  -0.00415434  1
  In  In75  1  -0.00113464  -0.00431034  0.26122748  1
  In  In76  1  0.66457714  0.34013893  0.25431299  1
  In  In77  1  0.00140551  0.66861722  0.24631215  1
  In  In78  1  -0.00712862  0.66423412  0.75079957  1
  In  In79  1  0.16155661  0.50300171  0.00658238  1
  In  In80  1  0.33970394  0.33561726  0.26143754  1
  In  In81  1  0.00285498  0.33199256  0.24420570  1
  In  In82  1  -0.00987066  0.32797534  0.73652277  1
  In  In83  1  0.33647849  -0.00940699  0.74562824  1
  In  In84  1  0.33445821  0.32964085  0.75257111  1
  In  In85  1  0.66321126  -0.01235760  0.24658941  1
  Cu  Cu86  1  -0.01122717  0.32122923  -0.00450779  1
  Cu  Cu87  1  0.33306777  -0.00795829  0.00427169  1
  Cu  Cu88  1  0.33804534  0.66522237  0.49670210  1
  Cu  Cu89  1  0.83579268  0.16782328  0.74605245  1
  Cu  Cu90  1  -0.00112287  0.65928310  -0.00412011  1
  Cu  Cu91  1  0.51457139  0.51802488  0.24650285  1
  Cu  Cu92  1  0.33647367  0.34106063  -0.00585579  1
  Cu  Cu93  1  0.82473213  0.51241132  0.24944437  1
  Cu  Cu94  1  0.66678241  -0.00518978  0.50804845  1
  Cu  Cu95  1  0.17226797  0.49774093  0.74172726  1
  Cu  Cu96  1  0.33642430  0.32990419  0.50097234  1
  Cu  Cu97  1  0.81516980  0.51098195  0.75594205  1
  Cu  Cu98  1  -0.00545306  0.00096606  0.50302792  1
  Cu  Cu99  1  0.66087478  0.34252564  -0.00452601  1
  Cu  Cu100  1  -0.00108886  0.67022338  0.50031934  1
  Cu  Cu101  1  0.49842209  0.16184609  0.74340078  1
  Cu  Cu102  1  0.49382443  0.16292358  0.25697820  1
  Cu  Cu103  1  0.17035885  0.83791159  0.75222431  1
  Cu  Cu104  1  0.67000576  0.33284367  0.50533230  1
  Cu  Cu105  1  -0.00243071  0.33772498  0.50459465  1
  Cu  Cu106  1  0.83360789  0.16050369  0.25243353  1
  Cu  Cu107  1  -0.00377975  -0.00382572  -0.00786979  1
  Cu  Cu108  1  0.67650029  0.00491528  -0.01094528  1
  Cu  Cu109  1  0.49610672  0.82971282  0.25050901  1
  Cu  Cu110  1  0.16891006  0.83482073  0.25364080  1
  Cu  Cu111  1  0.83292807  0.83417440  0.75044995  1
  Cu  Cu112  1  0.33065492  -0.00721096  0.50018730  1
  Cu  Cu113  1  0.66530524  0.66523674  0.50386062  1
  Cu  Cu114  1  0.18072720  0.49586707  0.25434008  1
  Se  Se115  1  0.07433481  0.06639931  0.06246277  1
  Se  Se116  1  0.08307161  0.08278378  0.55446772  1
  Se  Se117  1  0.07037889  0.39975849  0.05873203  1
  Se  Se118  1  0.08627040  0.42309159  0.55176500  1
  Se  Se119  1  0.07836447  0.74186076  0.05333761  1
  Se  Se120  1  0.08219217  0.75509265  0.55275915  1
  Se  Se121  1  0.41379953  0.08236099  0.05736141  1
  Se  Se122  1  0.41775445  0.07451123  0.55267263  1
  Se  Se123  1  0.42221311  0.42586245  0.04305237  1
  Se  Se124  1  0.42211628  0.41419666  0.55116917  1
  Se  Se125  1  0.43323422  0.77635067  0.06208416  1
  Se  Se126  1  0.41834510  0.74441297  0.55618186  1
  Se  Se127  1  0.75552040  0.09099942  0.04404379  1
  Se  Se128  1  0.75127943  0.08201690  0.55677646  1
  Se  Se129  1  0.75011737  0.41663209  0.05201574  1
  Se  Se130  1  0.74949154  0.42290085  0.55617139  1
  Se  Se131  1  0.74398306  0.74342428  0.04613074  1
  Se  Se132  1  0.74731543  0.75258391  0.55551504  1
  Se  Se133  1  0.26146931  0.25639800  0.05415737  1
  Se  Se134  1  0.24870417  0.24504285  0.54848497  1
  Se  Se135  1  0.25663411  0.59220431  0.05950586  1
  Se  Se136  1  0.24937109  0.58151275  0.54675173  1
  Se  Se137  1  0.24711312  0.91567083  0.06074576  1
  Se  Se138  1  0.24665000  0.91158752  0.55531454  1
  Se  Se139  1  0.58929359  0.26284904  0.06425554  1
  Se  Se140  1  0.58519050  0.24565925  0.55450873  1
  Se  Se141  1  0.55674464  0.57103278  0.05521206  1
  Se  Se142  1  0.58142989  0.57874106  0.55387037  1
  Se  Se143  1  0.59383888  0.93326206  0.05205398  1
  Se  Se144  1  0.58273582  0.90887790  0.55719758  1
  Se  Se145  1  0.90934640  0.24010330  0.05337011  1
  Se  Se146  1  0.91561056  0.25575259  0.55987226  1
  Se  Se147  1  0.91460261  0.57869003  0.05029237  1
  Se  Se148  1  0.91624775  0.58574463  0.55377889  1
  Se  Se149  1  0.91086557  0.91339794  0.04637236  1
  Se  Se150  1  0.91333076  0.91588628  0.55620140  1
  Se  Se151  1  0.08005010  0.25156326  0.45184881  1
  Se  Se152  1  0.07621155  0.25031252  0.93626740  1
  Se  Se153  1  0.08401452  0.58774910  0.44634374  1
  Se  Se154  1  0.07743366  0.58218186  0.93226677  1
  Se  Se155  1  0.07626177  0.91771527  0.44698390  1
  Se  Se156  1  0.08337197  0.91305031  0.94312820  1
  Se  Se157  1  0.41818960  0.24395510  0.44807656  1
  Se  Se158  1  0.41466351  0.25922778  0.93459112  1
  Se  Se159  1  0.42458634  0.58186722  0.44591579  1
  Se  Se160  1  0.39279848  0.62339096  0.94183455  1
  Se  Se161  1  0.41628114  0.91075298  0.44805563  1
  Se  Se162  1  0.42178317  0.91317426  0.95264368  1
  Se  Se163  1  0.75466590  0.24874302  0.45231433  1
  Se  Se164  1  0.74315370  0.25241299  0.94734442  1
  Se  Se165  1  0.75209714  0.58266957  0.45071345  1
  Se  Se166  1  0.76094826  0.56505671  0.94270476  1
  Se  Se167  1  0.74721371  0.91422363  0.44839221  1
  Se  Se168  1  0.75490134  0.91876942  0.93528120  1
  Se  Se169  1  0.24645353  0.07921677  0.45008933  1
  Se  Se170  1  0.25343946  0.07120542  0.94245302  1
  Se  Se171  1  0.25599676  0.41611851  0.44592008  1
  Se  Se172  1  0.25372830  0.42162840  0.93678029  1
  Se  Se173  1  0.25231341  0.74840219  0.44502335  1
  Se  Se174  1  0.22961305  0.75830372  0.95707554  1
  Se  Se175  1  0.58319051  0.07882020  0.45326817  1
  Se  Se176  1  0.58820275  0.07988074  0.93078547  1
  Se  Se177  1  0.58633441  0.41413710  0.44878199  1
  Se  Se178  1  0.57834402  0.42317109  0.94141598  1
  Se  Se179  1  0.58222618  0.74998382  0.45013037  1
  Se  Se180  1  0.60653748  0.75444012  0.94764722  1
  Se  Se181  1  0.91007220  0.08529675  0.45064471  1
  Se  Se182  1  0.91675983  0.08474078  0.94168513  1
  Se  Se183  1  0.91515073  0.42131997  0.45073967  1
  Se  Se184  1  0.91362514  0.41743538  0.94902970  1
  Se  Se185  1  0.91114985  0.75027452  0.44770974  1
  Se  Se186  1  0.91982866  0.74826851  0.94527412  1
  Se  Se187  1  0.24288990  0.24607103  0.31237757  1
  Se  Se188  1  0.23474368  0.23638799  0.80279741  1
  Se  Se189  1  0.26080604  0.58432288  0.30351616  1
  Se  Se190  1  0.24958762  0.57543846  0.80382500  1
  Se  Se191  1  0.25086254  0.91780976  0.30721112  1
  Se  Se192  1  0.25862790  0.90185040  0.81611774  1
  Se  Se193  1  0.57926955  0.24100326  0.31253832  1
  Se  Se194  1  0.58367865  0.24477043  0.79673848  1
  Se  Se195  1  0.59397709  0.59625469  0.30579647  1
  Se  Se196  1  0.57356934  0.59240549  0.80583979  1
  Se  Se197  1  0.57438103  0.90934379  0.31465534  1
  Se  Se198  1  0.59047506  0.92839836  0.79523584  1
  Se  Se199  1  0.91239380  0.24510799  0.30889461  1
  Se  Se200  1  0.90794255  0.25287161  0.81196271  1
  Se  Se201  1  0.91271794  0.58205289  0.31038308  1
  Se  Se202  1  0.90094348  0.58548217  0.81475308  1
  Se  Se203  1  0.89630703  0.90556508  0.30576192  1
  Se  Se204  1  0.92206641  0.91810767  0.79751644  1
  Se  Se205  1  0.08848711  0.09116988  0.31344833  1
  Se  Se206  1  0.09138351  0.08232022  0.79611210  1
  Se  Se207  1  0.09023667  0.42156071  0.30865158  1
  Se  Se208  1  0.08689906  0.41983822  0.79799416  1
  Se  Se209  1  0.08541116  0.75595365  0.31333319  1
  Se  Se210  1  0.09047294  0.75156448  0.80832519  1
  Se  Se211  1  0.41194189  0.07962559  0.30868133  1
  Se  Se212  1  0.42207778  0.08761406  0.80942958  1
  Se  Se213  1  0.43857992  0.43050127  0.30765686  1
  Se  Se214  1  0.42715734  0.42868932  0.80049548  1
  Se  Se215  1  0.41435236  0.74664737  0.30517635  1
  Se  Se216  1  0.43198630  0.75669289  0.81761325  1
  Se  Se217  1  0.74793887  0.08484968  0.31026587  1
  Se  Se218  1  0.75241632  0.08301512  0.79854450  1
  Se  Se219  1  0.75733301  0.42654943  0.31423737  1
  Se  Se220  1  0.73857837  0.41580602  0.80335558  1
  Se  Se221  1  0.74379815  0.74658826  0.30095707  1
  Se  Se222  1  0.75251869  0.74935920  0.80496913  1
  Se  Se223  1  0.24989317  0.08576793  0.20780657  1
  Se  Se224  1  0.24930780  0.08693543  0.69157410  1
  Se  Se225  1  0.25466005  0.41886898  0.18790657  1
  Se  Se226  1  0.25180730  0.41745442  0.68330103  1
  Se  Se227  1  0.25098042  0.74982134  0.20118478  1
  Se  Se228  1  0.24676477  0.75307373  0.69278295  1
  Se  Se229  1  0.57378577  0.08921683  0.19139708  1
  Se  Se230  1  0.58211633  0.07818343  0.69260020  1
  Se  Se231  1  0.58714991  0.43025399  0.18718733  1
  Se  Se232  1  0.58953655  0.40885623  0.69962348  1
  Se  Se233  1  0.58555910  0.75579585  0.19507691  1
  Se  Se234  1  0.59532258  0.73492076  0.70090057  1
  Se  Se235  1  0.90919772  0.08002876  0.19107996  1
  Se  Se236  1  0.91830538  0.08210175  0.69628335  1
  Se  Se237  1  0.90364185  0.42601221  0.19334466  1
  Se  Se238  1  0.90164227  0.43543980  0.69402250  1
  Se  Se239  1  0.90986106  0.75822677  0.18964896  1
  Se  Se240  1  0.91151700  0.75538595  0.68670546  1
  Se  Se241  1  0.09497152  0.23102980  0.19657929  1
  Se  Se242  1  0.09277442  0.24171832  0.68893998  1
  Se  Se243  1  0.09671649  0.57158185  0.19250379  1
  Se  Se244  1  0.09152832  0.58260444  0.68734268  1
  Se  Se245  1  0.08251849  0.90750058  0.19252610  1
  Se  Se246  1  0.08712907  0.91908690  0.69868459  1
  Se  Se247  1  0.42296853  0.24658424  0.19060164  1
  Se  Se248  1  0.41910722  0.24466956  0.68548361  1
  Se  Se249  1  0.41838811  0.59132798  0.19727524  1
  Se  Se250  1  0.42701423  0.57397443  0.68967611  1
  Se  Se251  1  0.41316883  0.92061339  0.20346781  1
  Se  Se252  1  0.43023391  0.89658075  0.69533841  1
  Se  Se253  1  0.75192284  0.24147921  0.19448636  1
  Se  Se254  1  0.74801949  0.24963124  0.69653080  1
  Se  Se255  1  0.74850774  0.59104464  0.18880830  1
  Se  Se256  1  0.73810107  0.59112148  0.69601834  1
  Se  Se257  1  0.75247574  0.90601197  0.18271617  1
  Se  Se258  1  0.74906126  0.91634149  0.69646033  1
