# generated using pymatgen
data_In86Cu29Se144
_symmetry_space_group_name_H-M   'P 1'
_cell_length_a   17.57109739
_cell_length_b   17.56829902
_cell_length_c   23.42314702
_cell_angle_alpha   89.99073728
_cell_angle_beta   90.00198740
_cell_angle_gamma   90.00813509
_symmetry_Int_Tables_number   1
_chemical_formula_structural   In86Cu29Se144
_chemical_formula_sum   'In86 Cu29 Se144'
_cell_volume   7230.59163858
_cell_formula_units_Z   1
loop_
 _symmetry_equiv_pos_site_id
 _symmetry_equiv_pos_as_xyz
  1  'x, y, z'
loop_
 _atom_site_type_symbol
 _atom_site_label
 _atom_site_symmetry_multiplicity
 _atom_site_fract_x
 _atom_site_fract_y
 _atom_site_fract_z
 _atom_site_occupancy
  In  In0  1  0.02305397  0.15914225  0.14796523  1
  In  In1  1  -0.01390679  0.15516214  0.60546402  1
  In  In2  1  0.00131391  0.48971682  0.13925146  1
  In  In3  1  0.01312776  0.50824539  0.62005396  1
  In  In4  1  0.01061047  0.82124597  0.13418135  1
  In  In5  1  0.00259659  0.83132213  0.62252102  1
  In  In6  1  0.32176763  0.15008406  0.13408467  1
  In  In7  1  0.31180025  0.15382691  0.61130631  1
  In  In8  1  0.34029625  0.51521012  0.11941167  1
  In  In9  1  0.32857530  0.51191173  0.62481945  1
  In  In10  1  0.32206343  0.84725534  0.13789108  1
  In  In11  1  0.33099168  0.83716543  0.61381767  1
  In  In12  1  0.66124063  0.15722838  0.13018191  1
  In  In13  1  0.66426240  0.15082613  0.61615584  1
  In  In14  1  0.66449940  0.51749040  0.12913249  1
  In  In15  1  0.67794175  0.51256633  0.62247542  1
  In  In16  1  0.67097538  0.82802353  0.14058354  1
  In  In17  1  0.66546954  0.83722187  0.62019108  1
  In  In18  1  0.16373068  0.00124952  0.38349947  1
  In  In19  1  0.16190495  -0.01273146  0.86283172  1
  In  In20  1  0.15193040  0.34442674  0.39041575  1
  In  In21  1  0.17714093  0.33511087  0.87553283  1
  In  In22  1  0.16584850  0.67091996  0.37512882  1
  In  In23  1  0.17138338  0.66433855  0.87500781  1
  In  In24  1  0.47921942  -0.03131974  0.35873919  1
  In  In25  1  0.49015839  -0.01096673  0.86421187  1
  In  In26  1  0.50848156  0.33354009  0.37573402  1
  In  In27  1  0.51258624  0.34254992  0.87716346  1
  In  In28  1  0.51617450  0.69480951  0.35521609  1
  In  In29  1  0.49494455  0.66784510  0.87268399  1
  In  In30  1  0.83804960  -0.00119587  0.37666840  1
  In  In31  1  0.82723740  -0.01732927  0.84974050  1
  In  In32  1  0.84089245  0.31559023  0.38739297  1
  In  In33  1  0.83989220  0.32831900  0.86953856  1
  In  In34  1  0.84544616  0.66855824  0.36794660  1
  In  In35  1  0.84347006  0.68230601  0.85709461  1
  In  In36  1  0.00681662  0.16081916  0.38044593  1
  In  In37  1  0.01080339  0.15323499  0.87390619  1
  In  In38  1  0.00718545  0.51736570  0.36304614  1
  In  In39  1  0.00010623  0.51334885  0.87791559  1
  In  In40  1  -0.00258447  0.83285944  0.37714229  1
  In  In41  1  0.01178337  0.84066224  0.86445956  1
  In  In42  1  0.32038115  0.14132965  0.37780847  1
  In  In43  1  0.33618811  0.16143712  0.87228157  1
  In  In44  1  0.31964691  0.50826978  0.37566837  1
  In  In45  1  0.32792940  0.51148346  0.88558114  1
  In  In46  1  0.32928655  0.83302089  0.38205917  1
  In  In47  1  0.32440002  0.82370643  0.86662011  1
  In  In48  1  0.69435385  0.15704688  0.38834413  1
  In  In49  1  0.67597996  0.16215123  0.87055749  1
  In  In50  1  0.65936522  0.50429105  0.37382833  1
  In  In51  1  0.65794671  0.51081834  0.88091083  1
  In  In52  1  0.66807350  0.83722351  0.37826598  1
  In  In53  1  0.66325921  0.82934535  0.85934361  1
  In  In54  1  0.17423116  -0.00542760  0.14328807  1
  In  In55  1  0.17006863  -0.01191156  0.61618213  1
  In  In56  1  0.15304764  0.33830195  0.13135767  1
  In  In57  1  0.14796972  0.32939603  0.60461965  1
  In  In58  1  0.16935074  0.66968758  0.12459930  1
  In  In59  1  0.16846107  0.66664640  0.62034662  1
  In  In60  1  0.50363542  -0.01355516  0.14436092  1
  In  In61  1  0.50963876  -0.01074811  0.62431661  1
  In  In62  1  0.48176807  0.34091552  0.12805472  1
  In  In63  1  0.49980917  0.32808332  0.62685640  1
  In  In64  1  0.50991512  0.67001227  0.13342630  1
  In  In65  1  0.48349471  0.68022119  0.63079930  1
  In  In66  1  0.83887073  -0.00322653  0.13378463  1
  In  In67  1  0.83040965  -0.00830902  0.61800564  1
  In  In68  1  0.85509294  0.34240164  0.13374095  1
  In  In69  1  0.84592777  0.32558893  0.60803082  1
  In  In70  1  0.83082240  0.65710242  0.14437797  1
  In  In71  1  0.82078357  0.68968814  0.63975304  1
  In  In72  1  0.16658076  0.17038090  0.00814772  1
  In  In73  1  0.49363499  0.83233257  0.00424767  1
  In  In74  1  0.49218282  0.17075090  0.00101383  1
  In  In75  1  0.83240105  0.50993449  0.00910492  1
  In  In76  1  0.67786807  0.33009765  0.25288146  1
  In  In77  1  0.83846857  0.50503632  0.49907681  1
  In  In78  1  0.83962769  0.17055291  -0.00573441  1
  In  In79  1  0.49465531  0.50683129  0.49169430  1
  In  In80  1  0.50453204  0.15953556  0.49257157  1
  In  In81  1  0.66746899  0.33221125  0.75052402  1
  In  In82  1  0.32680248  0.32493406  0.25770831  1
  In  In83  1  0.83356311  0.83244583  -0.00394272  1
  In  In84  1  0.33060879  0.33320336  0.74993224  1
  In  In85  1  0.00014876  0.33331051  0.73993129  1
  Cu  Cu86  1  0.33175877  0.66890173  0.49782126  1
  Cu  Cu87  1  0.00064226  0.66830364  0.49818698  1
  Cu  Cu88  1  0.66206181  0.00040721  -0.00131754  1
  Cu  Cu89  1  0.17355913  0.82940874  0.74168079  1
  Cu  Cu90  1  0.16058864  0.83430701  0.25943979  1
  Cu  Cu91  1  0.49002186  0.15367623  0.74392343  1
  Cu  Cu92  1  0.66704012  0.66758934  0.00437318  1
  Cu  Cu93  1  0.49868950  0.50424126  0.25054438  1
  Cu  Cu94  1  0.33072352  0.67140006  0.00094617  1
  Cu  Cu95  1  0.65737118  0.34814579  0.00406788  1
  Cu  Cu96  1  0.50542470  0.15818129  0.25858148  1
  Cu  Cu97  1  0.66243387  0.67387026  0.50089140  1
  Cu  Cu98  1  0.15903053  0.14698503  0.73994527  1
  Cu  Cu99  1  0.00052908  -0.00396297  0.49842573  1
  Cu  Cu100  1  0.17119842  0.50252508  0.74706864  1
  Cu  Cu101  1  0.83131726  0.83756411  0.25737377  1
  Cu  Cu102  1  0.00384802  -0.00676092  -0.00485016  1
  Cu  Cu103  1  0.32910785  0.34860135  0.00404536  1
  Cu  Cu104  1  0.17170645  0.50594405  0.25001829  1
  Cu  Cu105  1  0.83065576  0.15669554  0.73624592  1
  Cu  Cu106  1  -0.00016188  0.33845612  0.01027701  1
  Cu  Cu107  1  0.01119975  0.66747574  0.00212334  1
  Cu  Cu108  1  0.50194856  0.51181837  0.75157115  1
  Cu  Cu109  1  0.32329770  -0.00107401  0.00698175  1
  Cu  Cu110  1  0.50072326  0.83500799  0.74268451  1
  Cu  Cu111  1  0.66963570  -0.00315276  0.49540328  1
  Cu  Cu112  1  0.83308897  0.50951135  0.74577830  1
  Cu  Cu113  1  0.84096222  0.16149616  0.25956712  1
  Cu  Cu114  1  0.33525218  0.33424016  0.49564272  1
  Se  Se115  1  0.07751436  0.07422070  0.06155537  1
  Se  Se116  1  0.08772010  0.07836497  0.55014838  1
  Se  Se117  1  0.08279545  0.42529338  0.05867894  1
  Se  Se118  1  0.07525217  0.42593977  0.54335113  1
  Se  Se119  1  0.08879745  0.75651731  0.05412389  1
  Se  Se120  1  0.08647473  0.75039697  0.55159838  1
  Se  Se121  1  0.41369901  0.07194939  0.06466083  1
  Se  Se122  1  0.41764747  0.07513409  0.55668670  1
  Se  Se123  1  0.42167185  0.42661725  0.05171420  1
  Se  Se124  1  0.41271885  0.41163813  0.55839653  1
  Se  Se125  1  0.40530970  0.74863445  0.06789501  1
  Se  Se126  1  0.41913219  0.75161395  0.54797178  1
  Se  Se127  1  0.74810818  0.07893788  0.05581237  1
  Se  Se128  1  0.75432600  0.08180391  0.54647662  1
  Se  Se129  1  0.74596251  0.41176262  0.06788595  1
  Se  Se130  1  0.74225342  0.41254043  0.55531025  1
  Se  Se131  1  0.75033113  0.74396072  0.06458329  1
  Se  Se132  1  0.75175308  0.75147947  0.55351016  1
  Se  Se133  1  0.26091194  0.26037008  0.06704952  1
  Se  Se134  1  0.24699076  0.25187488  0.54561120  1
  Se  Se135  1  0.24643320  0.58523431  0.05192445  1
  Se  Se136  1  0.24921707  0.58157125  0.54865756  1
  Se  Se137  1  0.24026833  0.91844287  0.06145124  1
  Se  Se138  1  0.25248781  0.91632688  0.54071652  1
  Se  Se139  1  0.58631494  0.25832642  0.06347557  1
  Se  Se140  1  0.58829700  0.25569320  0.55585846  1
  Se  Se141  1  0.57928172  0.58736110  0.05523862  1
  Se  Se142  1  0.58199217  0.59246585  0.55918970  1
  Se  Se143  1  0.59031059  0.91932529  0.06260153  1
  Se  Se144  1  0.58314290  0.91449429  0.54641779  1
  Se  Se145  1  0.92986546  0.24474652  0.06610010  1
  Se  Se146  1  0.93778887  0.26281333  0.53796663  1
  Se  Se147  1  0.92716070  0.59583997  0.06669498  1
  Se  Se148  1  0.91597864  0.59853179  0.56433406  1
  Se  Se149  1  0.92354709  0.91824460  0.05967167  1
  Se  Se150  1  0.91806261  0.91072927  0.55145827  1
  Se  Se151  1  0.07910559  0.24836639  0.45345594  1
  Se  Se152  1  0.07448369  0.25859800  0.94303198  1
  Se  Se153  1  0.08250648  0.58521648  0.44393886  1
  Se  Se154  1  0.08991743  0.58111219  0.94775974  1
  Se  Se155  1  0.08277916  0.90914445  0.44817425  1
  Se  Se156  1  0.08976927  0.91315642  0.94245450  1
  Se  Se157  1  0.40971434  0.25219982  0.43486342  1
  Se  Se158  1  0.40422170  0.26588501  0.93980962  1
  Se  Se159  1  0.41488699  0.60092046  0.43061977  1
  Se  Se160  1  0.42027905  0.59078201  0.94955530  1
  Se  Se161  1  0.42057693  0.91169989  0.44835045  1
  Se  Se162  1  0.40425246  0.92218134  0.94320818  1
  Se  Se163  1  0.74860511  0.25334549  0.45900197  1
  Se  Se164  1  0.73767918  0.26641191  0.94268257  1
  Se  Se165  1  0.74191761  0.59347492  0.44130474  1
  Se  Se166  1  0.75417641  0.59997103  0.93983908  1
  Se  Se167  1  0.75816708  0.91311072  0.44656030  1
  Se  Se168  1  0.74125087  0.92214894  0.93560245  1
  Se  Se169  1  0.25080033  0.07286058  0.45805443  1
  Se  Se170  1  0.24915007  0.07988788  0.94190671  1
  Se  Se171  1  0.25137400  0.42325164  0.44929211  1
  Se  Se172  1  0.24160654  0.42333797  0.94871702  1
  Se  Se173  1  0.24212532  0.75089427  0.44989700  1
  Se  Se174  1  0.24936301  0.75302207  0.94508831  1
  Se  Se175  1  0.58636288  0.06810137  0.42973277  1
  Se  Se176  1  0.58142998  0.07944600  0.93754054  1
  Se  Se177  1  0.59407668  0.40903047  0.44841664  1
  Se  Se178  1  0.57576676  0.43128262  0.95162816  1
  Se  Se179  1  0.57886972  0.75341605  0.44485830  1
  Se  Se180  1  0.59168457  0.75127849  0.94301378  1
  Se  Se181  1  0.91592264  0.08239666  0.44822632  1
  Se  Se182  1  0.91645547  0.06633611  0.93467367  1
  Se  Se183  1  0.92657822  0.42414181  0.43393963  1
  Se  Se184  1  0.91738011  0.41237972  0.94572892  1
  Se  Se185  1  0.91279140  0.74807416  0.44596193  1
  Se  Se186  1  0.92921836  0.74413027  0.93972541  1
  Se  Se187  1  0.23821742  0.24782310  0.32426209  1
  Se  Se188  1  0.23459960  0.23361038  0.80187615  1
  Se  Se189  1  0.25113067  0.59306654  0.30169170  1
  Se  Se190  1  0.25515882  0.58034190  0.80469519  1
  Se  Se191  1  0.24509647  0.91638977  0.31271835  1
  Se  Se192  1  0.25552538  0.91556522  0.79628926  1
  Se  Se193  1  0.58916202  0.23819727  0.31373854  1
  Se  Se194  1  0.56969891  0.23809138  0.80481682  1
  Se  Se195  1  0.58714651  0.58581633  0.30022537  1
  Se  Se196  1  0.58756349  0.59186593  0.80565310  1
  Se  Se197  1  0.59007369  0.91220098  0.30174773  1
  Se  Se198  1  0.58329694  0.92117349  0.79646769  1
  Se  Se199  1  0.92151439  0.24670654  0.31125373  1
  Se  Se200  1  0.91175609  0.23431735  0.80034602  1
  Se  Se201  1  0.91159900  0.58134876  0.29473107  1
  Se  Se202  1  0.92404306  0.58325348  0.80007082  1
  Se  Se203  1  0.92038930  0.91882896  0.30587513  1
  Se  Se204  1  0.92010774  0.90378549  0.79247815  1
  Se  Se205  1  0.07726307  0.07174268  0.31002244  1
  Se  Se206  1  0.07402588  0.07051769  0.79719006  1
  Se  Se207  1  0.09305983  0.42157433  0.30601908  1
  Se  Se208  1  0.08934596  0.41938035  0.80628726  1
  Se  Se209  1  0.07522251  0.74641301  0.30638938  1
  Se  Se210  1  0.09484578  0.74885502  0.80320010  1
  Se  Se211  1  0.41195735  0.07965495  0.30429172  1
  Se  Se212  1  0.40514446  0.07561493  0.79977016  1
  Se  Se213  1  0.42214365  0.42287653  0.31101587  1
  Se  Se214  1  0.42317240  0.42396514  0.80916450  1
  Se  Se215  1  0.39349527  0.74017956  0.30828857  1
  Se  Se216  1  0.41990445  0.75201116  0.80150515  1
  Se  Se217  1  0.75184552  0.07905561  0.30531469  1
  Se  Se218  1  0.74392788  0.08124987  0.79449891  1
  Se  Se219  1  0.75842790  0.41439052  0.32148744  1
  Se  Se220  1  0.75740511  0.42772185  0.80983190  1
  Se  Se221  1  0.74975458  0.75033281  0.30893978  1
  Se  Se222  1  0.75573708  0.75979057  0.79327084  1
  Se  Se223  1  0.23413179  0.09568397  0.20994921  1
  Se  Se224  1  0.25135852  0.07147209  0.69014408  1
  Se  Se225  1  0.25518099  0.42411774  0.19131171  1
  Se  Se226  1  0.23827815  0.41351095  0.68419893  1
  Se  Se227  1  0.24123469  0.75436853  0.19926177  1
  Se  Se228  1  0.25673102  0.74901335  0.68592478  1
  Se  Se229  1  0.59046101  0.07653722  0.20451043  1
  Se  Se230  1  0.58405312  0.08160053  0.69282834  1
  Se  Se231  1  0.57707842  0.41678179  0.19423469  1
  Se  Se232  1  0.57780364  0.42765784  0.69062992  1
  Se  Se233  1  0.57557218  0.75916801  0.20459522  1
  Se  Se234  1  0.58460494  0.75097787  0.69079766  1
  Se  Se235  1  0.92190251  0.07935537  0.20174628  1
  Se  Se236  1  0.91841117  0.07797213  0.68456500  1
  Se  Se237  1  0.91924444  0.41721181  0.21305954  1
  Se  Se238  1  0.90612844  0.42511563  0.68386819  1
  Se  Se239  1  0.91245933  0.75373184  0.20055627  1
  Se  Se240  1  0.93329562  0.74333924  0.69563621  1
  Se  Se241  1  0.09295900  0.25746374  0.20957469  1
  Se  Se242  1  0.08521747  0.23705935  0.68233690  1
  Se  Se243  1  0.08680312  0.58531890  0.19395952  1
  Se  Se244  1  0.08744430  0.58684821  0.69521810  1
  Se  Se245  1  0.07695524  0.91644776  0.20313679  1
  Se  Se246  1  0.08838900  0.91405643  0.69116115  1
  Se  Se247  1  0.42374844  0.23621202  0.19716587  1
  Se  Se248  1  0.41128191  0.23658645  0.68621559  1
  Se  Se249  1  0.41758878  0.58738046  0.19589161  1
  Se  Se250  1  0.41137171  0.58513871  0.69759544  1
  Se  Se251  1  0.41093106  0.91600900  0.20876552  1
  Se  Se252  1  0.41504687  0.91398797  0.68841323  1
  Se  Se253  1  0.76627242  0.23849939  0.19002189  1
  Se  Se254  1  0.75530750  0.24860767  0.68254100  1
  Se  Se255  1  0.74855769  0.57139882  0.20810706  1
  Se  Se256  1  0.74208589  0.59168180  0.70101459  1
  Se  Se257  1  0.74994624  0.92205953  0.20186067  1
  Se  Se258  1  0.73971894  0.92541988  0.68966629  1
