# generated using pymatgen
data_In86Cu29Se144
_symmetry_space_group_name_H-M   'P 1'
_cell_length_a   17.57933962
_cell_length_b   17.57550725
_cell_length_c   23.43826809
_cell_angle_alpha   89.96726091
_cell_angle_beta   90.06011337
_cell_angle_gamma   89.98482425
_symmetry_Int_Tables_number   1
_chemical_formula_structural   In86Cu29Se144
_chemical_formula_sum   'In86 Cu29 Se144'
_cell_volume   7241.61808529
_cell_formula_units_Z   1
loop_
 _symmetry_equiv_pos_site_id
 _symmetry_equiv_pos_as_xyz
  1  'x, y, z'
loop_
 _atom_site_type_symbol
 _atom_site_label
 _atom_site_symmetry_multiplicity
 _atom_site_fract_x
 _atom_site_fract_y
 _atom_site_fract_z
 _atom_site_occupancy
  In  In0  1  0.01357413  0.16805791  0.12934773  1
  In  In1  1  -0.00567251  0.16981433  0.62577164  1
  In  In2  1  0.00203729  0.49900206  0.12396452  1
  In  In3  1  -0.00685331  0.48325420  0.62187131  1
  In  In4  1  -0.01136970  0.82243560  0.11915601  1
  In  In5  1  0.00672823  0.84426390  0.62975370  1
  In  In6  1  0.32481441  0.18171149  0.13349740  1
  In  In7  1  0.34833876  0.17005557  0.62138233  1
  In  In8  1  0.32887228  0.50802576  0.13454486  1
  In  In9  1  0.32938383  0.49341270  0.61833673  1
  In  In10  1  0.31932312  0.83073848  0.12600578  1
  In  In11  1  0.33802733  0.82104960  0.62253959  1
  In  In12  1  0.67056047  0.17221724  0.13947588  1
  In  In13  1  0.67003466  0.16767765  0.62541996  1
  In  In14  1  0.67563096  0.47939280  0.12603936  1
  In  In15  1  0.65709778  0.50456734  0.62775153  1
  In  In16  1  0.69145806  0.83119097  0.12968599  1
  In  In17  1  0.66705829  0.83578141  0.62597010  1
  In  In18  1  0.16296869  -0.00090040  0.37712469  1
  In  In19  1  0.15242916  0.01220323  0.88399451  1
  In  In20  1  0.18026606  0.33742616  0.36034961  1
  In  In21  1  0.16411423  0.33574382  0.87651647  1
  In  In22  1  0.15566137  0.65404466  0.36431286  1
  In  In23  1  0.16728682  0.66580592  0.88590048  1
  In  In24  1  0.51242267  -0.00668466  0.38394124  1
  In  In25  1  0.51155599  -0.00479965  0.86902316  1
  In  In26  1  0.50130423  0.33376193  0.38252579  1
  In  In27  1  0.49846751  0.33945777  0.86440134  1
  In  In28  1  0.49560362  0.67237117  0.38071148  1
  In  In29  1  0.50405398  0.65347212  0.87228598  1
  In  In30  1  0.83780862  0.02529530  0.37786513  1
  In  In31  1  0.82771540  -0.00445158  0.87045004  1
  In  In32  1  0.81624962  0.31171811  0.35381256  1
  In  In33  1  0.83191803  0.33823761  0.87517431  1
  In  In34  1  0.83324293  0.65870603  0.36933448  1
  In  In35  1  0.82614856  0.67129951  0.87926906  1
  In  In36  1  -0.01335895  0.16775089  0.37045707  1
  In  In37  1  0.00420564  0.18015908  0.87121693  1
  In  In38  1  0.00381435  0.49951033  0.37025635  1
  In  In39  1  0.00646769  0.49317174  0.88256577  1
  In  In40  1  0.00666358  0.83646184  0.37151672  1
  In  In41  1  -0.01244204  0.84148002  0.88364680  1
  In  In42  1  0.34343638  0.20873798  0.36513098  1
  In  In43  1  0.31833625  0.17269627  0.87654420  1
  In  In44  1  0.33246992  0.49325303  0.37184673  1
  In  In45  1  0.33531004  0.48836123  0.87561320  1
  In  In46  1  0.34886845  0.83411706  0.37400650  1
  In  In47  1  0.33170302  0.82322199  0.87942584  1
  In  In48  1  0.66830095  0.16751768  0.37876850  1
  In  In49  1  0.67104863  0.17037055  0.86834594  1
  In  In50  1  0.66849748  0.49020791  0.37798866  1
  In  In51  1  0.66596425  0.50151932  0.87033221  1
  In  In52  1  0.65360607  0.82696107  0.37605392  1
  In  In53  1  0.67711744  0.84136170  0.86653951  1
  In  In54  1  0.15980984  -0.00392049  0.11577685  1
  In  In55  1  0.16155406  -0.00137419  0.63121843  1
  In  In56  1  0.16002664  0.33269538  0.12632419  1
  In  In57  1  0.15606043  0.34060146  0.62786172  1
  In  In58  1  0.16391851  0.66394537  0.12647699  1
  In  In59  1  0.17986227  0.66448653  0.62329929  1
  In  In60  1  0.50879289  0.01114433  0.13054607  1
  In  In61  1  0.51534847  0.01294756  0.61390542  1
  In  In62  1  0.50665365  0.33661479  0.13880057  1
  In  In63  1  0.50211233  0.33299567  0.62322427  1
  In  In64  1  0.49763757  0.64490832  0.13511035  1
  In  In65  1  0.51619517  0.67205174  0.60491717  1
  In  In66  1  0.83492428  -0.01061793  0.12889950  1
  In  In67  1  0.82781231  0.00688551  0.62922606  1
  In  In68  1  0.82243432  0.34499116  0.13023839  1
  In  In69  1  0.84330548  0.32128141  0.63023322  1
  In  In70  1  0.84594047  0.67591157  0.11886412  1
  In  In71  1  0.82586522  0.65260682  0.62503307  1
  In  In72  1  0.83030337  0.83787605  0.50542047  1
  In  In73  1  0.33767171  0.00122001  0.25121196  1
  In  In74  1  -0.00521356  0.66284973  0.75259309  1
  In  In75  1  0.17125244  0.83065636  0.49589297  1
  In  In76  1  0.83020735  0.49166830  0.49189152  1
  In  In77  1  0.49835891  0.49704738  0.00462526  1
  In  In78  1  0.17111525  0.16834321  0.49309892  1
  In  In79  1  0.83479649  0.17148970  0.00046218  1
  In  In80  1  0.66707985  0.66277676  0.25325926  1
  In  In81  1  0.33869991  0.66272072  0.75093924  1
  In  In82  1  0.33593819  0.00348035  0.74862800  1
  In  In83  1  0.50065641  0.83266752  -0.00031282  1
  In  In84  1  0.49710596  0.17166444  0.01104194  1
  In  In85  1  -0.00850244  0.00195240  0.24777096  1
  Cu  Cu86  1  0.51004121  0.83628377  0.74149543  1
  Cu  Cu87  1  0.32420969  0.33330350  0.00239563  1
  Cu  Cu88  1  0.16036373  0.49317265  0.74933034  1
  Cu  Cu89  1  0.33706488  0.00168992  0.49639608  1
  Cu  Cu90  1  0.15898216  0.84357519  0.75857219  1
  Cu  Cu91  1  0.00375407  0.66194459  0.00234864  1
  Cu  Cu92  1  0.33605217  0.33848337  0.49702306  1
  Cu  Cu93  1  0.66954473  0.32815209  0.50096411  1
  Cu  Cu94  1  0.50788608  0.16750454  0.25851321  1
  Cu  Cu95  1  0.50237161  0.82829378  0.25421662  1
  Cu  Cu96  1  0.67099237  -0.00060976  -0.00234163  1
  Cu  Cu97  1  0.16315197  0.17859898  0.75310690  1
  Cu  Cu98  1  0.00336870  0.33389795  0.00062143  1
  Cu  Cu99  1  0.67101563  0.00405978  0.50156204  1
  Cu  Cu100  1  0.16675705  0.49883607  0.24537458  1
  Cu  Cu101  1  0.50292535  0.16964486  0.74332342  1
  Cu  Cu102  1  0.83174719  0.16393046  0.75053445  1
  Cu  Cu103  1  0.16478389  0.82299470  0.24734625  1
  Cu  Cu104  1  0.33273483  0.65601488  0.49577855  1
  Cu  Cu105  1  0.83162069  0.83161799  0.75353348  1
  Cu  Cu106  1  0.00513141  0.66400999  0.49196885  1
  Cu  Cu107  1  0.00148840  0.33364741  0.49713671  1
  Cu  Cu108  1  0.50123140  0.49948848  0.74410303  1
  Cu  Cu109  1  0.82662041  0.49120990  0.74926923  1
  Cu  Cu110  1  0.32447736  0.66861463  0.00847658  1
  Cu  Cu111  1  -0.00325118  -0.00184672  0.00262337  1
  Cu  Cu112  1  0.67464757  0.66536533  -0.00232784  1
  Cu  Cu113  1  0.32409591  0.00130814  0.00072902  1
  Cu  Cu114  1  0.84299103  0.50212041  0.24799498  1
  Se  Se115  1  0.07941840  0.08589463  0.05110633  1
  Se  Se116  1  0.08386904  0.08106023  0.55802528  1
  Se  Se117  1  0.08670432  0.41860456  0.05356289  1
  Se  Se118  1  0.08375395  0.41829132  0.54939966  1
  Se  Se119  1  0.08458969  0.74899137  0.05559614  1
  Se  Se120  1  0.07711690  0.74364005  0.55958444  1
  Se  Se121  1  0.40330063  0.07658845  0.06448773  1
  Se  Se122  1  0.41997433  0.08632188  0.54892850  1
  Se  Se123  1  0.40864993  0.40685770  0.06417135  1
  Se  Se124  1  0.42109077  0.41756729  0.55266876  1
  Se  Se125  1  0.41699046  0.74053034  0.06414034  1
  Se  Se126  1  0.41266320  0.74653759  0.54709115  1
  Se  Se127  1  0.74340158  0.08254081  0.06109602  1
  Se  Se128  1  0.75451894  0.08748495  0.55427972  1
  Se  Se129  1  0.75696414  0.41842171  0.04821937  1
  Se  Se130  1  0.74958127  0.40850369  0.56320609  1
  Se  Se131  1  0.75478480  0.75249556  0.04967396  1
  Se  Se132  1  0.74301044  0.73791766  0.55635372  1
  Se  Se133  1  0.24397873  0.24747028  0.05570129  1
  Se  Se134  1  0.25455195  0.25811135  0.55875875  1
  Se  Se135  1  0.24725229  0.57795995  0.05835991  1
  Se  Se136  1  0.24579503  0.57872337  0.54996625  1
  Se  Se137  1  0.24655101  0.91118912  0.05152642  1
  Se  Se138  1  0.25775856  0.92462383  0.55972360  1
  Se  Se139  1  0.59308384  0.26009147  0.06398560  1
  Se  Se140  1  0.58441669  0.24694978  0.55568410  1
  Se  Se141  1  0.59409765  0.58893081  0.05940800  1
  Se  Se142  1  0.58346477  0.56864715  0.54608480  1
  Se  Se143  1  0.59016411  0.92141250  0.06036570  1
  Se  Se144  1  0.58868002  0.91480810  0.55184039  1
  Se  Se145  1  0.92331313  0.25745314  0.06362194  1
  Se  Se146  1  0.91884613  0.25058093  0.55084579  1
  Se  Se147  1  0.91715917  0.58024323  0.05374825  1
  Se  Se148  1  0.92289822  0.58609685  0.55288580  1
  Se  Se149  1  0.91111841  0.91514308  0.05264484  1
  Se  Se150  1  0.92524198  0.92724655  0.55971110  1
  Se  Se151  1  0.08243007  0.25836016  0.43336846  1
  Se  Se152  1  0.08584700  0.24938192  0.94733293  1
  Se  Se153  1  0.08684197  0.57696535  0.44376585  1
  Se  Se154  1  0.08758473  0.57783946  0.95067782  1
  Se  Se155  1  0.07287808  0.92593892  0.44932451  1
  Se  Se156  1  0.08252577  0.91487930  0.94918592  1
  Se  Se157  1  0.42054801  0.24664037  0.45339226  1
  Se  Se158  1  0.41196243  0.25911531  0.94280747  1
  Se  Se159  1  0.41660311  0.57569694  0.44158193  1
  Se  Se160  1  0.40561245  0.59194778  0.94531320  1
  Se  Se161  1  0.42117441  0.91286729  0.44932578  1
  Se  Se162  1  0.41048270  0.92866908  0.94039313  1
  Se  Se163  1  0.75672793  0.25218876  0.44490061  1
  Se  Se164  1  0.73787651  0.25754687  0.94468784  1
  Se  Se165  1  0.74125079  0.59385097  0.44318494  1
  Se  Se166  1  0.74970458  0.57649533  0.94318157  1
  Se  Se167  1  0.74577231  0.92307671  0.43776710  1
  Se  Se168  1  0.75188635  0.91411433  0.94518246  1
  Se  Se169  1  0.26404442  0.08142174  0.43250087  1
  Se  Se170  1  0.24553590  0.08944055  0.94881995  1
  Se  Se171  1  0.24570710  0.41345440  0.44272246  1
  Se  Se172  1  0.24705851  0.42010911  0.94670084  1
  Se  Se173  1  0.25520468  0.73981927  0.43394630  1
  Se  Se174  1  0.24691894  0.75439557  0.95252231  1
  Se  Se175  1  0.58463197  0.08738891  0.44999992  1
  Se  Se176  1  0.58576895  0.08187702  0.94454103  1
  Se  Se177  1  0.58687295  0.41556818  0.45145668  1
  Se  Se178  1  0.58409118  0.40962625  0.94129476  1
  Se  Se179  1  0.58056520  0.75029987  0.45020099  1
  Se  Se180  1  0.58952565  0.74333274  0.93777440  1
  Se  Se181  1  0.92527251  0.08878254  0.45102171  1
  Se  Se182  1  0.92036902  0.07958150  0.93871001  1
  Se  Se183  1  0.91728575  0.40291674  0.43128729  1
  Se  Se184  1  0.91598681  0.41351104  0.94752207  1
  Se  Se185  1  0.92015710  0.74714630  0.44046373  1
  Se  Se186  1  0.91786116  0.74365831  0.94752479  1
  Se  Se187  1  0.23812014  0.23406388  0.29330671  1
  Se  Se188  1  0.25089732  0.25941288  0.80362725  1
  Se  Se189  1  0.25115260  0.57920368  0.30201380  1
  Se  Se190  1  0.24003883  0.57764542  0.80791936  1
  Se  Se191  1  0.24259202  0.90604131  0.30777991  1
  Se  Se192  1  0.24832881  0.91769624  0.81532623  1
  Se  Se193  1  0.58675912  0.25603285  0.31108337  1
  Se  Se194  1  0.58295811  0.25089812  0.80237857  1
  Se  Se195  1  0.57708230  0.57680850  0.31384396  1
  Se  Se196  1  0.58425288  0.58303336  0.79797192  1
  Se  Se197  1  0.58228440  0.91623644  0.30458167  1
  Se  Se198  1  0.59105430  0.92006839  0.79643157  1
  Se  Se199  1  0.92739097  0.25654830  0.29533246  1
  Se  Se200  1  0.91000824  0.25146714  0.80563806  1
  Se  Se201  1  0.92310347  0.58684064  0.30153152  1
  Se  Se202  1  0.90680304  0.57195237  0.81156622  1
  Se  Se203  1  0.90584769  0.91596011  0.31345637  1
  Se  Se204  1  0.91720020  0.91543741  0.80362521  1
  Se  Se205  1  0.08782930  0.08618034  0.30691632  1
  Se  Se206  1  0.08375691  0.08928596  0.80490987  1
  Se  Se207  1  0.08384214  0.41690429  0.30007323  1
  Se  Se208  1  0.07746882  0.41383236  0.80538811  1
  Se  Se209  1  0.07597184  0.74722455  0.30123136  1
  Se  Se210  1  0.08515035  0.75263225  0.81358994  1
  Se  Se211  1  0.42312534  0.08798152  0.31690944  1
  Se  Se212  1  0.42395762  0.09477031  0.81108512  1
  Se  Se213  1  0.39510360  0.38313061  0.31360185  1
  Se  Se214  1  0.41238269  0.42063403  0.79693960  1
  Se  Se215  1  0.41597783  0.74470704  0.30202884  1
  Se  Se216  1  0.43071399  0.76076372  0.80646892  1
  Se  Se217  1  0.75238963  0.09280207  0.30592653  1
  Se  Se218  1  0.74638757  0.07970357  0.80222894  1
  Se  Se219  1  0.75249795  0.42562191  0.30109445  1
  Se  Se220  1  0.74233215  0.41005668  0.80369654  1
  Se  Se221  1  0.75606405  0.75951500  0.30799121  1
  Se  Se222  1  0.74797060  0.74382323  0.80157766  1
  Se  Se223  1  0.24054565  0.07986899  0.19039458  1
  Se  Se224  1  0.24420845  0.09828108  0.69146862  1
  Se  Se225  1  0.24960912  0.41219201  0.19452753  1
  Se  Se226  1  0.24856474  0.41845022  0.69329462  1
  Se  Se227  1  0.25299706  0.74163470  0.19762501  1
  Se  Se228  1  0.24076632  0.76183543  0.69961741  1
  Se  Se229  1  0.58882288  0.08311084  0.20453783  1
  Se  Se230  1  0.58654071  0.08222766  0.69519507  1
  Se  Se231  1  0.57009513  0.44318378  0.19692370  1
  Se  Se232  1  0.58533169  0.41189059  0.69549638  1
  Se  Se233  1  0.58026139  0.75413606  0.18723655  1
  Se  Se234  1  0.58278659  0.74412812  0.68844057  1
  Se  Se235  1  0.90522329  0.09639760  0.18896380  1
  Se  Se236  1  0.91810189  0.08358998  0.69690561  1
  Se  Se237  1  0.92155179  0.41524907  0.19429455  1
  Se  Se238  1  0.91814723  0.41284889  0.69955550  1
  Se  Se239  1  0.90464857  0.76174242  0.19685341  1
  Se  Se240  1  0.90924560  0.75424118  0.68806932  1
  Se  Se241  1  0.08712443  0.24963222  0.20126512  1
  Se  Se242  1  0.07698834  0.25346962  0.69469384  1
  Se  Se243  1  0.07998891  0.58413376  0.19593749  1
  Se  Se244  1  0.08674518  0.57891595  0.68805954  1
  Se  Se245  1  0.08517059  0.90865219  0.19051633  1
  Se  Se246  1  0.07778685  0.92641930  0.70481900  1
  Se  Se247  1  0.42413861  0.24458189  0.19987990  1
  Se  Se248  1  0.41603783  0.25411117  0.69570383  1
  Se  Se249  1  0.41762053  0.57407669  0.20806501  1
  Se  Se250  1  0.42383319  0.58256704  0.68259097  1
  Se  Se251  1  0.42497757  0.90782466  0.18885425  1
  Se  Se252  1  0.42358871  0.91460180  0.68487739  1
  Se  Se253  1  0.74673784  0.26319332  0.20270098  1
  Se  Se254  1  0.74970117  0.24957057  0.69749704  1
  Se  Se255  1  0.75831378  0.58103833  0.18750096  1
  Se  Se256  1  0.74622288  0.57987249  0.69874263  1
  Se  Se257  1  0.73826470  0.93229894  0.19957681  1
  Se  Se258  1  0.75173112  0.91452155  0.69509806  1
