# generated using pymatgen
data_In86Cu29Se144
_symmetry_space_group_name_H-M   'P 1'
_cell_length_a   17.59624819
_cell_length_b   17.59393653
_cell_length_c   23.45290109
_cell_angle_alpha   89.96248356
_cell_angle_beta   90.00884550
_cell_angle_gamma   90.00060439
_symmetry_Int_Tables_number   1
_chemical_formula_structural   In86Cu29Se144
_chemical_formula_sum   'In86 Cu29 Se144'
_cell_volume   7260.71806874
_cell_formula_units_Z   1
loop_
 _symmetry_equiv_pos_site_id
 _symmetry_equiv_pos_as_xyz
  1  'x, y, z'
loop_
 _atom_site_type_symbol
 _atom_site_label
 _atom_site_symmetry_multiplicity
 _atom_site_fract_x
 _atom_site_fract_y
 _atom_site_fract_z
 _atom_site_occupancy
  In  In0  1  0.00807759  0.16246856  0.11944397  1
  In  In1  1  0.02023668  0.16966414  0.63067403  1
  In  In2  1  -0.00830619  0.49264599  0.10738619  1
  In  In3  1  -0.00284344  0.49807673  0.63153576  1
  In  In4  1  0.01295088  0.83634699  0.12711710  1
  In  In5  1  -0.00515072  0.82493639  0.62060852  1
  In  In6  1  0.33300478  0.17892011  0.11899334  1
  In  In7  1  0.32216199  0.16896515  0.62959641  1
  In  In8  1  0.32925868  0.49146048  0.10843641  1
  In  In9  1  0.31674584  0.47463247  0.60773466  1
  In  In10  1  0.33333489  0.82108775  0.12159243  1
  In  In11  1  0.33555658  0.83923615  0.62398144  1
  In  In12  1  0.67583634  0.16754055  0.12420147  1
  In  In13  1  0.66911485  0.18194649  0.62814091  1
  In  In14  1  0.65499339  0.48288147  0.11040712  1
  In  In15  1  0.66857880  0.49898149  0.62486237  1
  In  In16  1  0.66072064  0.84408558  0.11992159  1
  In  In17  1  0.65383766  0.82159240  0.61801770  1
  In  In18  1  0.15359564  0.01318896  0.38143098  1
  In  In19  1  0.17229115  -0.00139818  0.87185930  1
  In  In20  1  0.17266487  0.32593367  0.39546013  1
  In  In21  1  0.16791685  0.33171183  0.86805972  1
  In  In22  1  0.17494451  0.66004707  0.38725346  1
  In  In23  1  0.15160767  0.67064218  0.86054235  1
  In  In24  1  0.50160542  0.00741522  0.39352537  1
  In  In25  1  0.48173880  0.00409256  0.87330173  1
  In  In26  1  0.50728892  0.32580498  0.38821160  1
  In  In27  1  0.50886972  0.34206891  0.86420382  1
  In  In28  1  0.50012270  0.66906053  0.38600501  1
  In  In29  1  0.50627814  0.65228266  0.87585286  1
  In  In30  1  0.82827811  -0.00791495  0.37858688  1
  In  In31  1  0.84268803  0.01900478  0.88041024  1
  In  In32  1  0.83437790  0.34892028  0.37617534  1
  In  In33  1  0.83304423  0.33510096  0.88007384  1
  In  In34  1  0.83352888  0.66932448  0.38249549  1
  In  In35  1  0.82113548  0.65414578  0.86347594  1
  In  In36  1  0.01502000  0.16298280  0.37348856  1
  In  In37  1  -0.01114565  0.17118362  0.88626331  1
  In  In38  1  0.00042741  0.49683997  0.38628828  1
  In  In39  1  0.00106791  0.49991229  0.87041420  1
  In  In40  1  -0.00917293  0.84490479  0.38415423  1
  In  In41  1  0.01203817  0.83531555  0.86659896  1
  In  In42  1  0.33290676  0.17427318  0.38967960  1
  In  In43  1  0.31953783  0.16007281  0.85565526  1
  In  In44  1  0.34024040  0.48699791  0.39778974  1
  In  In45  1  0.34449531  0.48846401  0.87322652  1
  In  In46  1  0.33651773  0.83208525  0.38823874  1
  In  In47  1  0.32929506  0.84811471  0.86555036  1
  In  In48  1  0.65433937  0.16605842  0.37760084  1
  In  In49  1  0.67144112  0.19214285  0.87590511  1
  In  In50  1  0.67336133  0.49674393  0.37913472  1
  In  In51  1  0.66179435  0.49511138  0.87399280  1
  In  In52  1  0.66480788  0.84775486  0.39554581  1
  In  In53  1  0.66767937  0.81551697  0.87171362  1
  In  In54  1  0.15670699  0.00644333  0.13284762  1
  In  In55  1  0.18037719  0.01351899  0.62195906  1
  In  In56  1  0.16152129  0.33020200  0.10958952  1
  In  In57  1  0.16379568  0.32488379  0.63216050  1
  In  In58  1  0.17165388  0.66235587  0.12073853  1
  In  In59  1  0.15765169  0.66208056  0.62538987  1
  In  In60  1  0.51359578  -0.00451163  0.12029100  1
  In  In61  1  0.48941844  -0.01285131  0.61905074  1
  In  In62  1  0.50026324  0.33956213  0.12077847  1
  In  In63  1  0.49941923  0.33395104  0.62091718  1
  In  In64  1  0.50133648  0.66516445  0.11542787  1
  In  In65  1  0.50616460  0.66702046  0.62412433  1
  In  In66  1  0.84300215  0.01532275  0.11785154  1
  In  In67  1  0.84565406  -0.00378125  0.62246938  1
  In  In68  1  0.82672982  0.32450408  0.11594021  1
  In  In69  1  0.82315867  0.34495690  0.63498435  1
  In  In70  1  0.84307722  0.66028441  0.12294162  1
  In  In71  1  0.83363262  0.66081009  0.62962028  1
  In  In72  1  0.17033937  0.83470508  -0.01182979  1
  In  In73  1  0.82924385  0.82684178  -0.00061632  1
  In  In74  1  0.66234380  -0.00357691  0.74380304  1
  In  In75  1  0.33236403  0.00271009  0.25435353  1
  In  In76  1  0.00230037  0.00156089  0.75042158  1
  In  In77  1  0.49640963  0.16831076  -0.00692457  1
  In  In78  1  0.32658717  0.33639572  0.26448812  1
  In  In79  1  0.00463656  0.66370719  0.24954141  1
  In  In80  1  0.33869182  0.66114701  0.73871790  1
  In  In81  1  0.66980868  0.00643504  0.25147454  1
  In  In82  1  0.00263816  0.33052423  0.24560998  1
  In  In83  1  0.67287767  0.67138131  0.25642129  1
  In  In84  1  0.32867874  0.66040561  0.24971097  1
  In  In85  1  0.83321972  0.16593676  0.50551391  1
  Cu  Cu86  1  0.50086664  0.83110237  0.74647463  1
  Cu  Cu87  1  0.33159200  -0.00149148  0.50369648  1
  Cu  Cu88  1  0.66691846  0.33828532  0.50417846  1
  Cu  Cu89  1  0.00651399  0.34096377  -0.00668777  1
  Cu  Cu90  1  0.50240716  0.83825428  0.25297717  1
  Cu  Cu91  1  0.49251375  0.16744188  0.74714149  1
  Cu  Cu92  1  0.00014875  0.66199831  0.50547075  1
  Cu  Cu93  1  0.00732530  -0.00133697  0.50492010  1
  Cu  Cu94  1  -0.00240897  0.66459394  -0.01278302  1
  Cu  Cu95  1  0.83552243  0.82773803  0.74678969  1
  Cu  Cu96  1  0.50341549  0.49629886  0.24464377  1
  Cu  Cu97  1  0.15634137  0.84008791  0.26045949  1
  Cu  Cu98  1  -0.00233695  0.33387331  0.50890902  1
  Cu  Cu99  1  0.16739967  0.49569465  0.74545887  1
  Cu  Cu100  1  0.82600175  0.49778924  0.25066587  1
  Cu  Cu101  1  0.83216843  0.17488313  0.75616699  1
  Cu  Cu102  1  0.32906914  0.32824290  -0.01093532  1
  Cu  Cu103  1  0.65988829  -0.00586881  -0.00547102  1
  Cu  Cu104  1  0.50499508  0.49713350  0.74455797  1
  Cu  Cu105  1  0.83890894  0.84581383  0.25591625  1
  Cu  Cu106  1  0.83383124  0.49773816  0.75364212  1
  Cu  Cu107  1  0.83887644  0.17384312  0.24243730  1
  Cu  Cu108  1  0.67275048  0.66352775  0.50341508  1
  Cu  Cu109  1  0.32883632  -0.00177616  -0.00611353  1
  Cu  Cu110  1  0.65937117  0.65829237  -0.00623280  1
  Cu  Cu111  1  0.33523455  0.67022674  0.51097044  1
  Cu  Cu112  1  0.33599219  0.66446874  -0.00436728  1
  Cu  Cu113  1  0.49885112  0.17777812  0.25843534  1
  Cu  Cu114  1  0.16461044  0.49175478  0.25106483  1
  Se  Se115  1  0.09396152  0.08110635  0.05290885  1
  Se  Se116  1  0.08760744  0.08852397  0.55361587  1
  Se  Se117  1  0.09216194  0.42695478  0.04437174  1
  Se  Se118  1  0.08082076  0.41363884  0.56418517  1
  Se  Se119  1  0.07741424  0.74209161  0.05137777  1
  Se  Se120  1  0.08491538  0.74897675  0.55268322  1
  Se  Se121  1  0.41078678  0.07359681  0.05850929  1
  Se  Se122  1  0.40842335  0.08358252  0.56056758  1
  Se  Se123  1  0.41519437  0.40668559  0.04556841  1
  Se  Se124  1  0.42842694  0.42232910  0.54913619  1
  Se  Se125  1  0.41673215  0.74952264  0.04925356  1
  Se  Se126  1  0.42155688  0.75365775  0.55916053  1
  Se  Se127  1  0.73886393  0.07374001  0.05356729  1
  Se  Se128  1  0.74361965  0.07761975  0.56570856  1
  Se  Se129  1  0.76971202  0.43245050  0.05552350  1
  Se  Se130  1  0.75500235  0.41931567  0.55405173  1
  Se  Se131  1  0.73616771  0.73664202  0.06054252  1
  Se  Se132  1  0.75392855  0.74601811  0.55846573  1
  Se  Se133  1  0.24813705  0.24533012  0.04498720  1
  Se  Se134  1  0.24448848  0.25038348  0.55744474  1
  Se  Se135  1  0.24806098  0.58448214  0.04743518  1
  Se  Se136  1  0.24698140  0.58575828  0.55675470  1
  Se  Se137  1  0.25356882  0.91910176  0.05991710  1
  Se  Se138  1  0.24669019  0.91485896  0.55466936  1
  Se  Se139  1  0.58879334  0.25183989  0.05541826  1
  Se  Se140  1  0.58556064  0.24942400  0.55241595  1
  Se  Se141  1  0.57546529  0.57568885  0.04768731  1
  Se  Se142  1  0.58649302  0.58237098  0.55502616  1
  Se  Se143  1  0.57571603  0.90930326  0.04388576  1
  Se  Se144  1  0.58677434  0.91962119  0.55420203  1
  Se  Se145  1  0.93315741  0.25958289  0.05735519  1
  Se  Se146  1  0.91774470  0.25428356  0.56984798  1
  Se  Se147  1  0.91305648  0.58612382  0.04404996  1
  Se  Se148  1  0.91646097  0.57934098  0.55872739  1
  Se  Se149  1  0.92306444  0.91421100  0.05792583  1
  Se  Se150  1  0.91891088  0.91397999  0.55005318  1
  Se  Se151  1  0.07416312  0.24696898  0.45281909  1
  Se  Se152  1  0.08740303  0.25354925  0.94270408  1
  Se  Se153  1  0.08522448  0.57957876  0.45152454  1
  Se  Se154  1  0.08747065  0.58678347  0.93720758  1
  Se  Se155  1  0.08883745  0.91489075  0.44892954  1
  Se  Se156  1  0.07193751  0.92789919  0.94262175  1
  Se  Se157  1  0.40564250  0.26663195  0.45326167  1
  Se  Se158  1  0.40966989  0.25073014  0.92744865  1
  Se  Se159  1  0.41718002  0.58811412  0.45394070  1
  Se  Se160  1  0.41770931  0.57710766  0.94479792  1
  Se  Se161  1  0.42046856  0.91516090  0.45412026  1
  Se  Se162  1  0.41313254  0.91305430  0.94396795  1
  Se  Se163  1  0.74729519  0.25762391  0.44190089  1
  Se  Se164  1  0.76717134  0.23776951  0.94937578  1
  Se  Se165  1  0.75462093  0.58091775  0.44736209  1
  Se  Se166  1  0.74797972  0.58106911  0.94158860  1
  Se  Se167  1  0.75787615  0.92204407  0.45779599  1
  Se  Se168  1  0.74510030  0.91982042  0.93417929  1
  Se  Se169  1  0.24977252  0.08125450  0.44835477  1
  Se  Se170  1  0.25315151  0.08488497  0.93903354  1
  Se  Se171  1  0.23641863  0.42629630  0.45808270  1
  Se  Se172  1  0.24862867  0.41728907  0.93935006  1
  Se  Se173  1  0.25067432  0.75021444  0.45371445  1
  Se  Se174  1  0.25810429  0.74081815  0.93067458  1
  Se  Se175  1  0.59128029  0.08694698  0.45541898  1
  Se  Se176  1  0.58865991  0.07921962  0.93197667  1
  Se  Se177  1  0.58502482  0.42265891  0.44888234  1
  Se  Se178  1  0.58426389  0.40848533  0.94297548  1
  Se  Se179  1  0.58637418  0.74906381  0.45251671  1
  Se  Se180  1  0.57944555  0.74760288  0.94368701  1
  Se  Se181  1  0.92487905  0.07907005  0.44325100  1
  Se  Se182  1  0.91894327  0.08245331  0.95850701  1
  Se  Se183  1  0.91449666  0.41595330  0.45368497  1
  Se  Se184  1  0.91906663  0.42314163  0.94393764  1
  Se  Se185  1  0.92031773  0.74753410  0.44870324  1
  Se  Se186  1  0.91764894  0.74818068  0.93073215  1
  Se  Se187  1  0.23642725  0.23885167  0.31470084  1
  Se  Se188  1  0.25862990  0.26529505  0.79555937  1
  Se  Se189  1  0.24748914  0.56711313  0.31247410  1
  Se  Se190  1  0.24981640  0.57709247  0.80578399  1
  Se  Se191  1  0.24748958  0.91095563  0.31635410  1
  Se  Se192  1  0.23132317  0.90770381  0.79858135  1
  Se  Se193  1  0.58596813  0.25868454  0.30792223  1
  Se  Se194  1  0.58174422  0.24579131  0.79849622  1
  Se  Se195  1  0.57418154  0.58128453  0.30901248  1
  Se  Se196  1  0.58557332  0.58048341  0.80006447  1
  Se  Se197  1  0.57852857  0.91825268  0.31372355  1
  Se  Se198  1  0.57642529  0.91137993  0.81138414  1
  Se  Se199  1  0.91199710  0.24684781  0.31243501  1
  Se  Se200  1  0.91820862  0.25238904  0.81021502  1
  Se  Se201  1  0.91105095  0.57553608  0.30956915  1
  Se  Se202  1  0.92054854  0.58552287  0.80033668  1
  Se  Se203  1  0.92223850  0.92825246  0.30733637  1
  Se  Se204  1  0.90331814  0.91509256  0.80951381  1
  Se  Se205  1  0.08475879  0.08163673  0.29931375  1
  Se  Se206  1  0.08203427  0.09259199  0.81446204  1
  Se  Se207  1  0.08892353  0.41456832  0.31507865  1
  Se  Se208  1  0.08230101  0.41658773  0.80106673  1
  Se  Se209  1  0.08634341  0.74931190  0.31800041  1
  Se  Se210  1  0.08411413  0.76064191  0.79081493  1
  Se  Se211  1  0.42409366  0.09166246  0.31577495  1
  Se  Se212  1  0.41185665  0.07672246  0.79406174  1
  Se  Se213  1  0.42516308  0.42674249  0.31392393  1
  Se  Se214  1  0.41785151  0.41455482  0.79507534  1
  Se  Se215  1  0.42063354  0.75445644  0.30841956  1
  Se  Se216  1  0.42139958  0.74999772  0.80849630  1
  Se  Se217  1  0.76136063  0.09766699  0.30965425  1
  Se  Se218  1  0.74925416  0.08739532  0.80769609  1
  Se  Se219  1  0.74442657  0.41449093  0.30293623  1
  Se  Se220  1  0.75098256  0.41471973  0.80783954  1
  Se  Se221  1  0.75592811  0.76915579  0.31565416  1
  Se  Se222  1  0.74632881  0.74567367  0.79552583  1
  Se  Se223  1  0.25140678  0.09644950  0.19258948  1
  Se  Se224  1  0.24679910  0.08535212  0.70248232  1
  Se  Se225  1  0.24548895  0.41689453  0.18738396  1
  Se  Se226  1  0.25373501  0.41310735  0.69592175  1
  Se  Se227  1  0.23448570  0.75971618  0.19711804  1
  Se  Se228  1  0.24363600  0.75512212  0.68984940  1
  Se  Se229  1  0.57261373  0.09582476  0.19387413  1
  Se  Se230  1  0.57437765  0.08843003  0.68625274  1
  Se  Se231  1  0.58552997  0.41275436  0.19320401  1
  Se  Se232  1  0.58709810  0.41135700  0.69186238  1
  Se  Se233  1  0.57782766  0.75638630  0.19175337  1
  Se  Se234  1  0.58575257  0.74570592  0.69849212  1
  Se  Se235  1  0.92160507  0.08788797  0.19300756  1
  Se  Se236  1  0.90813527  0.09490612  0.69345699  1
  Se  Se237  1  0.91251535  0.42446902  0.18964635  1
  Se  Se238  1  0.91824601  0.41308334  0.70271153  1
  Se  Se239  1  0.91019752  0.76007325  0.19440245  1
  Se  Se240  1  0.92089120  0.74542479  0.69647137  1
  Se  Se241  1  0.09886228  0.24554245  0.19002438  1
  Se  Se242  1  0.08202982  0.25096916  0.70738000  1
  Se  Se243  1  0.08783317  0.56900958  0.18701104  1
  Se  Se244  1  0.08172063  0.58278685  0.69985716  1
  Se  Se245  1  0.07807095  0.92110187  0.20255113  1
  Se  Se246  1  0.08293901  0.92033084  0.68061080  1
  Se  Se247  1  0.41852947  0.25233562  0.19621389  1
  Se  Se248  1  0.41596023  0.25306332  0.69130004  1
  Se  Se249  1  0.41938114  0.57321839  0.18545158  1
  Se  Se250  1  0.42064070  0.56565238  0.68002834  1
  Se  Se251  1  0.42199590  0.91210258  0.18961569  1
  Se  Se252  1  0.41496873  0.91635173  0.69925432  1
  Se  Se253  1  0.74923581  0.25411109  0.19504175  1
  Se  Se254  1  0.74612051  0.25570985  0.70402333  1
  Se  Se255  1  0.75077928  0.58057651  0.18929242  1
  Se  Se256  1  0.74946864  0.57899887  0.69820887  1
  Se  Se257  1  0.75798033  0.91583775  0.18903099  1
  Se  Se258  1  0.75633447  0.90820118  0.68695131  1
