# generated using pymatgen
data_In86Cu29Se144
_symmetry_space_group_name_H-M   'P 1'
_cell_length_a   17.59062304
_cell_length_b   17.59084382
_cell_length_c   23.45411329
_cell_angle_alpha   89.98057387
_cell_angle_beta   90.02330853
_cell_angle_gamma   89.99531017
_symmetry_Int_Tables_number   1
_chemical_formula_structural   In86Cu29Se144
_chemical_formula_sum   'In86 Cu29 Se144'
_cell_volume   7257.49676402
_cell_formula_units_Z   1
loop_
 _symmetry_equiv_pos_site_id
 _symmetry_equiv_pos_as_xyz
  1  'x, y, z'
loop_
 _atom_site_type_symbol
 _atom_site_label
 _atom_site_symmetry_multiplicity
 _atom_site_fract_x
 _atom_site_fract_y
 _atom_site_fract_z
 _atom_site_occupancy
  In  In0  1  -0.00980823  0.17051290  0.12812780  1
  In  In1  1  -0.00310941  0.16867022  0.62534559  1
  In  In2  1  -0.00436067  0.50195484  0.12255277  1
  In  In3  1  0.00086570  0.49375631  0.62836918  1
  In  In4  1  -0.00444708  0.83185284  0.13294186  1
  In  In5  1  0.01465685  0.82246200  0.63307317  1
  In  In6  1  0.33637273  0.16654375  0.12521447  1
  In  In7  1  0.31518039  0.16563134  0.62384741  1
  In  In8  1  0.33203866  0.51900129  0.12546562  1
  In  In9  1  0.32387684  0.51522302  0.63019656  1
  In  In10  1  0.32676533  0.81850422  0.11977147  1
  In  In11  1  0.32191658  0.84470141  0.63499600  1
  In  In12  1  0.67761368  0.14900195  0.13341119  1
  In  In13  1  0.67489400  0.16396063  0.62593872  1
  In  In14  1  0.67753010  0.48826308  0.12849420  1
  In  In15  1  0.66080049  0.49729340  0.63003242  1
  In  In16  1  0.66268412  0.84330018  0.12519863  1
  In  In17  1  0.67617127  0.83562786  0.62947705  1
  In  In18  1  0.15525146  0.01077131  0.38779542  1
  In  In19  1  0.16189186  -0.00667489  0.86629264  1
  In  In20  1  0.14895480  0.34635137  0.38158868  1
  In  In21  1  0.16287018  0.35159192  0.87778219  1
  In  In22  1  0.16606650  0.66632066  0.37516814  1
  In  In23  1  0.15615907  0.65791960  0.86569476  1
  In  In24  1  0.50309509  -0.00705334  0.37436115  1
  In  In25  1  0.49931757  -0.01311441  0.86280261  1
  In  In26  1  0.51357523  0.32963998  0.36943466  1
  In  In27  1  0.50674390  0.32021546  0.87702374  1
  In  In28  1  0.49812421  0.66502851  0.36403036  1
  In  In29  1  0.50793582  0.69323640  0.87425424  1
  In  In30  1  0.84574058  0.00895079  0.37058318  1
  In  In31  1  0.84487099  0.01657766  0.87197684  1
  In  In32  1  0.83724548  0.33144389  0.37455079  1
  In  In33  1  0.83526135  0.33237856  0.87498054  1
  In  In34  1  0.83978341  0.67007795  0.36435379  1
  In  In35  1  0.83692435  0.64606293  0.87849238  1
  In  In36  1  -0.00199676  0.16632243  0.37724190  1
  In  In37  1  -0.01467420  0.15668698  0.87141198  1
  In  In38  1  0.03129019  0.51676970  0.34986176  1
  In  In39  1  -0.00198436  0.50150331  0.87188790  1
  In  In40  1  0.00560791  0.83421302  0.37471362  1
  In  In41  1  0.00381532  0.83839748  0.86724571  1
  In  In42  1  0.32781830  0.15754322  0.37904469  1
  In  In43  1  0.34358100  0.16054706  0.87105693  1
  In  In44  1  0.31360685  0.50283056  0.37154802  1
  In  In45  1  0.31634049  0.50289729  0.87739878  1
  In  In46  1  0.32917690  0.82047554  0.37483190  1
  In  In47  1  0.34489350  0.83455403  0.86120168  1
  In  In48  1  0.68805357  0.18359183  0.36195270  1
  In  In49  1  0.67794955  0.17675499  0.86906736  1
  In  In50  1  0.67188232  0.50191499  0.36313145  1
  In  In51  1  0.69993837  0.50487801  0.87922140  1
  In  In52  1  0.66942189  0.83534289  0.36285188  1
  In  In53  1  0.65311969  0.82979587  0.87894362  1
  In  In54  1  0.16238769  -0.00979588  0.12912635  1
  In  In55  1  0.16057380  0.00080196  0.62850639  1
  In  In56  1  0.14216411  0.34658523  0.13693774  1
  In  In57  1  0.15084262  0.32153142  0.61683375  1
  In  In58  1  0.16635397  0.65745818  0.13473389  1
  In  In59  1  0.15889705  0.66870924  0.61777653  1
  In  In60  1  0.51742208  -0.00305622  0.11989950  1
  In  In61  1  0.50295001  -0.01003103  0.63684460  1
  In  In62  1  0.50944853  0.33391385  0.12917172  1
  In  In63  1  0.50584020  0.34189528  0.63208297  1
  In  In64  1  0.49334153  0.67578564  0.12589602  1
  In  In65  1  0.49651822  0.65759389  0.63032182  1
  In  In66  1  0.83140107  0.00120676  0.12558308  1
  In  In67  1  0.82713955  0.00845620  0.63059261  1
  In  In68  1  0.83521789  0.32978328  0.12004349  1
  In  In69  1  0.85267474  0.32493138  0.63928369  1
  In  In70  1  0.84514935  0.65642860  0.13017580  1
  In  In71  1  0.83877043  0.66881387  0.63053452  1
  In  In72  1  0.67070104  0.66716326  0.75913792  1
  In  In73  1  0.33559203  -0.00252581  0.25646386  1
  In  In74  1  0.50535339  0.16327985  -0.00054799  1
  In  In75  1  0.49424576  0.16343778  0.49598167  1
  In  In76  1  0.16240086  0.82796987  -0.01059961  1
  In  In77  1  0.33270509  0.33740816  0.24972832  1
  In  In78  1  0.50239834  0.50226678  0.00236310  1
  In  In79  1  0.84658900  0.83761034  0.49219413  1
  In  In80  1  0.33284204  0.32954919  0.75198637  1
  In  In81  1  0.83971100  0.49466704  0.50543136  1
  In  In82  1  0.49337267  0.50096096  0.50613228  1
  In  In83  1  0.16110457  0.16963464  0.00512283  1
  In  In84  1  0.49442897  0.83367964  0.50575374  1
  In  In85  1  0.83044941  0.82947997  0.00149506  1
  Cu  Cu86  1  0.32256698  0.00006118  0.50782955  1
  Cu  Cu87  1  0.82903160  0.83076082  0.24644568  1
  Cu  Cu88  1  0.32209931  0.33951537  0.00468844  1
  Cu  Cu89  1  0.50403031  0.49937198  0.75612279  1
  Cu  Cu90  1  0.67729424  0.33175408  -0.00162233  1
  Cu  Cu91  1  0.67433557  0.01039412  0.49939131  1
  Cu  Cu92  1  0.16064177  0.16455060  0.25869168  1
  Cu  Cu93  1  0.16135234  0.83086734  0.25158150  1
  Cu  Cu94  1  0.67018525  0.32951520  0.49587112  1
  Cu  Cu95  1  0.83536836  0.48631866  0.24577605  1
  Cu  Cu96  1  -0.00379121  0.33845146  -0.00028983  1
  Cu  Cu97  1  0.50037205  0.83860592  0.24608933  1
  Cu  Cu98  1  0.32150773  0.66724399  0.50017331  1
  Cu  Cu99  1  0.66982790  0.00114840  -0.00151125  1
  Cu  Cu100  1  0.50446653  0.15778249  0.75010878  1
  Cu  Cu101  1  0.17042954  0.83063090  0.74713939  1
  Cu  Cu102  1  0.00360419  0.66038282  -0.00094500  1
  Cu  Cu103  1  0.33363152  0.66759408  -0.00117208  1
  Cu  Cu104  1  0.16142422  0.16673426  0.74622957  1
  Cu  Cu105  1  0.67308768  0.67313967  0.49124495  1
  Cu  Cu106  1  0.50409662  0.50462450  0.24428896  1
  Cu  Cu107  1  0.83665198  0.16536070  0.24927582  1
  Cu  Cu108  1  0.83283224  0.17128859  0.74962202  1
  Cu  Cu109  1  0.33517869  -0.00801142  -0.01256814  1
  Cu  Cu110  1  0.83434730  0.84074661  0.75244779  1
  Cu  Cu111  1  0.16139220  0.49950231  0.74779362  1
  Cu  Cu112  1  -0.00231257  0.33486253  0.49884440  1
  Cu  Cu113  1  -0.00199978  0.00284401  0.50484089  1
  Cu  Cu114  1  0.32198758  0.33613826  0.49942163  1
  Se  Se115  1  0.07647852  0.07433098  0.06211088  1
  Se  Se116  1  0.08258177  0.08632499  0.55795339  1
  Se  Se117  1  0.08212618  0.41959912  0.05278835  1
  Se  Se118  1  0.08018956  0.41926235  0.55272845  1
  Se  Se119  1  0.07852134  0.74537803  0.05945040  1
  Se  Se120  1  0.08200194  0.75757240  0.55012781  1
  Se  Se121  1  0.40808275  0.07178735  0.05436173  1
  Se  Se122  1  0.41341163  0.07398240  0.56405884  1
  Se  Se123  1  0.40974285  0.41174141  0.06421947  1
  Se  Se124  1  0.40264294  0.40792509  0.56441092  1
  Se  Se125  1  0.41787985  0.75310419  0.04817879  1
  Se  Se126  1  0.40636030  0.74038382  0.56285571  1
  Se  Se127  1  0.75248892  0.08280448  0.05228287  1
  Se  Se128  1  0.75805978  0.09026675  0.55260785  1
  Se  Se129  1  0.75689331  0.41896577  0.05075425  1
  Se  Se130  1  0.74246119  0.40918908  0.56203233  1
  Se  Se131  1  0.74903615  0.74366847  0.06778212  1
  Se  Se132  1  0.75082011  0.74872021  0.55448946  1
  Se  Se133  1  0.24747144  0.26119455  0.06883270  1
  Se  Se134  1  0.24332001  0.24665233  0.54985070  1
  Se  Se135  1  0.24629753  0.59120233  0.05358897  1
  Se  Se136  1  0.24337536  0.57858181  0.55204412  1
  Se  Se137  1  0.25269890  0.92060428  0.05203902  1
  Se  Se138  1  0.24133326  0.91418664  0.55858561  1
  Se  Se139  1  0.59540493  0.25248176  0.05895313  1
  Se  Se140  1  0.58270657  0.25650186  0.55629367  1
  Se  Se141  1  0.58850632  0.58454213  0.06768182  1
  Se  Se142  1  0.59478759  0.59497164  0.55505045  1
  Se  Se143  1  0.58487887  0.91343580  0.04493634  1
  Se  Se144  1  0.59511029  0.92521817  0.55635358  1
  Se  Se145  1  0.91839193  0.24728830  0.05016452  1
  Se  Se146  1  0.91484428  0.25393518  0.55513257  1
  Se  Se147  1  0.91369603  0.58112181  0.04946443  1
  Se  Se148  1  0.92528657  0.59382833  0.55883120  1
  Se  Se149  1  0.92427089  0.91879233  0.05789924  1
  Se  Se150  1  0.92104599  0.92118339  0.56609568  1
  Se  Se151  1  0.08160977  0.24837615  0.44707075  1
  Se  Se152  1  0.07694521  0.25706561  0.93941214  1
  Se  Se153  1  0.08903364  0.57322414  0.44009858  1
  Se  Se154  1  0.08626653  0.57912031  0.94314393  1
  Se  Se155  1  0.07745188  0.91673566  0.45031783  1
  Se  Se156  1  0.07155901  0.92945040  0.94394234  1
  Se  Se157  1  0.40864319  0.26415510  0.43884834  1
  Se  Se158  1  0.40377442  0.25740883  0.94816799  1
  Se  Se159  1  0.41059627  0.59179293  0.44169681  1
  Se  Se160  1  0.41414111  0.58782531  0.93770482  1
  Se  Se161  1  0.40430880  0.92491896  0.44469108  1
  Se  Se162  1  0.42103763  0.91026492  0.93826211  1
  Se  Se163  1  0.75665028  0.24810291  0.44628086  1
  Se  Se164  1  0.75759584  0.24473463  0.94652343  1
  Se  Se165  1  0.75103421  0.58564191  0.43855939  1
  Se  Se166  1  0.73938533  0.60260889  0.95410662  1
  Se  Se167  1  0.74459748  0.92234890  0.43842536  1
  Se  Se168  1  0.75007111  0.92279440  0.93639607  1
  Se  Se169  1  0.24595055  0.08869776  0.45419088  1
  Se  Se170  1  0.25179798  0.08063588  0.93955032  1
  Se  Se171  1  0.24275426  0.42234921  0.44686913  1
  Se  Se172  1  0.24216338  0.42510142  0.95336434  1
  Se  Se173  1  0.24257178  0.75468787  0.44801285  1
  Se  Se174  1  0.25638367  0.74232500  0.93159400  1
  Se  Se175  1  0.59198087  0.08326188  0.43635372  1
  Se  Se176  1  0.58913390  0.07716028  0.93366961  1
  Se  Se177  1  0.59007221  0.41803957  0.44348946  1
  Se  Se178  1  0.59062102  0.40993131  0.94173969  1
  Se  Se179  1  0.58453407  0.75008111  0.43782663  1
  Se  Se180  1  0.59703767  0.73692622  0.95386968  1
  Se  Se181  1  0.91533875  0.08488110  0.44932586  1
  Se  Se182  1  0.91485242  0.08803697  0.95227799  1
  Se  Se183  1  0.92798581  0.42001504  0.43541839  1
  Se  Se184  1  0.91499425  0.42066717  0.94275627  1
  Se  Se185  1  0.92876783  0.73392686  0.44173930  1
  Se  Se186  1  0.92782394  0.74669459  0.93989930  1
  Se  Se187  1  0.24457169  0.24697557  0.31308883  1
  Se  Se188  1  0.24006374  0.24297619  0.81312499  1
  Se  Se189  1  0.25862064  0.59977387  0.30287605  1
  Se  Se190  1  0.24881609  0.58098740  0.79879021  1
  Se  Se191  1  0.23848600  0.91361886  0.31397234  1
  Se  Se192  1  0.25154030  0.91673823  0.80045959  1
  Se  Se193  1  0.58636102  0.24792986  0.29921777  1
  Se  Se194  1  0.58279811  0.24769197  0.80085457  1
  Se  Se195  1  0.58823125  0.58790895  0.29859529  1
  Se  Se196  1  0.58216177  0.57568145  0.82052113  1
  Se  Se197  1  0.58346913  0.92152210  0.29925068  1
  Se  Se198  1  0.59053692  0.90878339  0.79975102  1
  Se  Se199  1  0.91874680  0.24786682  0.30509396  1
  Se  Se200  1  0.91860395  0.25239240  0.80320576  1
  Se  Se201  1  0.91321012  0.57480563  0.29972042  1
  Se  Se202  1  0.92355910  0.59026135  0.80214765  1
  Se  Se203  1  0.91187722  0.90760154  0.30738063  1
  Se  Se204  1  0.91948567  0.92497379  0.80355515  1
  Se  Se205  1  0.07791266  0.07745184  0.30807432  1
  Se  Se206  1  0.08093272  0.08520157  0.80456048  1
  Se  Se207  1  0.08670516  0.40459684  0.29322869  1
  Se  Se208  1  0.07994014  0.41560482  0.80135313  1
  Se  Se209  1  0.07964123  0.74633268  0.30481394  1
  Se  Se210  1  0.08216378  0.75121110  0.80007477  1
  Se  Se211  1  0.42667559  0.09374980  0.30957423  1
  Se  Se212  1  0.41550590  0.07723651  0.79934173  1
  Se  Se213  1  0.42520537  0.42846851  0.31111114  1
  Se  Se214  1  0.42071895  0.41909464  0.81608889  1
  Se  Se215  1  0.41732757  0.75640984  0.30099535  1
  Se  Se216  1  0.41193275  0.73350547  0.79859301  1
  Se  Se217  1  0.75282512  0.07856402  0.30123452  1
  Se  Se218  1  0.75104123  0.08439077  0.80185020  1
  Se  Se219  1  0.75098353  0.40815904  0.30316860  1
  Se  Se220  1  0.73928202  0.40407670  0.80815788  1
  Se  Se221  1  0.74627886  0.74406851  0.29846449  1
  Se  Se222  1  0.76290572  0.75751416  0.81722774  1
  Se  Se223  1  0.24314152  0.08976236  0.19521907  1
  Se  Se224  1  0.24822806  0.08193729  0.69852989  1
  Se  Se225  1  0.24488673  0.43067145  0.19313463  1
  Se  Se226  1  0.24178047  0.41376640  0.68911917  1
  Se  Se227  1  0.24723719  0.75164933  0.19698976  1
  Se  Se228  1  0.24604413  0.74267533  0.69125779  1
  Se  Se229  1  0.57323224  0.08543467  0.19454186  1
  Se  Se230  1  0.59025074  0.08159260  0.69365466  1
  Se  Se231  1  0.58760151  0.41477173  0.19949005  1
  Se  Se232  1  0.58740819  0.41552612  0.70496314  1
  Se  Se233  1  0.58251551  0.75489577  0.19260087  1
  Se  Se234  1  0.58219606  0.75077897  0.69137428  1
  Se  Se235  1  0.91743352  0.07828443  0.19633436  1
  Se  Se236  1  0.91680352  0.08659580  0.69689122  1
  Se  Se237  1  0.92006492  0.40868449  0.18994593  1
  Se  Se238  1  0.90857028  0.43108108  0.70049831  1
  Se  Se239  1  0.91781591  0.74563389  0.20086785  1
  Se  Se240  1  0.91464668  0.75488842  0.69883937  1
  Se  Se241  1  0.08005622  0.24306686  0.19910909  1
  Se  Se242  1  0.07778903  0.25291260  0.69720072  1
  Se  Se243  1  0.06937039  0.58617430  0.19562144  1
  Se  Se244  1  0.08307471  0.58461711  0.69149920  1
  Se  Se245  1  0.07896823  0.91674171  0.20056581  1
  Se  Se246  1  0.08212984  0.91848448  0.70073181  1
  Se  Se247  1  0.42500253  0.24183253  0.19494559  1
  Se  Se248  1  0.42236705  0.23871289  0.68926336  1
  Se  Se249  1  0.41710215  0.58988505  0.19765448  1
  Se  Se250  1  0.41812334  0.57754169  0.70200364  1
  Se  Se251  1  0.41538337  0.91300666  0.18469128  1
  Se  Se252  1  0.42346101  0.90350601  0.70040478  1
  Se  Se253  1  0.75474036  0.24723015  0.19230983  1
  Se  Se254  1  0.74705592  0.25316333  0.69594394  1
  Se  Se255  1  0.75449052  0.57706172  0.19660965  1
  Se  Se256  1  0.75520759  0.57655533  0.69502803  1
  Se  Se257  1  0.74893315  0.91940850  0.19526375  1
  Se  Se258  1  0.74851007  0.92117983  0.69976402  1
