# generated using pymatgen
data_In86Cu29Se144
_symmetry_space_group_name_H-M   'P 1'
_cell_length_a   17.58521730
_cell_length_b   17.59492385
_cell_length_c   23.45073394
_cell_angle_alpha   90.00334768
_cell_angle_beta   90.00949582
_cell_angle_gamma   90.03166473
_symmetry_Int_Tables_number   1
_chemical_formula_structural   In86Cu29Se144
_chemical_formula_sum   'In86 Cu29 Se144'
_cell_volume   7255.90348337
_cell_formula_units_Z   1
loop_
 _symmetry_equiv_pos_site_id
 _symmetry_equiv_pos_as_xyz
  1  'x, y, z'
loop_
 _atom_site_type_symbol
 _atom_site_label
 _atom_site_symmetry_multiplicity
 _atom_site_fract_x
 _atom_site_fract_y
 _atom_site_fract_z
 _atom_site_occupancy
  In  In0  1  -0.00590124  0.17899482  0.11278771  1
  In  In1  1  0.01386721  0.17385742  0.63571504  1
  In  In2  1  0.00398173  0.48581075  0.12021034  1
  In  In3  1  -0.00049618  0.50144740  0.62597274  1
  In  In4  1  0.00005769  0.84277245  0.11948588  1
  In  In5  1  0.00092709  0.81882780  0.62767974  1
  In  In6  1  0.33914134  0.15257966  0.12530430  1
  In  In7  1  0.35594027  0.14728374  0.63481922  1
  In  In8  1  0.34361564  0.51039478  0.11362614  1
  In  In9  1  0.34445230  0.51286783  0.61963723  1
  In  In10  1  0.33818902  0.82876265  0.12838798  1
  In  In11  1  0.33086040  0.83240474  0.61911270  1
  In  In12  1  0.66800054  0.17058971  0.11884232  1
  In  In13  1  0.65467282  0.16706013  0.63274876  1
  In  In14  1  0.64962759  0.50084525  0.12656607  1
  In  In15  1  0.66935416  0.49924813  0.62832055  1
  In  In16  1  0.66439891  0.83453942  0.11144266  1
  In  In17  1  0.64312873  0.85062845  0.63752512  1
  In  In18  1  0.18219412  -0.02188405  0.38976675  1
  In  In19  1  0.18174092  -0.00352732  0.87060568  1
  In  In20  1  0.17609772  0.33991230  0.37972028  1
  In  In21  1  0.17434221  0.34759299  0.87685654  1
  In  In22  1  0.17685420  0.65896937  0.38273192  1
  In  In23  1  0.16201965  0.66271948  0.86550775  1
  In  In24  1  0.48088905  0.01812978  0.40102426  1
  In  In25  1  0.49215794  -0.00336828  0.87036872  1
  In  In26  1  0.51090438  0.32446457  0.38230542  1
  In  In27  1  0.50904112  0.32261902  0.89114360  1
  In  In28  1  0.48777544  0.67552649  0.38555511  1
  In  In29  1  0.49900562  0.66766432  0.87045712  1
  In  In30  1  0.83542363  -0.01234761  0.37532872  1
  In  In31  1  0.81391614  0.01547454  0.88123241  1
  In  In32  1  0.82487830  0.35027668  0.37283418  1
  In  In33  1  0.82400756  0.32588854  0.86715556  1
  In  In34  1  0.81816934  0.65895854  0.37608408  1
  In  In35  1  0.83817908  0.67116999  0.87047982  1
  In  In36  1  -0.00280788  0.16082537  0.37375552  1
  In  In37  1  -0.01464539  0.16921807  0.87545402  1
  In  In38  1  -0.00642512  0.50674690  0.38146284  1
  In  In39  1  0.00667896  0.50439391  0.86819729  1
  In  In40  1  0.00221417  0.84547588  0.37796188  1
  In  In41  1  0.00026080  0.81960806  0.87143537  1
  In  In42  1  0.35040878  0.17292665  0.37397082  1
  In  In43  1  0.36995643  0.15497884  0.88328223  1
  In  In44  1  0.32504255  0.50598420  0.38474351  1
  In  In45  1  0.32619077  0.50124398  0.88262417  1
  In  In46  1  0.34506553  0.83212572  0.37726584  1
  In  In47  1  0.35094730  0.84676330  0.86206884  1
  In  In48  1  0.65138604  0.16830086  0.37660434  1
  In  In49  1  0.65594111  0.16832915  0.86590572  1
  In  In50  1  0.67123022  0.49495769  0.38500858  1
  In  In51  1  0.65660251  0.48855872  0.86484086  1
  In  In52  1  0.66242938  0.82697400  0.38149418  1
  In  In53  1  0.66065135  0.83492142  0.87236194  1
  In  In54  1  0.17985860  0.00659079  0.12384541  1
  In  In55  1  0.19298444  -0.00300972  0.62357903  1
  In  In56  1  0.15620251  0.34373025  0.11715825  1
  In  In57  1  0.15672969  0.33594722  0.62829966  1
  In  In58  1  0.18485524  0.67034076  0.12641029  1
  In  In59  1  0.16763439  0.66633893  0.62388820  1
  In  In60  1  0.48880040  -0.00635661  0.10892336  1
  In  In61  1  0.49923854  -0.00417092  0.61854788  1
  In  In62  1  0.50520501  0.34511496  0.11507930  1
  In  In63  1  0.50361522  0.33933916  0.62614015  1
  In  In64  1  0.49142940  0.66111886  0.11912533  1
  In  In65  1  0.50076382  0.66541626  0.63046845  1
  In  In66  1  0.82825900  -0.00005930  0.10756745  1
  In  In67  1  0.81936988  -0.01345991  0.62789779  1
  In  In68  1  0.83752586  0.32171238  0.12253560  1
  In  In69  1  0.82227913  0.34422459  0.63559748  1
  In  In70  1  0.81572930  0.66444906  0.11897632  1
  In  In71  1  0.84187639  0.66339625  0.63332864  1
  In  In72  1  0.66357494  0.00080964  0.25290614  1
  In  In73  1  0.00082929  0.66445193  0.25736501  1
  In  In74  1  0.17318027  0.17654854  0.50694069  1
  In  In75  1  0.82662813  0.17221715  0.51647896  1
  In  In76  1  0.16923999  0.82903521  -0.00181779  1
  In  In77  1  0.33583029  0.33205691  0.75747347  1
  In  In78  1  0.17009695  0.17022816  -0.00814570  1
  In  In79  1  0.82989717  0.49836008  -0.00582110  1
  In  In80  1  0.82710573  0.82461170  0.49991323  1
  In  In81  1  0.33893083  0.33781796  0.24633862  1
  In  In82  1  -0.00439876  -0.00311661  0.75173986  1
  In  In83  1  0.01260118  0.00990464  0.23529470  1
  In  In84  1  0.00076333  0.33461195  0.24015591  1
  In  In85  1  0.65577313  0.66156866  0.25088484  1
  Cu  Cu86  1  0.66251319  0.67208678  -0.00532580  1
  Cu  Cu87  1  0.83795335  0.50235381  0.75275830  1
  Cu  Cu88  1  0.49331458  0.50035061  0.25081789  1
  Cu  Cu89  1  0.17099036  0.83164369  0.74678650  1
  Cu  Cu90  1  0.82876262  0.16723360  0.75023597  1
  Cu  Cu91  1  0.00213396  0.00103262  0.50317608  1
  Cu  Cu92  1  0.66790913  0.33052472  -0.00603524  1
  Cu  Cu93  1  0.17570063  0.15475801  0.24815676  1
  Cu  Cu94  1  0.33140616  0.66812005  0.50353476  1
  Cu  Cu95  1  0.49599092  0.83135829  0.74690546  1
  Cu  Cu96  1  -0.00197120  0.34299409  0.50233317  1
  Cu  Cu97  1  0.50306844  0.16260158  0.25287926  1
  Cu  Cu98  1  0.16970442  0.50400252  0.25233955  1
  Cu  Cu99  1  0.82707133  0.83236728  0.75341239  1
  Cu  Cu100  1  0.00169804  0.66412676  0.50449491  1
  Cu  Cu101  1  0.17079118  0.17085265  0.75365653  1
  Cu  Cu102  1  0.83573516  0.83188010  0.24143939  1
  Cu  Cu103  1  0.66873611  0.66199012  0.51176278  1
  Cu  Cu104  1  0.49733641  0.83660413  0.25167701  1
  Cu  Cu105  1  0.00123390  0.66087846  -0.00807186  1
  Cu  Cu106  1  0.66662158  0.33421209  0.50850829  1
  Cu  Cu107  1  0.82517415  0.17453214  0.24478437  1
  Cu  Cu108  1  0.18486536  0.82960936  0.25678456  1
  Cu  Cu109  1  0.65949970  0.00225757  -0.00959433  1
  Cu  Cu110  1  0.16900469  0.50312807  0.74761240  1
  Cu  Cu111  1  0.33245142  0.67021579  -0.00526971  1
  Cu  Cu112  1  -0.00477034  -0.00134181  -0.00553355  1
  Cu  Cu113  1  0.33324252  0.33621215  0.50641244  1
  Cu  Cu114  1  0.50074376  0.50005804  0.74922493  1
  Se  Se115  1  0.07832636  0.07532122  0.05577161  1
  Se  Se116  1  0.08132718  0.07958037  0.56316208  1
  Se  Se117  1  0.07526101  0.41360598  0.04306405  1
  Se  Se118  1  0.08589326  0.42093316  0.55526124  1
  Se  Se119  1  0.07722034  0.73853549  0.05983844  1
  Se  Se120  1  0.08465292  0.75094427  0.55304654  1
  Se  Se121  1  0.42460008  0.09679131  0.04726916  1
  Se  Se122  1  0.41295534  0.07783491  0.55009643  1
  Se  Se123  1  0.40796098  0.41082562  0.05045028  1
  Se  Se124  1  0.42091503  0.41926046  0.55549753  1
  Se  Se125  1  0.41366971  0.75093750  0.05251119  1
  Se  Se126  1  0.41958773  0.74454191  0.55767462  1
  Se  Se127  1  0.74249844  0.08526552  0.04617650  1
  Se  Se128  1  0.73606112  0.07201375  0.56035498  1
  Se  Se129  1  0.74166430  0.41288738  0.05977401  1
  Se  Se130  1  0.75338569  0.41887704  0.55575428  1
  Se  Se131  1  0.75143560  0.75195310  0.04596139  1
  Se  Se132  1  0.74326678  0.74854166  0.57157010  1
  Se  Se133  1  0.25065786  0.24947095  0.06593661  1
  Se  Se134  1  0.26411894  0.25445164  0.57310665  1
  Se  Se135  1  0.24843265  0.58785657  0.04937573  1
  Se  Se136  1  0.24726149  0.58182420  0.55339426  1
  Se  Se137  1  0.25944903  0.92031743  0.05469745  1
  Se  Se138  1  0.25529572  0.91772535  0.54627136  1
  Se  Se139  1  0.58264995  0.25147929  0.05089454  1
  Se  Se140  1  0.58219288  0.24980520  0.55801566  1
  Se  Se141  1  0.58463131  0.58764003  0.05203066  1
  Se  Se142  1  0.58174327  0.57955249  0.56102484  1
  Se  Se143  1  0.58015242  0.91523517  0.04481777  1
  Se  Se144  1  0.57824057  0.90599044  0.55000722  1
  Se  Se145  1  0.91314734  0.25607216  0.04352825  1
  Se  Se146  1  0.92780106  0.25943806  0.56702952  1
  Se  Se147  1  0.92099732  0.58777595  0.05856086  1
  Se  Se148  1  0.91467885  0.58456479  0.55636428  1
  Se  Se149  1  0.91471386  0.91144661  0.04651413  1
  Se  Se150  1  0.92050091  0.91818093  0.55994007  1
  Se  Se151  1  0.07366265  0.25753621  0.44164776  1
  Se  Se152  1  0.07523032  0.25828121  0.93761283  1
  Se  Se153  1  0.08384639  0.58225099  0.44723236  1
  Se  Se154  1  0.08886241  0.58183019  0.94170898  1
  Se  Se155  1  0.08370037  0.91094477  0.45541038  1
  Se  Se156  1  0.07931511  0.92170969  0.93620413  1
  Se  Se157  1  0.41564035  0.25484222  0.45083946  1
  Se  Se158  1  0.39449513  0.26966304  0.94774559  1
  Se  Se159  1  0.41554465  0.58136137  0.45215696  1
  Se  Se160  1  0.41763519  0.58711926  0.94328194  1
  Se  Se161  1  0.43969659  0.89463480  0.44908037  1
  Se  Se162  1  0.41674345  0.91329859  0.94426218  1
  Se  Se163  1  0.74617601  0.25559983  0.44343943  1
  Se  Se164  1  0.74444396  0.24519937  0.93807418  1
  Se  Se165  1  0.75124174  0.58181782  0.45393981  1
  Se  Se166  1  0.74065783  0.58807821  0.93450098  1
  Se  Se167  1  0.73943212  0.92600377  0.44661393  1
  Se  Se168  1  0.74634486  0.91452003  0.94393599  1
  Se  Se169  1  0.25605213  0.08942837  0.44126191  1
  Se  Se170  1  0.26358702  0.07297728  0.94470013  1
  Se  Se171  1  0.24711067  0.41840448  0.45494118  1
  Se  Se172  1  0.25215223  0.41498621  0.95399115  1
  Se  Se173  1  0.25433742  0.75236639  0.44509224  1
  Se  Se174  1  0.25538621  0.74843574  0.93076934  1
  Se  Se175  1  0.58778165  0.08879948  0.45325619  1
  Se  Se176  1  0.57680287  0.08430652  0.93646839  1
  Se  Se177  1  0.58326995  0.41547282  0.45146344  1
  Se  Se178  1  0.58597747  0.42382697  0.94923214  1
  Se  Se179  1  0.58988836  0.74064903  0.45109083  1
  Se  Se180  1  0.57710615  0.75289343  0.94219535  1
  Se  Se181  1  0.91597604  0.07845974  0.44697771  1
  Se  Se182  1  0.91134736  0.08562936  0.94705386  1
  Se  Se183  1  0.91169625  0.41865444  0.44618467  1
  Se  Se184  1  0.91708617  0.41319358  0.93141126  1
  Se  Se185  1  0.92296180  0.74021430  0.43656435  1
  Se  Se186  1  0.91716195  0.74892064  0.94617188  1
  Se  Se187  1  0.24536793  0.24562664  0.30699934  1
  Se  Se188  1  0.25101389  0.24031185  0.82013641  1
  Se  Se189  1  0.25401234  0.58406821  0.30623423  1
  Se  Se190  1  0.25414603  0.57964276  0.80408831  1
  Se  Se191  1  0.26161948  0.91913046  0.30877487  1
  Se  Se192  1  0.25423989  0.91876164  0.79563593  1
  Se  Se193  1  0.58407397  0.25222948  0.30154508  1
  Se  Se194  1  0.57300984  0.26070789  0.80539785  1
  Se  Se195  1  0.57031147  0.57708851  0.31627035  1
  Se  Se196  1  0.58466847  0.58620145  0.80109055  1
  Se  Se197  1  0.57749991  0.91108885  0.31398663  1
  Se  Se198  1  0.57815445  0.91507628  0.80168248  1
  Se  Se199  1  0.91220051  0.24620003  0.30617837  1
  Se  Se200  1  0.91645895  0.24973903  0.79870914  1
  Se  Se201  1  0.90152668  0.57314141  0.30526736  1
  Se  Se202  1  0.92157312  0.58851111  0.80258148  1
  Se  Se203  1  0.91880011  0.91533246  0.29579299  1
  Se  Se204  1  0.90559140  0.91496987  0.81599475  1
  Se  Se205  1  0.09576611  0.07991602  0.31338677  1
  Se  Se206  1  0.08755953  0.08818523  0.81143860  1
  Se  Se207  1  0.08688831  0.42212257  0.30906189  1
  Se  Se208  1  0.08956806  0.41691551  0.80225441  1
  Se  Se209  1  0.09141295  0.75970998  0.31266510  1
  Se  Se210  1  0.08283890  0.75044533  0.79668811  1
  Se  Se211  1  0.42361124  0.07870898  0.30894240  1
  Se  Se212  1  0.40738665  0.07465331  0.79844327  1
  Se  Se213  1  0.41970448  0.42137669  0.31691872  1
  Se  Se214  1  0.42441914  0.42372862  0.81547584  1
  Se  Se215  1  0.41916520  0.74656524  0.30331013  1
  Se  Se216  1  0.41284655  0.74385174  0.79793297  1
  Se  Se217  1  0.76061424  0.08933790  0.31105875  1
  Se  Se218  1  0.74289409  0.08286705  0.79934091  1
  Se  Se219  1  0.73485871  0.41757688  0.30403054  1
  Se  Se220  1  0.75019750  0.41582295  0.79861973  1
  Se  Se221  1  0.75433915  0.75798448  0.30309733  1
  Se  Se222  1  0.74519017  0.74810154  0.80594370  1
  Se  Se223  1  0.26325510  0.07227165  0.20039108  1
  Se  Se224  1  0.25087761  0.08715489  0.69938580  1
  Se  Se225  1  0.24464688  0.42496045  0.18768852  1
  Se  Se226  1  0.25300627  0.42198703  0.68975414  1
  Se  Se227  1  0.26199340  0.74411286  0.20135709  1
  Se  Se228  1  0.25176623  0.74900373  0.69174344  1
  Se  Se229  1  0.57735294  0.08448026  0.18675283  1
  Se  Se230  1  0.58639509  0.06542961  0.69260811  1
  Se  Se231  1  0.57513322  0.41600454  0.19807332  1
  Se  Se232  1  0.58556704  0.41674428  0.69817799  1
  Se  Se233  1  0.57777905  0.75936753  0.18835850  1
  Se  Se234  1  0.58568840  0.74474376  0.70124319  1
  Se  Se235  1  0.90593829  0.09331447  0.18426138  1
  Se  Se236  1  0.90764268  0.08698448  0.68799768  1
  Se  Se237  1  0.90329718  0.42693990  0.19109537  1
  Se  Se238  1  0.92029401  0.41778627  0.69789060  1
  Se  Se239  1  0.91567781  0.74951204  0.18531071  1
  Se  Se240  1  0.91682706  0.75316303  0.70340251  1
  Se  Se241  1  0.09500389  0.23599578  0.18878085  1
  Se  Se242  1  0.08637132  0.25809757  0.70744027  1
  Se  Se243  1  0.08741076  0.57856350  0.18976906  1
  Se  Se244  1  0.08375684  0.58494907  0.69397388  1
  Se  Se245  1  0.10431016  0.90302547  0.19055561  1
  Se  Se246  1  0.08965547  0.91629791  0.68831349  1
  Se  Se247  1  0.42725135  0.24440473  0.19001796  1
  Se  Se248  1  0.43017015  0.24510206  0.69862923  1
  Se  Se249  1  0.41331085  0.58394864  0.19467674  1
  Se  Se250  1  0.41463990  0.58437132  0.70043581  1
  Se  Se251  1  0.42167374  0.91971499  0.19152393  1
  Se  Se252  1  0.41484690  0.91280034  0.68957120  1
  Se  Se253  1  0.74242833  0.25597111  0.19225680  1
  Se  Se254  1  0.74464635  0.24956095  0.69692305  1
  Se  Se255  1  0.75104989  0.57393239  0.19348507  1
  Se  Se256  1  0.75279611  0.58211852  0.69810047  1
  Se  Se257  1  0.75408805  0.91450584  0.18606251  1
  Se  Se258  1  0.74236139  0.91796027  0.70504011  1
