# generated using pymatgen
data_In86Cu29Se144
_symmetry_space_group_name_H-M   'P 1'
_cell_length_a   17.57782621
_cell_length_b   17.57952817
_cell_length_c   23.43890910
_cell_angle_alpha   90.03043176
_cell_angle_beta   90.00581911
_cell_angle_gamma   89.98143242
_symmetry_Int_Tables_number   1
_chemical_formula_structural   In86Cu29Se144
_chemical_formula_sum   'In86 Cu29 Se144'
_cell_volume   7242.85330656
_cell_formula_units_Z   1
loop_
 _symmetry_equiv_pos_site_id
 _symmetry_equiv_pos_as_xyz
  1  'x, y, z'
loop_
 _atom_site_type_symbol
 _atom_site_label
 _atom_site_symmetry_multiplicity
 _atom_site_fract_x
 _atom_site_fract_y
 _atom_site_fract_z
 _atom_site_occupancy
  In  In0  1  0.00102293  0.16668915  0.11495769  1
  In  In1  1  0.00889279  0.17258747  0.62001274  1
  In  In2  1  0.00875613  0.50596116  0.13459600  1
  In  In3  1  -0.00178806  0.50140582  0.62732463  1
  In  In4  1  -0.01156921  0.82714849  0.11666055  1
  In  In5  1  -0.01790263  0.83617178  0.62636889  1
  In  In6  1  0.32102077  0.16094228  0.11518950  1
  In  In7  1  0.33970824  0.17808604  0.61214426  1
  In  In8  1  0.32114461  0.51033735  0.12852200  1
  In  In9  1  0.32019788  0.47617844  0.59952807  1
  In  In10  1  0.34617757  0.83949484  0.11771644  1
  In  In11  1  0.33193221  0.83985222  0.62734714  1
  In  In12  1  0.65453943  0.15508865  0.11730176  1
  In  In13  1  0.66515903  0.15725409  0.62527746  1
  In  In14  1  0.67491520  0.51334718  0.13146203  1
  In  In15  1  0.68052852  0.50488719  0.61617216  1
  In  In16  1  0.66746511  0.83727052  0.12759106  1
  In  In17  1  0.67757819  0.82378683  0.63383983  1
  In  In18  1  0.17574465  -0.00485395  0.36798534  1
  In  In19  1  0.16386823  0.00084270  0.88461273  1
  In  In20  1  0.17187571  0.33436103  0.38619002  1
  In  In21  1  0.16112940  0.34300450  0.88445310  1
  In  In22  1  0.14725971  0.66032457  0.36546605  1
  In  In23  1  0.15604641  0.66960540  0.88566609  1
  In  In24  1  0.50412375  0.00250911  0.37015814  1
  In  In25  1  0.50504162  -0.00243180  0.87885189  1
  In  In26  1  0.49492018  0.32918307  0.39120574  1
  In  In27  1  0.49409457  0.32596196  0.87461434  1
  In  In28  1  0.50375106  0.65543035  0.37331284  1
  In  In29  1  0.51162330  0.66989845  0.87492503  1
  In  In30  1  0.82443118  0.00861474  0.38169504  1
  In  In31  1  0.81996711  0.01187266  0.88137968  1
  In  In32  1  0.82966890  0.33700137  0.38632594  1
  In  In33  1  0.83945510  0.30727220  0.86680721  1
  In  In34  1  0.83770058  0.66593301  0.37510547  1
  In  In35  1  0.83982156  0.67119925  0.87121825  1
  In  In36  1  -0.00449077  0.17269287  0.38183872  1
  In  In37  1  -0.00696649  0.17439328  0.87425775  1
  In  In38  1  -0.00307662  0.50833069  0.38092263  1
  In  In39  1  0.00444772  0.50502749  0.86798611  1
  In  In40  1  -0.00361529  0.80838307  0.36522573  1
  In  In41  1  0.00114566  0.82720615  0.88478575  1
  In  In42  1  0.34137708  0.16001150  0.38315589  1
  In  In43  1  0.33814075  0.17215120  0.88765521  1
  In  In44  1  0.33598205  0.49754186  0.38692344  1
  In  In45  1  0.32089833  0.48371876  0.87691925  1
  In  In46  1  0.31654071  0.84332273  0.36316136  1
  In  In47  1  0.33107732  0.83572590  0.88694612  1
  In  In48  1  0.66575427  0.16212599  0.38144722  1
  In  In49  1  0.67365638  0.15450161  0.87577068  1
  In  In50  1  0.66704560  0.50444837  0.37801186  1
  In  In51  1  0.65870368  0.51131616  0.86678436  1
  In  In52  1  0.67711406  0.84277898  0.36845707  1
  In  In53  1  0.66897996  0.83502668  0.87838352  1
  In  In54  1  0.17404515  0.00480026  0.12001141  1
  In  In55  1  0.15500562  0.00577014  0.62512284  1
  In  In56  1  0.16958262  0.33757961  0.11399843  1
  In  In57  1  0.15856216  0.32449804  0.61918387  1
  In  In58  1  0.15377906  0.66131915  0.12226582  1
  In  In59  1  0.16363111  0.65078780  0.62397540  1
  In  In60  1  0.50129796  0.00109558  0.12675148  1
  In  In61  1  0.51434268  0.02403643  0.62771228  1
  In  In62  1  0.50366878  0.32491193  0.11802097  1
  In  In63  1  0.49793895  0.32828851  0.61500096  1
  In  In64  1  0.50050315  0.68016557  0.12514298  1
  In  In65  1  0.51406363  0.66257651  0.62479200  1
  In  In66  1  0.82416487  -0.00924708  0.11941030  1
  In  In67  1  0.82635485  -0.01191679  0.61952972  1
  In  In68  1  0.84419500  0.33119745  0.12523846  1
  In  In69  1  0.84350856  0.34021612  0.62049909  1
  In  In70  1  0.82147012  0.67623433  0.13917662  1
  In  In71  1  0.83310901  0.66743966  0.62706139  1
  In  In72  1  -0.00151472  -0.00172610  0.24280691  1
  In  In73  1  0.50080343  0.83262083  0.49915593  1
  In  In74  1  0.33492944  0.33005175  0.74324738  1
  In  In75  1  0.00031794  0.33761432  0.25661854  1
  In  In76  1  0.33910545  0.66186482  0.74896380  1
  In  In77  1  -0.00891414  0.00413774  0.75343321  1
  In  In78  1  0.66960237  0.33260522  0.26167605  1
  In  In79  1  0.33106049  0.33356291  0.24687287  1
  In  In80  1  0.33427826  0.67072872  0.25114039  1
  In  In81  1  0.33504248  0.00311964  0.75929942  1
  In  In82  1  0.83491135  0.49648547  0.00142579  1
  In  In83  1  0.15810307  0.82927380  0.48452920  1
  In  In84  1  0.49114825  0.49655520  -0.00583878  1
  In  In85  1  0.67171233  0.33618665  0.74840589  1
  Cu  Cu86  1  0.17221557  0.17173284  0.74598047  1
  Cu  Cu87  1  0.66507081  -0.00178340  0.00137436  1
  Cu  Cu88  1  0.50816183  0.84105744  0.75264471  1
  Cu  Cu89  1  0.00264267  0.33865971  0.50154116  1
  Cu  Cu90  1  0.50590474  0.83676805  0.24456183  1
  Cu  Cu91  1  0.82956788  0.83074493  0.75338418  1
  Cu  Cu92  1  0.15701459  0.49968492  0.75108156  1
  Cu  Cu93  1  0.16805656  0.16599818  0.24534292  1
  Cu  Cu94  1  0.15598449  0.82147676  0.75715560  1
  Cu  Cu95  1  0.67063912  0.32422382  -0.00323430  1
  Cu  Cu96  1  -0.00239211  0.32873258  -0.00236138  1
  Cu  Cu97  1  0.49515902  0.15605494  0.25107177  1
  Cu  Cu98  1  0.00403313  -0.00174877  0.00043036  1
  Cu  Cu99  1  0.34097995  0.00033523  0.00158222  1
  Cu  Cu100  1  0.32669563  0.66548167  0.00402155  1
  Cu  Cu101  1  0.50873247  0.49667517  0.25482656  1
  Cu  Cu102  1  -0.00280133  0.66527808  0.50097008  1
  Cu  Cu103  1  0.83336109  0.50222332  0.74391739  1
  Cu  Cu104  1  -0.00334676  0.00513898  0.50086496  1
  Cu  Cu105  1  0.32572168  0.00108291  0.49813867  1
  Cu  Cu106  1  0.82054565  0.16221120  0.25091702  1
  Cu  Cu107  1  0.50107561  0.50609730  0.74091260  1
  Cu  Cu108  1  -0.00593227  0.66331762  0.00059580  1
  Cu  Cu109  1  0.67175262  0.32651237  0.50401576  1
  Cu  Cu110  1  0.67593755  0.66760614  0.50089908  1
  Cu  Cu111  1  0.66705699  0.67523434  0.00345154  1
  Cu  Cu112  1  0.33553317  0.66065867  0.49699678  1
  Cu  Cu113  1  0.83362277  0.83314575  0.24832402  1
  Cu  Cu114  1  0.66297860  -0.00199986  0.49920969  1
  Se  Se115  1  0.08792097  0.08445852  0.05097019  1
  Se  Se116  1  0.08685202  0.08570342  0.54906078  1
  Se  Se117  1  0.06815782  0.41581530  0.05831759  1
  Se  Se118  1  0.08363484  0.42222861  0.55714195  1
  Se  Se119  1  0.07978429  0.74809455  0.05102967  1
  Se  Se120  1  0.07817439  0.74905031  0.56069563  1
  Se  Se121  1  0.42156745  0.08549512  0.05598765  1
  Se  Se122  1  0.41373588  0.07377110  0.55611433  1
  Se  Se123  1  0.40680919  0.41617066  0.06410638  1
  Se  Se124  1  0.43489148  0.42380856  0.54679080  1
  Se  Se125  1  0.41960780  0.74721739  0.04855600  1
  Se  Se126  1  0.40783113  0.74321084  0.56035180  1
  Se  Se127  1  0.75125698  0.08400725  0.05201507  1
  Se  Se128  1  0.74853027  0.07916489  0.55320872  1
  Se  Se129  1  0.73918729  0.40870863  0.06122303  1
  Se  Se130  1  0.75686164  0.41566488  0.54957118  1
  Se  Se131  1  0.75247866  0.75218532  0.05963888  1
  Se  Se132  1  0.75444572  0.75349360  0.55563529  1
  Se  Se133  1  0.24762472  0.25139138  0.04901868  1
  Se  Se134  1  0.25132479  0.25729255  0.55008403  1
  Se  Se135  1  0.24197770  0.58116841  0.05296542  1
  Se  Se136  1  0.24495178  0.58318853  0.54758653  1
  Se  Se137  1  0.25426250  0.91748369  0.05219744  1
  Se  Se138  1  0.24501618  0.91737134  0.55507364  1
  Se  Se139  1  0.58107259  0.24430195  0.04667536  1
  Se  Se140  1  0.58720324  0.24243448  0.55470824  1
  Se  Se141  1  0.58574450  0.58484908  0.05586958  1
  Se  Se142  1  0.58862071  0.58389914  0.55026346  1
  Se  Se143  1  0.58261503  0.91594304  0.05743827  1
  Se  Se144  1  0.58784321  0.91774552  0.56409750  1
  Se  Se145  1  0.91094306  0.24736173  0.04986272  1
  Se  Se146  1  0.92049022  0.25082958  0.55218252  1
  Se  Se147  1  0.91510425  0.58830331  0.06584905  1
  Se  Se148  1  0.91474481  0.58372118  0.55764225  1
  Se  Se149  1  0.91354630  0.91794092  0.04962082  1
  Se  Se150  1  0.91543730  0.91460136  0.54823729  1
  Se  Se151  1  0.08278733  0.25096785  0.44868599  1
  Se  Se152  1  0.08264069  0.24586730  0.94503052  1
  Se  Se153  1  0.08729408  0.58619608  0.44980700  1
  Se  Se154  1  0.07660667  0.57638635  0.94898686  1
  Se  Se155  1  0.06822241  0.92598239  0.43175428  1
  Se  Se156  1  0.08714130  0.91079456  0.95051118  1
  Se  Se157  1  0.41414867  0.24368980  0.45512758  1
  Se  Se158  1  0.40945574  0.26908933  0.95150864  1
  Se  Se159  1  0.42705294  0.58132585  0.44880232  1
  Se  Se160  1  0.40392880  0.59204618  0.93434076  1
  Se  Se161  1  0.40477705  0.91786862  0.43933644  1
  Se  Se162  1  0.42315540  0.91529753  0.94858804  1
  Se  Se163  1  0.75280771  0.24268625  0.44854474  1
  Se  Se164  1  0.75464591  0.24351828  0.94325455  1
  Se  Se165  1  0.75577922  0.58299069  0.44518449  1
  Se  Se166  1  0.74158882  0.58833721  0.94352917  1
  Se  Se167  1  0.74940333  0.91503151  0.44838242  1
  Se  Se168  1  0.75124078  0.91634575  0.94879138  1
  Se  Se169  1  0.24200761  0.08101328  0.44289930  1
  Se  Se170  1  0.25431579  0.08123884  0.94808818  1
  Se  Se171  1  0.25916271  0.41118476  0.45333266  1
  Se  Se172  1  0.24582495  0.41828298  0.95532123  1
  Se  Se173  1  0.25887593  0.73990051  0.43371568  1
  Se  Se174  1  0.24478703  0.75100505  0.95022003  1
  Se  Se175  1  0.57680073  0.08024692  0.44751144  1
  Se  Se176  1  0.58410053  0.08438813  0.94745207  1
  Se  Se177  1  0.59385059  0.41122565  0.44545911  1
  Se  Se178  1  0.59451643  0.41119720  0.93827829  1
  Se  Se179  1  0.59288911  0.74535204  0.43915943  1
  Se  Se180  1  0.58164104  0.75405345  0.94823716  1
  Se  Se181  1  0.91169013  0.08905074  0.44825253  1
  Se  Se182  1  0.92348831  0.08024313  0.94254059  1
  Se  Se183  1  0.91801085  0.42114891  0.44859195  1
  Se  Se184  1  0.91783162  0.40767512  0.93523791  1
  Se  Se185  1  0.91728469  0.75183733  0.44754460  1
  Se  Se186  1  0.90903046  0.74816957  0.95026615  1
  Se  Se187  1  0.24561780  0.24326212  0.31007184  1
  Se  Se188  1  0.24841653  0.24819856  0.81172385  1
  Se  Se189  1  0.25172985  0.57485307  0.31132692  1
  Se  Se190  1  0.24236013  0.57778762  0.80963752  1
  Se  Se191  1  0.24705174  0.92402319  0.28876228  1
  Se  Se192  1  0.23935726  0.90643182  0.81019830  1
  Se  Se193  1  0.56911143  0.24274479  0.31170373  1
  Se  Se194  1  0.58328420  0.24649939  0.80879184  1
  Se  Se195  1  0.59163579  0.58462907  0.30189171  1
  Se  Se196  1  0.57979446  0.59139363  0.79534953  1
  Se  Se197  1  0.58640742  0.91944400  0.30238481  1
  Se  Se198  1  0.58991203  0.92147342  0.80795841  1
  Se  Se199  1  0.90150276  0.24395980  0.30798711  1
  Se  Se200  1  0.92326058  0.24226995  0.79220770  1
  Se  Se201  1  0.94205850  0.60607617  0.30942279  1
  Se  Se202  1  0.91525365  0.58359207  0.80221119  1
  Se  Se203  1  0.91127843  0.91515585  0.31075325  1
  Se  Se204  1  0.90923854  0.91012912  0.81549927  1
  Se  Se205  1  0.08134916  0.09345922  0.30631222  1
  Se  Se206  1  0.09567440  0.08763739  0.80657728  1
  Se  Se207  1  0.09298621  0.42253907  0.31561826  1
  Se  Se208  1  0.08193455  0.40942453  0.80483707  1
  Se  Se209  1  0.11662577  0.77987927  0.30667409  1
  Se  Se210  1  0.07343124  0.74131940  0.81043326  1
  Se  Se211  1  0.40867526  0.07782871  0.30551007  1
  Se  Se212  1  0.42492360  0.09678478  0.81290094  1
  Se  Se213  1  0.42470594  0.41797232  0.31101944  1
  Se  Se214  1  0.42404819  0.42658749  0.80360474  1
  Se  Se215  1  0.42767757  0.76096815  0.31114297  1
  Se  Se216  1  0.42039664  0.76209917  0.80913366  1
  Se  Se217  1  0.74094862  0.08016159  0.30661689  1
  Se  Se218  1  0.75709036  0.08716240  0.79989379  1
  Se  Se219  1  0.76513464  0.42702282  0.30956082  1
  Se  Se220  1  0.76046443  0.42499155  0.81287738  1
  Se  Se221  1  0.75347306  0.74897969  0.30504315  1
  Se  Se222  1  0.74533114  0.74727411  0.80732524  1
  Se  Se223  1  0.25319278  0.08336655  0.19467841  1
  Se  Se224  1  0.25119207  0.08880827  0.68822528  1
  Se  Se225  1  0.23401967  0.42443375  0.19560270  1
  Se  Se226  1  0.24208856  0.42436952  0.68989504  1
  Se  Se227  1  0.25291479  0.75121213  0.18086936  1
  Se  Se228  1  0.24191432  0.75420813  0.69269212  1
  Se  Se229  1  0.58650136  0.08111872  0.19816439  1
  Se  Se230  1  0.59762921  0.08068141  0.70609461  1
  Se  Se231  1  0.58095225  0.41538741  0.19027471  1
  Se  Se232  1  0.58090398  0.42143669  0.68468040  1
  Se  Se233  1  0.58852026  0.74794456  0.19709428  1
  Se  Se234  1  0.58096936  0.75016518  0.69794221  1
  Se  Se235  1  0.90632167  0.09277561  0.18763455  1
  Se  Se236  1  0.91311835  0.08516838  0.68151884  1
  Se  Se237  1  0.90735171  0.42639154  0.19733328  1
  Se  Se238  1  0.91917696  0.41574038  0.69761160  1
  Se  Se239  1  0.92248088  0.75187542  0.19868701  1
  Se  Se240  1  0.91496963  0.74949324  0.69958188  1
  Se  Se241  1  0.08582210  0.24851702  0.18969689  1
  Se  Se242  1  0.08290052  0.25185414  0.69690339  1
  Se  Se243  1  0.08414169  0.59079223  0.20386887  1
  Se  Se244  1  0.07781562  0.58759543  0.69917271  1
  Se  Se245  1  0.08525923  0.91143648  0.18119844  1
  Se  Se246  1  0.08531404  0.90896535  0.69527761  1
  Se  Se247  1  0.42198324  0.24074148  0.19005848  1
  Se  Se248  1  0.43058625  0.23768230  0.69231615  1
  Se  Se249  1  0.42787438  0.57596218  0.19303159  1
  Se  Se250  1  0.41177400  0.57201596  0.67802442  1
  Se  Se251  1  0.41726246  0.91770470  0.19553803  1
  Se  Se252  1  0.42554561  0.91779836  0.69226442  1
  Se  Se253  1  0.74795183  0.24695718  0.18857869  1
  Se  Se254  1  0.75811450  0.24887383  0.68629636  1
  Se  Se255  1  0.75434420  0.58058599  0.20638988  1
  Se  Se256  1  0.74584819  0.58519838  0.69540189  1
  Se  Se257  1  0.74980169  0.91992156  0.19866936  1
  Se  Se258  1  0.75080087  0.91807084  0.69984113  1
