# generated using pymatgen
data_In86Cu29Se144
_symmetry_space_group_name_H-M   'P 1'
_cell_length_a   17.58156375
_cell_length_b   17.57932733
_cell_length_c   23.44273781
_cell_angle_alpha   90.00701618
_cell_angle_beta   89.99653494
_cell_angle_gamma   90.00509734
_symmetry_Int_Tables_number   1
_chemical_formula_structural   In86Cu29Se144
_chemical_formula_sum   'In86 Cu29 Se144'
_cell_volume   7245.49526564
_cell_formula_units_Z   1
loop_
 _symmetry_equiv_pos_site_id
 _symmetry_equiv_pos_as_xyz
  1  'x, y, z'
loop_
 _atom_site_type_symbol
 _atom_site_label
 _atom_site_symmetry_multiplicity
 _atom_site_fract_x
 _atom_site_fract_y
 _atom_site_fract_z
 _atom_site_occupancy
  In  In0  1  0.00103405  0.16407234  0.11548358  1
  In  In1  1  0.00391213  0.16161157  0.62073199  1
  In  In2  1  -0.00498965  0.51741632  0.12268246  1
  In  In3  1  0.00954427  0.48105091  0.63515791  1
  In  In4  1  0.00180955  0.81965335  0.12277632  1
  In  In5  1  -0.00049501  0.86094125  0.61932761  1
  In  In6  1  0.33024564  0.17377296  0.12661752  1
  In  In7  1  0.32880844  0.17903991  0.64027585  1
  In  In8  1  0.33518098  0.47810321  0.12246235  1
  In  In9  1  0.31926244  0.49171452  0.62236085  1
  In  In10  1  0.34474447  0.84468836  0.11739275  1
  In  In11  1  0.34630341  0.83733908  0.61943364  1
  In  In12  1  0.67332448  0.15636748  0.12997386  1
  In  In13  1  0.65813957  0.15362246  0.62470194  1
  In  In14  1  0.66691979  0.49809769  0.12657845  1
  In  In15  1  0.67926998  0.49701480  0.62397688  1
  In  In16  1  0.65232229  0.84581640  0.13282246  1
  In  In17  1  0.67951546  0.84651974  0.61071174  1
  In  In18  1  0.17067894  0.00073727  0.37604473  1
  In  In19  1  0.16833073  0.00231264  0.87356452  1
  In  In20  1  0.17303299  0.32288378  0.38112330  1
  In  In21  1  0.15495226  0.33078618  0.86796971  1
  In  In22  1  0.14995543  0.66730434  0.37330183  1
  In  In23  1  0.17735438  0.66128103  0.88112309  1
  In  In24  1  0.49339034  -0.00730815  0.37126281  1
  In  In25  1  0.49293911  0.00015877  0.86963446  1
  In  In26  1  0.50130851  0.33284709  0.36589190  1
  In  In27  1  0.49587541  0.34203406  0.87993617  1
  In  In28  1  0.51450059  0.66957975  0.36737233  1
  In  In29  1  0.50017161  0.66521857  0.88710405  1
  In  In30  1  0.82222493  0.01458080  0.38561319  1
  In  In31  1  0.84266709  0.00706408  0.86760224  1
  In  In32  1  0.82332951  0.32343072  0.37805974  1
  In  In33  1  0.84278027  0.32079469  0.88244937  1
  In  In34  1  0.83568470  0.67070967  0.36665744  1
  In  In35  1  0.82360431  0.67111866  0.88226183  1
  In  In36  1  0.00044507  0.16097768  0.39183286  1
  In  In37  1  0.00262517  0.16800062  0.87356559  1
  In  In38  1  -0.00219369  0.51297106  0.37613450  1
  In  In39  1  0.00817772  0.48139307  0.87725959  1
  In  In40  1  -0.00104217  0.82211516  0.37438805  1
  In  In41  1  -0.00479782  0.85017121  0.87325739  1
  In  In42  1  0.33246771  0.16169163  0.36914604  1
  In  In43  1  0.33001805  0.15536325  0.86714401  1
  In  In44  1  0.33163224  0.48411810  0.37346275  1
  In  In45  1  0.33725126  0.49929511  0.87646423  1
  In  In46  1  0.32790064  0.85493472  0.37435415  1
  In  In47  1  0.32704313  0.83877345  0.88202963  1
  In  In48  1  0.67271719  0.17104739  0.36790132  1
  In  In49  1  0.67911380  0.16179970  0.87782918  1
  In  In50  1  0.66532911  0.49269867  0.36376704  1
  In  In51  1  0.66594894  0.49918917  0.88880444  1
  In  In52  1  0.66470648  0.83362635  0.37228489  1
  In  In53  1  0.65689019  0.84108918  0.88171172  1
  In  In54  1  0.17752112  0.01095754  0.11713330  1
  In  In55  1  0.15030299  0.01917015  0.63682306  1
  In  In56  1  0.18325391  0.32919409  0.12045989  1
  In  In57  1  0.17019371  0.32732377  0.62764001  1
  In  In58  1  0.14935891  0.67009430  0.12369548  1
  In  In59  1  0.17665835  0.66360457  0.62225951  1
  In  In60  1  0.51125174  -0.01025902  0.12725676  1
  In  In61  1  0.50865243  -0.00002210  0.63633939  1
  In  In62  1  0.49210474  0.34029466  0.12689048  1
  In  In63  1  0.48844848  0.31852013  0.62788413  1
  In  In64  1  0.51012535  0.67702282  0.12064154  1
  In  In65  1  0.49235171  0.67547760  0.62183760  1
  In  In66  1  0.81685051  0.00246898  0.11997633  1
  In  In67  1  0.83393505  0.00242876  0.61978212  1
  In  In68  1  0.82308124  0.32012923  0.11858765  1
  In  In69  1  0.84753510  0.33622348  0.62428245  1
  In  In70  1  0.84029213  0.65857360  0.13121039  1
  In  In71  1  0.82372267  0.67209112  0.62164343  1
  In  In72  1  0.83589660  0.83230170  0.00444469  1
  In  In73  1  -0.00134800  0.33743698  0.25226011  1
  In  In74  1  0.33281580  0.66436500  0.75868256  1
  In  In75  1  0.49969783  0.16582353  -0.00490083  1
  In  In76  1  -0.00192837  -0.00454268  0.25641360  1
  In  In77  1  0.50557056  0.50233149  0.48559593  1
  In  In78  1  0.33235720  0.66757478  0.24264598  1
  In  In79  1  0.84008564  0.49906774  0.49872487  1
  In  In80  1  0.16423138  0.50054284  0.00278086  1
  In  In81  1  0.66388912  0.32710715  0.75149053  1
  In  In82  1  0.16282371  0.83907433  0.49726981  1
  In  In83  1  0.00005061  0.67102046  0.75229069  1
  In  In84  1  0.49892449  0.16440490  0.50745275  1
  In  In85  1  0.66182657  0.67628692  0.76044281  1
  Cu  Cu86  1  0.00919421  0.33024086  0.50614055  1
  Cu  Cu87  1  0.66434137  0.33451453  0.00322857  1
  Cu  Cu88  1  0.50241154  0.49719575  0.24662651  1
  Cu  Cu89  1  0.49903794  0.83609549  0.24800778  1
  Cu  Cu90  1  0.83494066  0.49776878  0.75777614  1
  Cu  Cu91  1  0.49374018  0.49358305  0.75153578  1
  Cu  Cu92  1  0.66333867  0.66887689  0.49426195  1
  Cu  Cu93  1  -0.00326821  0.33275195  -0.00204474  1
  Cu  Cu94  1  0.66093150  -0.00359020  0.50010795  1
  Cu  Cu95  1  0.16699124  0.49971977  0.24266964  1
  Cu  Cu96  1  0.32902020  0.00620610  0.50096592  1
  Cu  Cu97  1  0.33272714  0.66837335  0.49964736  1
  Cu  Cu98  1  0.33629032  -0.00069456  -0.00367147  1
  Cu  Cu99  1  0.83287163  0.84846229  0.74100698  1
  Cu  Cu100  1  0.83140357  0.49877525  0.24920117  1
  Cu  Cu101  1  0.82625963  0.83180964  0.24703966  1
  Cu  Cu102  1  0.83822230  0.16493525  0.74931953  1
  Cu  Cu103  1  0.33602756  0.66556077  0.00336019  1
  Cu  Cu104  1  0.49973263  0.16363146  0.24650612  1
  Cu  Cu105  1  0.16594065  0.83830313  0.25143649  1
  Cu  Cu106  1  0.50418017  0.84050284  0.74957859  1
  Cu  Cu107  1  0.17192157  0.84061381  0.75344264  1
  Cu  Cu108  1  0.33005720  0.33120979  0.50265757  1
  Cu  Cu109  1  -0.00018764  0.66349422  0.50054620  1
  Cu  Cu110  1  0.17372063  0.17248244  0.24891867  1
  Cu  Cu111  1  0.83143163  0.16388490  0.25025489  1
  Cu  Cu112  1  0.66935928  0.66452110  0.00815774  1
  Cu  Cu113  1  0.00473038  0.00280071  -0.00677421  1
  Cu  Cu114  1  0.16043141  0.16591857  0.75105062  1
  Se  Se115  1  0.08799659  0.08571667  0.04843430  1
  Se  Se116  1  0.08266528  0.07607493  0.55104612  1
  Se  Se117  1  0.07423623  0.40920467  0.06454728  1
  Se  Se118  1  0.09069095  0.41656368  0.55741477  1
  Se  Se119  1  0.08595215  0.75386822  0.04801914  1
  Se  Se120  1  0.07679685  0.74674812  0.56215279  1
  Se  Se121  1  0.41529116  0.07607478  0.06087725  1
  Se  Se122  1  0.40711435  0.07917617  0.56788325  1
  Se  Se123  1  0.41304590  0.40643148  0.04798183  1
  Se  Se124  1  0.41857426  0.41482430  0.55391331  1
  Se  Se125  1  0.42112101  0.75224914  0.05227682  1
  Se  Se126  1  0.41929275  0.75326414  0.54588307  1
  Se  Se127  1  0.75571972  0.09603029  0.05029907  1
  Se  Se128  1  0.74301279  0.08230633  0.55244194  1
  Se  Se129  1  0.75056107  0.41785835  0.05523797  1
  Se  Se130  1  0.74691066  0.40530023  0.55266535  1
  Se  Se131  1  0.74449201  0.74936094  0.06854846  1
  Se  Se132  1  0.75135332  0.74945561  0.54579269  1
  Se  Se133  1  0.24462636  0.23689634  0.05015449  1
  Se  Se134  1  0.25391492  0.24376351  0.55780220  1
  Se  Se135  1  0.25616385  0.58805532  0.06618562  1
  Se  Se136  1  0.25163620  0.58186257  0.54967262  1
  Se  Se137  1  0.25068784  0.91682743  0.05054576  1
  Se  Se138  1  0.24915385  0.92482525  0.56242081  1
  Se  Se139  1  0.58613117  0.25114363  0.06266032  1
  Se  Se140  1  0.59166475  0.26105452  0.55901815  1
  Se  Se141  1  0.58201331  0.57960228  0.05657871  1
  Se  Se142  1  0.59009502  0.58776408  0.55891060  1
  Se  Se143  1  0.58446737  0.91380806  0.05075301  1
  Se  Se144  1  0.57315376  0.91973084  0.55569112  1
  Se  Se145  1  0.91477677  0.24696866  0.05083719  1
  Se  Se146  1  0.91921439  0.24932764  0.55401130  1
  Se  Se147  1  0.91537199  0.59210938  0.05072364  1
  Se  Se148  1  0.92632030  0.58416668  0.56728295  1
  Se  Se149  1  0.92728758  0.92800620  0.06164959  1
  Se  Se150  1  0.89668060  0.90336191  0.55055150  1
  Se  Se151  1  0.09082836  0.24553942  0.45216365  1
  Se  Se152  1  0.08253980  0.25180772  0.94488583  1
  Se  Se153  1  0.08581814  0.58102531  0.44980616  1
  Se  Se154  1  0.07324489  0.58865694  0.94220368  1
  Se  Se155  1  0.06887035  0.92590846  0.43911775  1
  Se  Se156  1  0.08744288  0.91601388  0.94377324  1
  Se  Se157  1  0.41407250  0.25541869  0.44157248  1
  Se  Se158  1  0.40414631  0.25185412  0.93932791  1
  Se  Se159  1  0.40882519  0.59331499  0.43168591  1
  Se  Se160  1  0.41503667  0.57856279  0.94991774  1
  Se  Se161  1  0.41289268  0.92125935  0.44944157  1
  Se  Se162  1  0.42200225  0.91608284  0.94481513  1
  Se  Se163  1  0.75561081  0.23292129  0.44656489  1
  Se  Se164  1  0.74768137  0.25085875  0.94966777  1
  Se  Se165  1  0.74327600  0.58306078  0.43781090  1
  Se  Se166  1  0.75238813  0.58378122  0.95291567  1
  Se  Se167  1  0.74426831  0.91528840  0.44420106  1
  Se  Se168  1  0.75437102  0.92427579  0.94090610  1
  Se  Se169  1  0.25002797  0.08768843  0.44371614  1
  Se  Se170  1  0.25179787  0.08281465  0.94455151  1
  Se  Se171  1  0.24856767  0.41619765  0.44872912  1
  Se  Se172  1  0.24760951  0.41091892  0.94007313  1
  Se  Se173  1  0.25281993  0.74709503  0.43595735  1
  Se  Se174  1  0.25226717  0.74763733  0.94996951  1
  Se  Se175  1  0.58300430  0.07961373  0.43923233  1
  Se  Se176  1  0.59059459  0.07220013  0.94113961  1
  Se  Se177  1  0.59643620  0.40175826  0.43978674  1
  Se  Se178  1  0.57799813  0.41742280  0.95303472  1
  Se  Se179  1  0.57885510  0.75315923  0.44379367  1
  Se  Se180  1  0.58966251  0.74708244  0.95031679  1
  Se  Se181  1  0.91378802  0.08094340  0.45501033  1
  Se  Se182  1  0.91796251  0.08531789  0.94297745  1
  Se  Se183  1  0.92928281  0.40473895  0.43932135  1
  Se  Se184  1  0.91328599  0.41903251  0.94791477  1
  Se  Se185  1  0.91615614  0.74128805  0.44419304  1
  Se  Se186  1  0.92689633  0.74788266  0.94072130  1
  Se  Se187  1  0.25506229  0.25554454  0.30392504  1
  Se  Se188  1  0.24483364  0.24668068  0.80520934  1
  Se  Se189  1  0.24480425  0.57992772  0.30753286  1
  Se  Se190  1  0.23744546  0.56779434  0.80556570  1
  Se  Se191  1  0.24797476  0.92652149  0.29897646  1
  Se  Se192  1  0.25807809  0.92082188  0.80601603  1
  Se  Se193  1  0.58365590  0.24755723  0.30021595  1
  Se  Se194  1  0.57839503  0.24430970  0.81779583  1
  Se  Se195  1  0.58633767  0.58159411  0.29779003  1
  Se  Se196  1  0.57486257  0.57323405  0.81126348  1
  Se  Se197  1  0.58318804  0.91794807  0.30286440  1
  Se  Se198  1  0.58819383  0.92052006  0.80463297  1
  Se  Se199  1  0.91752042  0.23727713  0.31051361  1
  Se  Se200  1  0.91795787  0.25081681  0.80342925  1
  Se  Se201  1  0.91743233  0.58271723  0.30036656  1
  Se  Se202  1  0.91110563  0.58299512  0.81541265  1
  Se  Se203  1  0.90280765  0.90940021  0.31343325  1
  Se  Se204  1  0.92174380  0.92390795  0.79579935  1
  Se  Se205  1  0.08815104  0.09608772  0.30857281  1
  Se  Se206  1  0.08003277  0.07976505  0.80466709  1
  Se  Se207  1  0.09168996  0.42446197  0.31183691  1
  Se  Se208  1  0.07875355  0.41565075  0.79687275  1
  Se  Se209  1  0.08091214  0.75123753  0.29843146  1
  Se  Se210  1  0.09527267  0.75655044  0.81309783  1
  Se  Se211  1  0.41684697  0.08052477  0.30199671  1
  Se  Se212  1  0.42196385  0.08616367  0.79800909  1
  Se  Se213  1  0.41628266  0.41598276  0.29934255  1
  Se  Se214  1  0.41131664  0.41261889  0.80488919  1
  Se  Se215  1  0.41483658  0.75879069  0.30858949  1
  Se  Se216  1  0.42870606  0.75609978  0.81149981  1
  Se  Se217  1  0.74874368  0.07745549  0.30181953  1
  Se  Se218  1  0.75105435  0.08357623  0.80041010  1
  Se  Se219  1  0.75614128  0.40886758  0.30288499  1
  Se  Se220  1  0.75041545  0.41867903  0.81479169  1
  Se  Se221  1  0.74408967  0.74733862  0.30187828  1
  Se  Se222  1  0.76076786  0.76951342  0.80869904  1
  Se  Se223  1  0.25196072  0.08434497  0.19561504  1
  Se  Se224  1  0.25046561  0.08289041  0.70193132  1
  Se  Se225  1  0.25071397  0.41077189  0.19828124  1
  Se  Se226  1  0.25961209  0.40446781  0.69583588  1
  Se  Se227  1  0.24336203  0.76109120  0.18589550  1
  Se  Se228  1  0.24969816  0.75820881  0.69286332  1
  Se  Se229  1  0.58523236  0.07858969  0.19736491  1
  Se  Se230  1  0.57564326  0.09626606  0.70310666  1
  Se  Se231  1  0.58560024  0.41158128  0.19498181  1
  Se  Se232  1  0.57871117  0.42329808  0.68840994  1
  Se  Se233  1  0.58346431  0.74836491  0.20039446  1
  Se  Se234  1  0.58274382  0.75961552  0.68802679  1
  Se  Se235  1  0.91433470  0.08570352  0.19069636  1
  Se  Se236  1  0.91697263  0.08198142  0.69073205  1
  Se  Se237  1  0.91034135  0.42003763  0.18638669  1
  Se  Se238  1  0.91505192  0.41368417  0.70376346  1
  Se  Se239  1  0.91657851  0.75211505  0.19762797  1
  Se  Se240  1  0.91156968  0.75842755  0.68764117  1
  Se  Se241  1  0.08562295  0.24590909  0.19026335  1
  Se  Se242  1  0.07969274  0.24724551  0.69299911  1
  Se  Se243  1  0.07962806  0.58557843  0.19851010  1
  Se  Se244  1  0.09276689  0.58208379  0.69398191  1
  Se  Se245  1  0.08704748  0.91716361  0.18730698  1
  Se  Se246  1  0.08257981  0.91687679  0.70002891  1
  Se  Se247  1  0.41651851  0.25061751  0.19620994  1
  Se  Se248  1  0.42426025  0.24662271  0.70819884  1
  Se  Se249  1  0.42219054  0.57601770  0.18487997  1
  Se  Se250  1  0.42121241  0.57908011  0.69032859  1
  Se  Se251  1  0.41529060  0.92027923  0.19628346  1
  Se  Se252  1  0.41391161  0.91665462  0.69712960  1
  Se  Se253  1  0.74891411  0.24895061  0.19808575  1
  Se  Se254  1  0.75708042  0.24464361  0.68796856  1
  Se  Se255  1  0.74780805  0.58300127  0.19688127  1
  Se  Se256  1  0.75525464  0.58092756  0.70029713  1
  Se  Se257  1  0.74816124  0.92157236  0.19673066  1
  Se  Se258  1  0.74257888  0.92586246  0.69057701  1
