# generated using pymatgen
data_In86Cu29Se144
_symmetry_space_group_name_H-M   'P 1'
_cell_length_a   17.58629176
_cell_length_b   17.58786680
_cell_length_c   23.45046672
_cell_angle_alpha   89.99372114
_cell_angle_beta   89.98695265
_cell_angle_gamma   90.00215639
_symmetry_Int_Tables_number   1
_chemical_formula_structural   In86Cu29Se144
_chemical_formula_sum   'In86 Cu29 Se144'
_cell_volume   7253.35474376
_cell_formula_units_Z   1
loop_
 _symmetry_equiv_pos_site_id
 _symmetry_equiv_pos_as_xyz
  1  'x, y, z'
loop_
 _atom_site_type_symbol
 _atom_site_label
 _atom_site_symmetry_multiplicity
 _atom_site_fract_x
 _atom_site_fract_y
 _atom_site_fract_z
 _atom_site_occupancy
  In  In0  1  0.00856418  0.17669632  0.12745374  1
  In  In1  1  0.00073499  0.16537911  0.62711613  1
  In  In2  1  0.00962254  0.48659023  0.12455694  1
  In  In3  1  -0.01882669  0.49773578  0.63169705  1
  In  In4  1  -0.00209166  0.83017065  0.11603496  1
  In  In5  1  0.01218516  0.84220429  0.61907106  1
  In  In6  1  0.33551164  0.14936621  0.12684754  1
  In  In7  1  0.32294171  0.16194885  0.61608269  1
  In  In8  1  0.34595577  0.52144482  0.10783062  1
  In  In9  1  0.34751329  0.50577733  0.62561181  1
  In  In10  1  0.33102315  0.83983033  0.13116727  1
  In  In11  1  0.33425645  0.83497323  0.62877437  1
  In  In12  1  0.66120388  0.18354836  0.13314679  1
  In  In13  1  0.66503168  0.16595368  0.61458178  1
  In  In14  1  0.65179809  0.49468677  0.12817324  1
  In  In15  1  0.66784438  0.50967791  0.62733063  1
  In  In16  1  0.66220391  0.82295921  0.12106303  1
  In  In17  1  0.65280735  0.82295129  0.61711344  1
  In  In18  1  0.18083030  -0.01003898  0.38050993  1
  In  In19  1  0.16418899  -0.00515980  0.86996222  1
  In  In20  1  0.15310553  0.33443420  0.37155198  1
  In  In21  1  0.16343432  0.34183939  0.87717618  1
  In  In22  1  0.18231545  0.67156978  0.37462195  1
  In  In23  1  0.18551501  0.65792245  0.88665565  1
  In  In24  1  0.49364964  -0.00119053  0.37708854  1
  In  In25  1  0.49679724  0.01206269  0.87453630  1
  In  In26  1  0.50754664  0.32900105  0.37837021  1
  In  In27  1  0.49681890  0.33940402  0.88410363  1
  In  In28  1  0.49240950  0.67212209  0.38248711  1
  In  In29  1  0.48467521  0.64937365  0.85643672  1
  In  In30  1  0.83763727  -0.00125236  0.38698134  1
  In  In31  1  0.83760511  -0.01632458  0.87125449  1
  In  In32  1  0.83211822  0.33360444  0.38038895  1
  In  In33  1  0.83890352  0.32729332  0.86971484  1
  In  In34  1  0.82365323  0.67028260  0.38883460  1
  In  In35  1  0.83673043  0.67672049  0.86609213  1
  In  In36  1  -0.00507585  0.17341224  0.38412113  1
  In  In37  1  0.00833403  0.16486015  0.86582421  1
  In  In38  1  -0.00270180  0.48718016  0.37612794  1
  In  In39  1  0.00900129  0.49877953  0.87053375  1
  In  In40  1  -0.00094142  0.83558224  0.38556556  1
  In  In41  1  -0.00135210  0.83376173  0.87405470  1
  In  In42  1  0.34472554  0.15452304  0.38294967  1
  In  In43  1  0.34308665  0.16530584  0.87690928  1
  In  In44  1  0.33876675  0.51963536  0.37183837  1
  In  In45  1  0.33667269  0.50354208  0.88075715  1
  In  In46  1  0.33639566  0.83032586  0.37638849  1
  In  In47  1  0.32514980  0.82538612  0.87339438  1
  In  In48  1  0.65804213  0.17429078  0.38221794  1
  In  In49  1  0.65869102  0.16528788  0.87446073  1
  In  In50  1  0.67065613  0.49551089  0.38207829  1
  In  In51  1  0.64873682  0.50039651  0.87031226  1
  In  In52  1  0.66276755  0.83561139  0.38428098  1
  In  In53  1  0.67996519  0.82988379  0.87393496  1
  In  In54  1  0.18351444  -0.00369179  0.12207998  1
  In  In55  1  0.16886737  -0.00225453  0.62841829  1
  In  In56  1  0.15295996  0.34138820  0.12775139  1
  In  In57  1  0.16661115  0.31981839  0.62381277  1
  In  In58  1  0.18553364  0.68675697  0.10150179  1
  In  In59  1  0.16737672  0.68292779  0.62471109  1
  In  In60  1  0.46427093  -0.00503097  0.11922146  1
  In  In61  1  0.49015832  -0.00778752  0.61934888  1
  In  In62  1  0.50530484  0.34550467  0.12508657  1
  In  In63  1  0.50506674  0.33973102  0.61516740  1
  In  In64  1  0.49859290  0.65608727  0.12875394  1
  In  In65  1  0.49484154  0.66519922  0.63048389  1
  In  In66  1  0.83958700  -0.00215039  0.12410690  1
  In  In67  1  0.84138327  0.00916035  0.61720240  1
  In  In68  1  0.83684892  0.33287547  0.13523996  1
  In  In69  1  0.84058156  0.34161542  0.62100754  1
  In  In70  1  0.82292278  0.67302773  0.11901272  1
  In  In71  1  0.82042075  0.65552295  0.61869635  1
  In  In72  1  0.00503239  0.00740828  0.24756042  1
  In  In73  1  0.33319450  0.33701140  0.25133018  1
  In  In74  1  0.83876252  0.50507063  -0.00345190  1
  In  In75  1  0.49843123  0.82935011  -0.00259454  1
  In  In76  1  0.16494504  0.50005232  0.49287003  1
  In  In77  1  0.66030016  0.66042503  0.24739756  1
  In  In78  1  0.16992811  0.16677364  0.00178868  1
  In  In79  1  0.66989151  0.34052797  0.74162231  1
  In  In80  1  0.83193686  0.16508592  0.00711802  1
  In  In81  1  0.00220068  0.66906611  0.74710252  1
  In  In82  1  0.66817329  -0.00397892  0.74698425  1
  In  In83  1  0.00470142  0.65860132  0.24928830  1
  In  In84  1  0.65792705  0.00407898  0.25930362  1
  In  In85  1  0.32998695  0.33275256  0.75386317  1
  Cu  Cu86  1  0.33505065  0.67486189  0.50172231  1
  Cu  Cu87  1  0.83380275  0.49345204  0.25609054  1
  Cu  Cu88  1  0.33615534  0.33361693  0.49696438  1
  Cu  Cu89  1  0.17229723  0.83270351  0.75055382  1
  Cu  Cu90  1  0.66712098  0.33135397  0.50114636  1
  Cu  Cu91  1  -0.00306022  0.66781032  0.50557222  1
  Cu  Cu92  1  0.17445741  0.83144398  0.24888098  1
  Cu  Cu93  1  0.16942021  0.50406556  0.24630997  1
  Cu  Cu94  1  0.83658938  0.83462133  0.74360198  1
  Cu  Cu95  1  0.16820415  0.16719494  0.24934773  1
  Cu  Cu96  1  -0.00054519  0.66877632  -0.00923214  1
  Cu  Cu97  1  0.33129472  -0.00208937  0.50275363  1
  Cu  Cu98  1  0.66045713  0.00146545  -0.00491615  1
  Cu  Cu99  1  0.00799953  0.00461773  0.50408767  1
  Cu  Cu100  1  0.83279680  0.17960151  0.26069223  1
  Cu  Cu101  1  -0.00203231  0.33179504  0.50181049  1
  Cu  Cu102  1  0.66649314  0.66888185  -0.00142055  1
  Cu  Cu103  1  0.16893492  0.50020841  0.75494523  1
  Cu  Cu104  1  0.82885695  0.83654756  0.25121159  1
  Cu  Cu105  1  -0.00326437  -0.00577187  -0.00289523  1
  Cu  Cu106  1  0.49898256  0.83268997  0.74562306  1
  Cu  Cu107  1  0.49355604  0.16951467  0.74727516  1
  Cu  Cu108  1  0.66002613  0.66284241  0.50319558  1
  Cu  Cu109  1  0.66907496  -0.00299930  0.49912638  1
  Cu  Cu110  1  0.16538457  0.15829787  0.74459307  1
  Cu  Cu111  1  0.66325512  0.33750842  0.00384782  1
  Cu  Cu112  1  0.84228559  0.16220067  0.74624158  1
  Cu  Cu113  1  0.49884945  0.16384937  0.25523901  1
  Cu  Cu114  1  0.33429993  0.33051666  0.00263877  1
  Se  Se115  1  0.07446255  0.07374427  0.06045033  1
  Se  Se116  1  0.08973228  0.08627230  0.55976517  1
  Se  Se117  1  0.08385754  0.41388011  0.04787600  1
  Se  Se118  1  0.07876530  0.41554249  0.56045962  1
  Se  Se119  1  0.08050010  0.75639141  0.04370400  1
  Se  Se120  1  0.08672133  0.75263228  0.54889441  1
  Se  Se121  1  0.41452274  0.09029282  0.04589469  1
  Se  Se122  1  0.41696563  0.08480116  0.55207255  1
  Se  Se123  1  0.41962645  0.41669009  0.05218528  1
  Se  Se124  1  0.41459312  0.42014629  0.55067779  1
  Se  Se125  1  0.41306797  0.74417851  0.06293281  1
  Se  Se126  1  0.41854962  0.75324476  0.55952837  1
  Se  Se127  1  0.73600960  0.07730699  0.06399606  1
  Se  Se128  1  0.75138147  0.08425413  0.54928266  1
  Se  Se129  1  0.75098928  0.41425193  0.06036438  1
  Se  Se130  1  0.74295530  0.41551411  0.55988654  1
  Se  Se131  1  0.75007539  0.75706575  0.04650073  1
  Se  Se132  1  0.74760791  0.74854302  0.55205889  1
  Se  Se133  1  0.25552388  0.25594846  0.06694750  1
  Se  Se134  1  0.24844819  0.25247295  0.54735161  1
  Se  Se135  1  0.22802907  0.56394074  0.05134201  1
  Se  Se136  1  0.25135376  0.58851496  0.55738363  1
  Se  Se137  1  0.25066243  0.90743209  0.05300476  1
  Se  Se138  1  0.24962286  0.91433015  0.55810165  1
  Se  Se139  1  0.58098157  0.25286166  0.05675241  1
  Se  Se140  1  0.57817809  0.24670254  0.54893092  1
  Se  Se141  1  0.58827039  0.58696579  0.05622064  1
  Se  Se142  1  0.57668669  0.58239546  0.55891260  1
  Se  Se143  1  0.58259421  0.92520263  0.06114110  1
  Se  Se144  1  0.58052114  0.91751469  0.55165954  1
  Se  Se145  1  0.92416052  0.26120549  0.05751028  1
  Se  Se146  1  0.91681314  0.24741030  0.55691422  1
  Se  Se147  1  0.92718902  0.59348045  0.06116580  1
  Se  Se148  1  0.91587396  0.57900704  0.55377957  1
  Se  Se149  1  0.91040884  0.91440748  0.05123193  1
  Se  Se150  1  0.92089527  0.91819236  0.55219545  1
  Se  Se151  1  0.08651371  0.25323422  0.44922604  1
  Se  Se152  1  0.07512054  0.25227204  0.94330166  1
  Se  Se153  1  0.07381036  0.59458650  0.43569621  1
  Se  Se154  1  0.08232278  0.58128860  0.94283514  1
  Se  Se155  1  0.08652215  0.91904611  0.44810651  1
  Se  Se156  1  0.08248890  0.91651733  0.94225344  1
  Se  Se157  1  0.42116033  0.24838314  0.44626702  1
  Se  Se158  1  0.41801121  0.24898097  0.94840556  1
  Se  Se159  1  0.41544386  0.58369795  0.45304102  1
  Se  Se160  1  0.42443625  0.58688849  0.94398859  1
  Se  Se161  1  0.41456542  0.91541531  0.44748985  1
  Se  Se162  1  0.41173506  0.92154388  0.93797952  1
  Se  Se163  1  0.75144478  0.24753865  0.44857959  1
  Se  Se164  1  0.74252993  0.25682256  0.94345184  1
  Se  Se165  1  0.74829276  0.57906004  0.45386145  1
  Se  Se166  1  0.74644020  0.59067114  0.93604336  1
  Se  Se167  1  0.75438371  0.91095758  0.45021630  1
  Se  Se168  1  0.74830960  0.92036675  0.94577698  1
  Se  Se169  1  0.24905499  0.08419444  0.44956867  1
  Se  Se170  1  0.25450115  0.07590210  0.94109885  1
  Se  Se171  1  0.25816545  0.41237797  0.43290518  1
  Se  Se172  1  0.25521694  0.41194946  0.94443107  1
  Se  Se173  1  0.24808530  0.75567303  0.44975771  1
  Se  Se174  1  0.25448915  0.75207111  0.95288950  1
  Se  Se175  1  0.58351503  0.07709653  0.44377957  1
  Se  Se176  1  0.57890860  0.08933994  0.94717860  1
  Se  Se177  1  0.58264258  0.41565369  0.44935022  1
  Se  Se178  1  0.58230168  0.42262030  0.95019641  1
  Se  Se179  1  0.58048663  0.75029699  0.45003799  1
  Se  Se180  1  0.58658971  0.74319773  0.93405318  1
  Se  Se181  1  0.91931274  0.08506477  0.45218670  1
  Se  Se182  1  0.91964557  0.08014322  0.93926097  1
  Se  Se183  1  0.91441262  0.41801131  0.45081544  1
  Se  Se184  1  0.92429044  0.40862280  0.94029076  1
  Se  Se185  1  0.91393926  0.75250910  0.45103454  1
  Se  Se186  1  0.91227232  0.75219352  0.94226310  1
  Se  Se187  1  0.24874350  0.24313783  0.31316343  1
  Se  Se188  1  0.23915244  0.23861806  0.81137314  1
  Se  Se189  1  0.25059841  0.58844175  0.29923046  1
  Se  Se190  1  0.25379948  0.58029440  0.80719775  1
  Se  Se191  1  0.25491057  0.91447422  0.30409480  1
  Se  Se192  1  0.25461657  0.91778038  0.80337158  1
  Se  Se193  1  0.58434070  0.24805825  0.30371760  1
  Se  Se194  1  0.57589374  0.25087725  0.80493043  1
  Se  Se195  1  0.57818843  0.57838998  0.31575150  1
  Se  Se196  1  0.59729727  0.59647341  0.79793872  1
  Se  Se197  1  0.57260252  0.90194283  0.30902317  1
  Se  Se198  1  0.57739343  0.91082373  0.81031667  1
  Se  Se199  1  0.92336147  0.25767013  0.31041460  1
  Se  Se200  1  0.92120097  0.24790613  0.80068355  1
  Se  Se201  1  0.90583409  0.58315432  0.31389832  1
  Se  Se202  1  0.91232934  0.57551748  0.80434749  1
  Se  Se203  1  0.91401964  0.91465822  0.30746256  1
  Se  Se204  1  0.92189010  0.91326319  0.79808336  1
  Se  Se205  1  0.09094088  0.08893232  0.31496977  1
  Se  Se206  1  0.08194515  0.07488709  0.79878930  1
  Se  Se207  1  0.08410236  0.42369552  0.29964848  1
  Se  Se208  1  0.08384283  0.41194464  0.79962153  1
  Se  Se209  1  0.08571163  0.75903357  0.30861785  1
  Se  Se210  1  0.09534219  0.74825760  0.81189819  1
  Se  Se211  1  0.41422317  0.07852793  0.30346070  1
  Se  Se212  1  0.41331113  0.08415544  0.80007705  1
  Se  Se213  1  0.42396382  0.42235469  0.31207772  1
  Se  Se214  1  0.42530720  0.42230015  0.80707043  1
  Se  Se215  1  0.40149457  0.73247309  0.30895639  1
  Se  Se216  1  0.41291952  0.75377785  0.80081547  1
  Se  Se217  1  0.75901316  0.08820392  0.31462866  1
  Se  Se218  1  0.75812224  0.08862526  0.80890806  1
  Se  Se219  1  0.74872862  0.41401696  0.30955791  1
  Se  Se220  1  0.75453480  0.42272682  0.81082776  1
  Se  Se221  1  0.75077602  0.75359436  0.30890983  1
  Se  Se222  1  0.75118181  0.75296257  0.79552088  1
  Se  Se223  1  0.24856641  0.07891407  0.19980868  1
  Se  Se224  1  0.25688324  0.08170404  0.69474327  1
  Se  Se225  1  0.25103618  0.42549747  0.18583490  1
  Se  Se226  1  0.24448516  0.42186747  0.68784758  1
  Se  Se227  1  0.24837979  0.74434453  0.19178847  1
  Se  Se228  1  0.25442299  0.74744061  0.69878792  1
  Se  Se229  1  0.57360701  0.08407294  0.18874681  1
  Se  Se230  1  0.57786461  0.08918352  0.69003185  1
  Se  Se231  1  0.58865217  0.40939809  0.20229639  1
  Se  Se232  1  0.56882049  0.42763790  0.69291227  1
  Se  Se233  1  0.57128833  0.75877076  0.19498955  1
  Se  Se234  1  0.58471292  0.74832929  0.69697761  1
  Se  Se235  1  0.90605180  0.09935144  0.19405908  1
  Se  Se236  1  0.92239526  0.07473633  0.69560374  1
  Se  Se237  1  0.92178360  0.41980804  0.19889238  1
  Se  Se238  1  0.91768951  0.40576655  0.70150622  1
  Se  Se239  1  0.90960399  0.75429547  0.19305648  1
  Se  Se240  1  0.91450823  0.75343370  0.68146273  1
  Se  Se241  1  0.08336109  0.25397770  0.20227223  1
  Se  Se242  1  0.08364316  0.24885171  0.69758702  1
  Se  Se243  1  0.09650187  0.58612167  0.18148977  1
  Se  Se244  1  0.09263225  0.57628022  0.68711777  1
  Se  Se245  1  0.08718081  0.90745987  0.19003152  1
  Se  Se246  1  0.08587675  0.91384127  0.69819272  1
  Se  Se247  1  0.42083981  0.24336465  0.19120546  1
  Se  Se248  1  0.41796172  0.25060689  0.68532335  1
  Se  Se249  1  0.42224650  0.56734258  0.19484145  1
  Se  Se250  1  0.40829829  0.58975053  0.70140555  1
  Se  Se251  1  0.41873284  0.91311691  0.20140992  1
  Se  Se252  1  0.41582903  0.92101687  0.69824457  1
  Se  Se253  1  0.74867739  0.25627715  0.20322946  1
  Se  Se254  1  0.75514555  0.23864920  0.68899881  1
  Se  Se255  1  0.76055641  0.57379636  0.19065164  1
  Se  Se256  1  0.75880502  0.57644758  0.69818794  1
  Se  Se257  1  0.74826833  0.91455847  0.19188445  1
  Se  Se258  1  0.75430019  0.91110589  0.68156781  1
