# generated using pymatgen
data_In86Cu29Se144
_symmetry_space_group_name_H-M   'P 1'
_cell_length_a   17.55634563
_cell_length_b   17.55773082
_cell_length_c   23.41911976
_cell_angle_alpha   90.02317450
_cell_angle_beta   90.01418345
_cell_angle_gamma   90.01000572
_symmetry_Int_Tables_number   1
_chemical_formula_structural   In86Cu29Se144
_chemical_formula_sum   'In86 Cu29 Se144'
_cell_volume   7218.93315953
_cell_formula_units_Z   1
loop_
 _symmetry_equiv_pos_site_id
 _symmetry_equiv_pos_as_xyz
  1  'x, y, z'
loop_
 _atom_site_type_symbol
 _atom_site_label
 _atom_site_symmetry_multiplicity
 _atom_site_fract_x
 _atom_site_fract_y
 _atom_site_fract_z
 _atom_site_occupancy
  In  In0  1  0.01718471  0.20156504  0.10110791  1
  In  In1  1  -0.01649306  0.17765822  0.63588877  1
  In  In2  1  0.00910395  0.46830781  0.13426163  1
  In  In3  1  -0.00473581  0.48882738  0.61067324  1
  In  In4  1  0.01114613  0.82452803  0.12510528  1
  In  In5  1  0.00655197  0.83825326  0.62631359  1
  In  In6  1  0.33977757  0.17088795  0.12133559  1
  In  In7  1  0.33720949  0.17202120  0.62608368  1
  In  In8  1  0.32293162  0.51138551  0.13055054  1
  In  In9  1  0.33261038  0.50304844  0.61214159  1
  In  In10  1  0.33548930  0.81731618  0.11403599  1
  In  In11  1  0.32989748  0.82624031  0.62024655  1
  In  In12  1  0.67786706  0.17352765  0.11320282  1
  In  In13  1  0.67760803  0.15532311  0.62552740  1
  In  In14  1  0.67349145  0.50413192  0.14329738  1
  In  In15  1  0.68444958  0.50959244  0.60549824  1
  In  In16  1  0.65558867  0.82926922  0.12539416  1
  In  In17  1  0.66539578  0.83204531  0.62559743  1
  In  In18  1  0.15520109  -0.00123406  0.37622336  1
  In  In19  1  0.15778946  0.00762640  0.88225983  1
  In  In20  1  0.16733603  0.34349023  0.36531495  1
  In  In21  1  0.14828251  0.33775592  0.88724901  1
  In  In22  1  0.17281117  0.65834695  0.37745803  1
  In  In23  1  0.17539625  0.66179806  0.88843330  1
  In  In24  1  0.49446079  -0.01073744  0.38145588  1
  In  In25  1  0.51010777  -0.00709255  0.87830536  1
  In  In26  1  0.52152725  0.35448940  0.36145785  1
  In  In27  1  0.48719479  0.33924264  0.88154133  1
  In  In28  1  0.49935358  0.66234695  0.37447415  1
  In  In29  1  0.51164874  0.67213212  0.87279224  1
  In  In30  1  0.82878753  0.00037589  0.38484740  1
  In  In31  1  0.83966149  0.00073033  0.85966363  1
  In  In32  1  0.83024805  0.33586609  0.38412324  1
  In  In33  1  0.83499304  0.31815888  0.87659330  1
  In  In34  1  0.82489732  0.66819003  0.38370174  1
  In  In35  1  0.82125875  0.68046911  0.86875122  1
  In  In36  1  -0.01840975  0.18597827  0.38313331  1
  In  In37  1  -0.00367583  0.16379406  0.87367693  1
  In  In38  1  0.00091962  0.48839027  0.38445489  1
  In  In39  1  0.00668733  0.49648475  0.87355954  1
  In  In40  1  0.00262750  0.82661934  0.38938318  1
  In  In41  1  -0.00055582  0.84176904  0.87246597  1
  In  In42  1  0.32309388  0.17423250  0.36883193  1
  In  In43  1  0.32798881  0.16874866  0.88964041  1
  In  In44  1  0.33317447  0.50344957  0.36800698  1
  In  In45  1  0.33228768  0.49542493  0.87845147  1
  In  In46  1  0.34501311  0.81906569  0.38420690  1
  In  In47  1  0.33526797  0.82960413  0.88491916  1
  In  In48  1  0.67478624  0.19152864  0.37753247  1
  In  In49  1  0.67809505  0.15633220  0.88304958  1
  In  In50  1  0.66121214  0.49459666  0.38376193  1
  In  In51  1  0.66204694  0.51356746  0.87072945  1
  In  In52  1  0.67202581  0.82393476  0.38660555  1
  In  In53  1  0.65736185  0.83084868  0.85560773  1
  In  In54  1  0.16258747  0.00048167  0.11697106  1
  In  In55  1  0.16369643  -0.01651886  0.62709453  1
  In  In56  1  0.16776767  0.34279698  0.12420168  1
  In  In57  1  0.14665473  0.32778229  0.61753214  1
  In  In58  1  0.18121240  0.67121085  0.11332657  1
  In  In59  1  0.16492419  0.66408755  0.61620551  1
  In  In60  1  0.49392883  -0.01050993  0.11414469  1
  In  In61  1  0.52673083  -0.01172969  0.63844564  1
  In  In62  1  0.50715626  0.32817516  0.13287215  1
  In  In63  1  0.50486271  0.33950199  0.61324893  1
  In  In64  1  0.49927760  0.66745987  0.12973826  1
  In  In65  1  0.51686520  0.68148532  0.61399339  1
  In  In66  1  0.82498745  0.01418070  0.12669896  1
  In  In67  1  0.83158760  -0.00368895  0.62566294  1
  In  In68  1  0.84285182  0.32660659  0.13996962  1
  In  In69  1  0.85124535  0.34922214  0.59845608  1
  In  In70  1  0.83055601  0.65195481  0.13508728  1
  In  In71  1  0.82291554  0.66202541  0.62171320  1
  In  In72  1  0.16656471  0.16301011  0.49626880  1
  In  In73  1  0.49444516  0.50845921  0.00382817  1
  In  In74  1  0.33473810  0.00135431  0.24455956  1
  In  In75  1  0.33598623  0.66706691  0.75809806  1
  In  In76  1  0.33002297  0.33439396  0.75689901  1
  In  In77  1  0.66553545  0.00359364  0.24762790  1
  In  In78  1  0.67353142  0.33208532  0.74768308  1
  In  In79  1  0.84341319  0.49135582  0.00793707  1
  In  In80  1  0.33311304  -0.00017669  0.74641386  1
  In  In81  1  -0.00557019  0.01395518  0.25503558  1
  In  In82  1  0.00259484  0.65567720  0.26132615  1
  In  In83  1  0.83713603  0.84066226  -0.00887282  1
  In  In84  1  -0.00851593  0.66716947  0.74496942  1
  In  In85  1  0.50111192  0.16147543  0.49885669  1
  Cu  Cu86  1  0.16414633  0.50309138  0.24963041  1
  Cu  Cu87  1  0.33142813  0.33111683  0.00494332  1
  Cu  Cu88  1  0.66399004  0.00247648  -0.00310068  1
  Cu  Cu89  1  0.33251328  -0.00180805  0.00155137  1
  Cu  Cu90  1  0.50430299  0.17019263  0.76048924  1
  Cu  Cu91  1  0.83664413  0.18029798  0.24991854  1
  Cu  Cu92  1  0.65532958  0.66498145  0.50108755  1
  Cu  Cu93  1  0.83725689  0.16762577  0.74762558  1
  Cu  Cu94  1  0.50390774  0.81797247  0.25406528  1
  Cu  Cu95  1  0.33637209  0.34103191  0.48664157  1
  Cu  Cu96  1  0.01226408  0.66178962  0.00251767  1
  Cu  Cu97  1  0.33777066  -0.01168987  0.50669962  1
  Cu  Cu98  1  0.17868212  0.83326663  0.24718999  1
  Cu  Cu99  1  -0.00893152  0.00030147  -0.00575147  1
  Cu  Cu100  1  0.83801376  0.49218359  0.73774242  1
  Cu  Cu101  1  0.49765364  0.50001194  0.25195239  1
  Cu  Cu102  1  0.15176966  0.16374301  0.75482085  1
  Cu  Cu103  1  0.66232392  0.33105707  0.00599434  1
  Cu  Cu104  1  0.15809392  0.48668839  0.74640308  1
  Cu  Cu105  1  0.15886275  0.18506861  0.24405589  1
  Cu  Cu106  1  0.32969037  0.66366088  0.49457561  1
  Cu  Cu107  1  0.66916735  -0.00453714  0.50528918  1
  Cu  Cu108  1  0.67112261  0.67368207  -0.00104404  1
  Cu  Cu109  1  0.51216890  0.51658734  0.73920610  1
  Cu  Cu110  1  0.50062913  0.16945075  0.24326744  1
  Cu  Cu111  1  0.83097815  0.82576013  0.26062152  1
  Cu  Cu112  1  0.16105228  0.83417919  0.75514152  1
  Cu  Cu113  1  -0.00809467  0.66888635  0.50211670  1
  Cu  Cu114  1  0.00430585  -0.00309243  0.50542230  1
  Se  Se115  1  0.07460988  0.08132275  0.05184174  1
  Se  Se116  1  0.08055046  0.08123764  0.56558109  1
  Se  Se117  1  0.08054823  0.41204432  0.05005929  1
  Se  Se118  1  0.10157344  0.43031822  0.54843783  1
  Se  Se119  1  0.09090595  0.75543005  0.04954234  1
  Se  Se120  1  0.07943783  0.75125709  0.55432758  1
  Se  Se121  1  0.41702521  0.08411878  0.05192386  1
  Se  Se122  1  0.41716261  0.07172964  0.56620311  1
  Se  Se123  1  0.41205487  0.41269660  0.06471511  1
  Se  Se124  1  0.41850657  0.41879704  0.54673394  1
  Se  Se125  1  0.44290962  0.75821036  0.05392656  1
  Se  Se126  1  0.41165495  0.74513651  0.55160901  1
  Se  Se127  1  0.75411336  0.08370281  0.04530522  1
  Se  Se128  1  0.75686619  0.08147917  0.55065902  1
  Se  Se129  1  0.73963748  0.41475245  0.06535574  1
  Se  Se130  1  0.73863365  0.40336880  0.54272575  1
  Se  Se131  1  0.75710395  0.74745891  0.05985754  1
  Se  Se132  1  0.74253113  0.74777418  0.55361626  1
  Se  Se133  1  0.24631277  0.24898904  0.05838229  1
  Se  Se134  1  0.26218881  0.25841578  0.55267370  1
  Se  Se135  1  0.25583961  0.57985134  0.04799061  1
  Se  Se136  1  0.24291566  0.58050860  0.54559773  1
  Se  Se137  1  0.25119667  0.91425332  0.05656497  1
  Se  Se138  1  0.24494210  0.90919376  0.55364382  1
  Se  Se139  1  0.57503164  0.24735535  0.05459767  1
  Se  Se140  1  0.59638431  0.24884605  0.55563048  1
  Se  Se141  1  0.59928828  0.58657578  0.06053505  1
  Se  Se142  1  0.57321493  0.57431235  0.55033146  1
  Se  Se143  1  0.58770104  0.91217508  0.04984720  1
  Se  Se144  1  0.58019135  0.91351523  0.55288158  1
  Se  Se145  1  0.89340428  0.24803090  0.05511241  1
  Se  Se146  1  0.92982328  0.24440680  0.54780323  1
  Se  Se147  1  0.93004444  0.58788209  0.06560606  1
  Se  Se148  1  0.90971870  0.58256940  0.55352205  1
  Se  Se149  1  0.92114203  0.92276055  0.06514659  1
  Se  Se150  1  0.91801479  0.91445522  0.55744740  1
  Se  Se151  1  0.08348401  0.26348552  0.44286734  1
  Se  Se152  1  0.08605541  0.23167268  0.94599037  1
  Se  Se153  1  0.07551998  0.59039107  0.44349135  1
  Se  Se154  1  0.08642149  0.57307332  0.94700377  1
  Se  Se155  1  0.08903478  0.91483044  0.45189961  1
  Se  Se156  1  0.07916515  0.91498617  0.94766197  1
  Se  Se157  1  0.41682593  0.25293829  0.43380092  1
  Se  Se158  1  0.41865056  0.25109625  0.95310781  1
  Se  Se159  1  0.41441023  0.57951522  0.44231051  1
  Se  Se160  1  0.41084062  0.59815359  0.93885235  1
  Se  Se161  1  0.42293518  0.90584172  0.45424881  1
  Se  Se162  1  0.41897362  0.91931687  0.94680886  1
  Se  Se163  1  0.77861988  0.22350555  0.44883868  1
  Se  Se164  1  0.74791354  0.25178518  0.95053853  1
  Se  Se165  1  0.74267517  0.58263093  0.45052122  1
  Se  Se166  1  0.75320703  0.58685734  0.94507985  1
  Se  Se167  1  0.75409542  0.91040109  0.45247566  1
  Se  Se168  1  0.74110393  0.92192254  0.93201921  1
  Se  Se169  1  0.26413426  0.07028487  0.44177989  1
  Se  Se170  1  0.24401666  0.08234935  0.95352374  1
  Se  Se171  1  0.24749770  0.42222026  0.43763579  1
  Se  Se172  1  0.25134642  0.41295648  0.94606291  1
  Se  Se173  1  0.24333463  0.75147161  0.44682218  1
  Se  Se174  1  0.24904802  0.75367619  0.95215691  1
  Se  Se175  1  0.59650708  0.07527880  0.43644049  1
  Se  Se176  1  0.57780267  0.08862030  0.94728242  1
  Se  Se177  1  0.57895137  0.40832626  0.45256096  1
  Se  Se178  1  0.59076284  0.41787769  0.94355393  1
  Se  Se179  1  0.57330992  0.74965968  0.44721110  1
  Se  Se180  1  0.59397054  0.75561834  0.94071454  1
  Se  Se181  1  0.92584061  0.07725463  0.44557715  1
  Se  Se182  1  0.90681391  0.07948192  0.93912361  1
  Se  Se183  1  0.91237852  0.41705036  0.45417312  1
  Se  Se184  1  0.92599385  0.40351178  0.94258985  1
  Se  Se185  1  0.90635986  0.75389120  0.45208668  1
  Se  Se186  1  0.92642869  0.73620149  0.94100322  1
  Se  Se187  1  0.25125397  0.25924690  0.29728388  1
  Se  Se188  1  0.23901085  0.24204659  0.81377068  1
  Se  Se189  1  0.24927234  0.58839232  0.29909865  1
  Se  Se190  1  0.23807320  0.56948022  0.80607824  1
  Se  Se191  1  0.25084539  0.91429153  0.31295974  1
  Se  Se192  1  0.24558757  0.91328506  0.81277127  1
  Se  Se193  1  0.58484703  0.24651840  0.30060759  1
  Se  Se194  1  0.58148513  0.25526231  0.81813236  1
  Se  Se195  1  0.58365824  0.57740204  0.30906743  1
  Se  Se196  1  0.59137254  0.59709637  0.79718850  1
  Se  Se197  1  0.58050374  0.90917671  0.30949358  1
  Se  Se198  1  0.58360515  0.93095603  0.79637953  1
  Se  Se199  1  0.91660528  0.26604794  0.30465412  1
  Se  Se200  1  0.91967790  0.25090839  0.80180089  1
  Se  Se201  1  0.90619974  0.57304173  0.31781568  1
  Se  Se202  1  0.90600961  0.57517723  0.80813212  1
  Se  Se203  1  0.91406799  0.91033241  0.31390411  1
  Se  Se204  1  0.90281562  0.89318936  0.80113259  1
  Se  Se205  1  0.08800547  0.10521319  0.31302026  1
  Se  Se206  1  0.07395799  0.07250530  0.80484314  1
  Se  Se207  1  0.07546236  0.42251581  0.30026490  1
  Se  Se208  1  0.07764123  0.40566279  0.80293080  1
  Se  Se209  1  0.09123129  0.76051035  0.30950226  1
  Se  Se210  1  0.08910082  0.74297536  0.81193348  1
  Se  Se211  1  0.42682818  0.08832981  0.30882328  1
  Se  Se212  1  0.41433111  0.09242123  0.81318893  1
  Se  Se213  1  0.41275700  0.41358634  0.30089005  1
  Se  Se214  1  0.43132019  0.43513691  0.80221367  1
  Se  Se215  1  0.41093375  0.74201932  0.30419914  1
  Se  Se216  1  0.42621012  0.76526956  0.80730944  1
  Se  Se217  1  0.75985611  0.09082789  0.30728048  1
  Se  Se218  1  0.74829847  0.08904835  0.80029580  1
  Se  Se219  1  0.72476914  0.39166830  0.31842794  1
  Se  Se220  1  0.75995829  0.42500641  0.81168392  1
  Se  Se221  1  0.74366490  0.74554801  0.30923591  1
  Se  Se222  1  0.74479409  0.74730915  0.79167700  1
  Se  Se223  1  0.23641040  0.09195848  0.19154027  1
  Se  Se224  1  0.23817268  0.09436955  0.69108059  1
  Se  Se225  1  0.24982823  0.41886791  0.19798488  1
  Se  Se226  1  0.24751998  0.41696692  0.68557640  1
  Se  Se227  1  0.25487742  0.74772627  0.19184005  1
  Se  Se228  1  0.23904971  0.75100464  0.69534306  1
  Se  Se229  1  0.57569131  0.08549598  0.18166506  1
  Se  Se230  1  0.58553156  0.09522563  0.70024204  1
  Se  Se231  1  0.58379932  0.41541904  0.20130244  1
  Se  Se232  1  0.58596143  0.42412279  0.68538239  1
  Se  Se233  1  0.59168500  0.74075423  0.19942336  1
  Se  Se234  1  0.58529276  0.74723383  0.69593846  1
  Se  Se235  1  0.91686145  0.10243598  0.18680011  1
  Se  Se236  1  0.91689156  0.07569204  0.69756802  1
  Se  Se237  1  0.88680526  0.44836965  0.19238077  1
  Se  Se238  1  0.92036154  0.40952212  0.68639655  1
  Se  Se239  1  0.91701378  0.75255520  0.19765188  1
  Se  Se240  1  0.90398414  0.75814715  0.68706013  1
  Se  Se241  1  0.07298739  0.26475094  0.19168451  1
  Se  Se242  1  0.07948228  0.25440869  0.69921351  1
  Se  Se243  1  0.08716322  0.58290324  0.18405611  1
  Se  Se244  1  0.08460826  0.57562773  0.68801668  1
  Se  Se245  1  0.08778874  0.91710606  0.19769563  1
  Se  Se246  1  0.07870125  0.91892504  0.70368889  1
  Se  Se247  1  0.41038776  0.25239643  0.19706622  1
  Se  Se248  1  0.42898644  0.25085736  0.69542615  1
  Se  Se249  1  0.41684788  0.58411901  0.19664754  1
  Se  Se250  1  0.41708492  0.58614156  0.68447728  1
  Se  Se251  1  0.42602442  0.90336822  0.19349852  1
  Se  Se252  1  0.42051228  0.90351447  0.69183606  1
  Se  Se253  1  0.74016158  0.24941655  0.19599416  1
  Se  Se254  1  0.76622221  0.25269732  0.68358673  1
  Se  Se255  1  0.74398882  0.59577265  0.21176092  1
  Se  Se256  1  0.74800001  0.57473644  0.69278147  1
  Se  Se257  1  0.76003636  0.90799671  0.19346559  1
  Se  Se258  1  0.72368462  0.94008554  0.68839427  1
