# generated using pymatgen
data_In86Cu29Se144
_symmetry_space_group_name_H-M   'P 1'
_cell_length_a   17.58259342
_cell_length_b   17.58417454
_cell_length_c   23.44863198
_cell_angle_alpha   89.98081214
_cell_angle_beta   90.00418769
_cell_angle_gamma   90.00941817
_symmetry_Int_Tables_number   1
_chemical_formula_structural   In86Cu29Se144
_chemical_formula_sum   'In86 Cu29 Se144'
_cell_volume   7249.73944973
_cell_formula_units_Z   1
loop_
 _symmetry_equiv_pos_site_id
 _symmetry_equiv_pos_as_xyz
  1  'x, y, z'
loop_
 _atom_site_type_symbol
 _atom_site_label
 _atom_site_symmetry_multiplicity
 _atom_site_fract_x
 _atom_site_fract_y
 _atom_site_fract_z
 _atom_site_occupancy
  In  In0  1  -0.00666536  0.16361694  0.11756547  1
  In  In1  1  0.00549778  0.16108485  0.62853385  1
  In  In2  1  -0.01001188  0.51110848  0.13108616  1
  In  In3  1  -0.00439932  0.49805509  0.62509694  1
  In  In4  1  -0.00887599  0.83566379  0.13832706  1
  In  In5  1  0.00147528  0.83201625  0.62960544  1
  In  In6  1  0.32497293  0.16267735  0.11861179  1
  In  In7  1  0.32359032  0.17653388  0.63319761  1
  In  In8  1  0.33230675  0.49067930  0.11890699  1
  In  In9  1  0.33298725  0.49545827  0.62555692  1
  In  In10  1  0.34446084  0.84130617  0.12657659  1
  In  In11  1  0.34687297  0.82937666  0.62579875  1
  In  In12  1  0.66884441  0.16547344  0.12537884  1
  In  In13  1  0.66069310  0.17341909  0.63582721  1
  In  In14  1  0.66352697  0.49265090  0.11845855  1
  In  In15  1  0.67133738  0.49557484  0.62723576  1
  In  In16  1  0.68059070  0.83859683  0.13034961  1
  In  In17  1  0.66031501  0.83964385  0.62829858  1
  In  In18  1  0.16868204  0.00204646  0.37226740  1
  In  In19  1  0.17504659  0.00877273  0.86826889  1
  In  In20  1  0.16352733  0.33182966  0.38762961  1
  In  In21  1  0.15466425  0.32319123  0.86633231  1
  In  In22  1  0.15416503  0.66167150  0.37924045  1
  In  In23  1  0.16366547  0.67365257  0.87027212  1
  In  In24  1  0.49600707  0.00226832  0.37463406  1
  In  In25  1  0.50167031  0.00324161  0.86761274  1
  In  In26  1  0.51341423  0.33779808  0.37667174  1
  In  In27  1  0.52953326  0.36888496  0.83882061  1
  In  In28  1  0.51238283  0.66086785  0.38895794  1
  In  In29  1  0.50059664  0.62605688  0.87166789  1
  In  In30  1  0.83041988  -0.00477850  0.36161850  1
  In  In31  1  0.84343668  0.00917933  0.86945531  1
  In  In32  1  0.82590837  0.34843799  0.37352207  1
  In  In33  1  0.83143914  0.33095361  0.88054123  1
  In  In34  1  0.83506987  0.65519394  0.37333136  1
  In  In35  1  0.82166609  0.65504203  0.86464684  1
  In  In36  1  0.01044837  0.16541043  0.37682629  1
  In  In37  1  0.00000365  0.16786761  0.87792551  1
  In  In38  1  -0.01808309  0.51968836  0.40184753  1
  In  In39  1  -0.01227793  0.48746347  0.86402243  1
  In  In40  1  -0.00751766  0.82923251  0.36229009  1
  In  In41  1  -0.00428564  0.83148302  0.86479731  1
  In  In42  1  0.33049727  0.15448777  0.37650762  1
  In  In43  1  0.33099880  0.16631047  0.87038893  1
  In  In44  1  0.33592631  0.49597514  0.38621589  1
  In  In45  1  0.35554458  0.49309449  0.87081737  1
  In  In46  1  0.33525385  0.84868152  0.37807310  1
  In  In47  1  0.32559635  0.83091184  0.87063814  1
  In  In48  1  0.67106594  0.17354952  0.36781156  1
  In  In49  1  0.68374391  0.18083401  0.86872219  1
  In  In50  1  0.67880785  0.48496539  0.39434486  1
  In  In51  1  0.67190688  0.49877368  0.87391698  1
  In  In52  1  0.65655379  0.83118611  0.37752221  1
  In  In53  1  0.66825699  0.83219028  0.86816571  1
  In  In54  1  0.15800219  0.00719092  0.12977569  1
  In  In55  1  0.15838123  0.00968606  0.62951088  1
  In  In56  1  0.17643499  0.32391574  0.11696006  1
  In  In57  1  0.16659324  0.32904653  0.62707894  1
  In  In58  1  0.14943936  0.65577983  0.12780222  1
  In  In59  1  0.15977228  0.65164430  0.62005573  1
  In  In60  1  0.50326276  -0.00080485  0.13343409  1
  In  In61  1  0.50165829  -0.00796736  0.63271894  1
  In  In62  1  0.50378794  0.34548502  0.11748476  1
  In  In63  1  0.50107580  0.34187695  0.63449535  1
  In  In64  1  0.50942137  0.66110211  0.12195838  1
  In  In65  1  0.50227517  0.66889319  0.62387836  1
  In  In66  1  0.82592383  0.00739165  0.13564048  1
  In  In67  1  0.83074811  0.00462158  0.63208114  1
  In  In68  1  0.82262574  0.32904671  0.11310538  1
  In  In69  1  0.81908238  0.35153040  0.63338211  1
  In  In70  1  0.84160169  0.66529499  0.12416252  1
  In  In71  1  0.84797467  0.64874879  0.62857019  1
  In  In72  1  0.33107736  0.66499985  0.74666454  1
  In  In73  1  0.16950466  0.82816435  0.50333756  1
  In  In74  1  0.83623875  0.83107996  0.00672027  1
  In  In75  1  0.49557440  0.17794579  0.51086219  1
  In  In76  1  0.33101382  0.67530083  0.25139025  1
  In  In77  1  0.50265179  0.82578504  0.00370557  1
  In  In78  1  0.67089580  0.67091329  0.25083871  1
  In  In79  1  0.83678901  0.17486540  0.49437839  1
  In  In80  1  0.50417402  0.17388399  -0.01020249  1
  In  In81  1  0.33575521  0.32851373  0.24039084  1
  In  In82  1  0.16391409  0.49635998  -0.00007821  1
  In  In83  1  0.82806075  0.82816967  0.49185040  1
  In  In84  1  -0.00358464  0.33323993  0.25265109  1
  In  In85  1  0.16491409  0.83412302  -0.00666937  1
  Cu  Cu86  1  0.00271565  0.01033740  -0.00033514  1
  Cu  Cu87  1  0.83293348  0.16744715  0.24312184  1
  Cu  Cu88  1  0.84074819  0.16887930  0.75218820  1
  Cu  Cu89  1  0.16954344  0.16210106  0.24968049  1
  Cu  Cu90  1  0.16260435  0.16435945  0.75060758  1
  Cu  Cu91  1  0.16235853  0.83832174  0.74848356  1
  Cu  Cu92  1  -0.00272211  0.66336467  -0.00143632  1
  Cu  Cu93  1  0.49736809  0.84333602  0.25580732  1
  Cu  Cu94  1  0.33244427  0.00320202  -0.00579580  1
  Cu  Cu95  1  0.66705930  0.66768862  0.50767303  1
  Cu  Cu96  1  0.33739789  0.33145608  -0.01006209  1
  Cu  Cu97  1  0.50485490  0.49941522  0.24813299  1
  Cu  Cu98  1  0.66036388  0.65360497  -0.00700378  1
  Cu  Cu99  1  0.65834218  0.00867128  0.50609253  1
  Cu  Cu100  1  0.33101114  0.33073017  0.50824188  1
  Cu  Cu101  1  0.49670739  0.15948086  0.75015463  1
  Cu  Cu102  1  0.50646723  0.16548032  0.25149611  1
  Cu  Cu103  1  0.33889872  0.66449117  0.50460033  1
  Cu  Cu104  1  0.00191217  -0.00580279  0.50206705  1
  Cu  Cu105  1  0.83599187  0.49860986  0.75059453  1
  Cu  Cu106  1  0.33297931  0.00276288  0.49797853  1
  Cu  Cu107  1  0.16939532  0.83563682  0.25421984  1
  Cu  Cu108  1  0.16404505  0.49681373  0.74411786  1
  Cu  Cu109  1  0.82993098  0.83385919  0.74515252  1
  Cu  Cu110  1  0.67830448  0.00543681  0.00142302  1
  Cu  Cu111  1  0.00112970  0.33298370  0.50718280  1
  Cu  Cu112  1  0.15546082  0.50198589  0.25639742  1
  Cu  Cu113  1  -0.00098228  0.33315537  -0.00566611  1
  Cu  Cu114  1  0.49929246  0.83128162  0.75089767  1
  Se  Se115  1  0.09050198  0.08911401  0.05279365  1
  Se  Se116  1  0.08171337  0.08269329  0.55201028  1
  Se  Se117  1  0.07332641  0.40996213  0.06349924  1
  Se  Se118  1  0.08564614  0.41558683  0.55945970  1
  Se  Se119  1  0.07165890  0.74932581  0.05756359  1
  Se  Se120  1  0.07068662  0.74053327  0.55494368  1
  Se  Se121  1  0.42058949  0.07622622  0.05425664  1
  Se  Se122  1  0.40911256  0.07906144  0.56471036  1
  Se  Se123  1  0.41455004  0.41652480  0.04680432  1
  Se  Se124  1  0.41810217  0.41220857  0.55825961  1
  Se  Se125  1  0.40607113  0.73803022  0.05993268  1
  Se  Se126  1  0.42240609  0.75210506  0.55176837  1
  Se  Se127  1  0.75790775  0.08682384  0.05725236  1
  Se  Se128  1  0.74485044  0.08774866  0.55967605  1
  Se  Se129  1  0.75735375  0.42866118  0.04849130  1
  Se  Se130  1  0.75750074  0.42629824  0.55233974  1
  Se  Se131  1  0.73574252  0.73742072  0.05612347  1
  Se  Se132  1  0.75053082  0.74703785  0.56555294  1
  Se  Se133  1  0.25552522  0.24711623  0.04372207  1
  Se  Se134  1  0.24523067  0.24391403  0.55443674  1
  Se  Se135  1  0.25032747  0.59172430  0.06002183  1
  Se  Se136  1  0.25439484  0.58080519  0.55501547  1
  Se  Se137  1  0.25471375  0.92261012  0.05670666  1
  Se  Se138  1  0.25596407  0.92224830  0.56230951  1
  Se  Se139  1  0.59287865  0.25846096  0.05368742  1
  Se  Se140  1  0.59501013  0.26482983  0.56088922  1
  Se  Se141  1  0.57636619  0.57478906  0.04959584  1
  Se  Se142  1  0.58561362  0.58166818  0.55954449  1
  Se  Se143  1  0.59484315  0.92374673  0.05810663  1
  Se  Se144  1  0.57935904  0.91898369  0.55537077  1
  Se  Se145  1  0.91636874  0.25031797  0.05002571  1
  Se  Se146  1  0.91725022  0.25491027  0.56638945  1
  Se  Se147  1  0.91411045  0.58021506  0.05104351  1
  Se  Se148  1  0.91912444  0.57734117  0.55002257  1
  Se  Se149  1  0.92542785  0.92778076  0.06102386  1
  Se  Se150  1  0.91471088  0.91910067  0.55822389  1
  Se  Se151  1  0.08050838  0.24531065  0.45321212  1
  Se  Se152  1  0.08650994  0.24909674  0.94741436  1
  Se  Se153  1  0.09983589  0.57069454  0.45362046  1
  Se  Se154  1  0.07640308  0.58537651  0.93671688  1
  Se  Se155  1  0.07862332  0.91366870  0.43968640  1
  Se  Se156  1  0.07320031  0.92486174  0.93664599  1
  Se  Se157  1  0.40778422  0.25706259  0.43891614  1
  Se  Se158  1  0.42075324  0.26176795  0.92634235  1
  Se  Se159  1  0.42119800  0.57953780  0.45128278  1
  Se  Se160  1  0.40370320  0.58699097  0.94704468  1
  Se  Se161  1  0.42165805  0.92050312  0.44989352  1
  Se  Se162  1  0.41385614  0.91794149  0.94069743  1
  Se  Se163  1  0.73718167  0.26252845  0.44417270  1
  Se  Se164  1  0.75084791  0.24812920  0.95044449  1
  Se  Se165  1  0.75051745  0.59034397  0.44996390  1
  Se  Se166  1  0.75625936  0.57947485  0.94565984  1
  Se  Se167  1  0.73949849  0.93212534  0.44265186  1
  Se  Se168  1  0.75061924  0.91847072  0.94104200  1
  Se  Se169  1  0.24402702  0.08245017  0.44800411  1
  Se  Se170  1  0.24904735  0.08741114  0.94397123  1
  Se  Se171  1  0.24993156  0.41497333  0.45237409  1
  Se  Se172  1  0.25067036  0.41194702  0.93378159  1
  Se  Se173  1  0.26089607  0.74183138  0.43937699  1
  Se  Se174  1  0.25929107  0.73726762  0.94467140  1
  Se  Se175  1  0.58417314  0.09186769  0.44358771  1
  Se  Se176  1  0.59578216  0.07642508  0.93757598  1
  Se  Se177  1  0.56695460  0.42906215  0.45126953  1
  Se  Se178  1  0.57353442  0.42198959  0.93457231  1
  Se  Se179  1  0.58560993  0.75482686  0.45526738  1
  Se  Se180  1  0.58477417  0.74055590  0.93539491  1
  Se  Se181  1  0.91969079  0.07119220  0.43992489  1
  Se  Se182  1  0.91292723  0.08741090  0.94748986  1
  Se  Se183  1  0.91343095  0.40748394  0.45099429  1
  Se  Se184  1  0.91663578  0.42054417  0.94609197  1
  Se  Se185  1  0.92769165  0.74173945  0.44071477  1
  Se  Se186  1  0.91738869  0.74400451  0.93786280  1
  Se  Se187  1  0.24520320  0.24845189  0.30844639  1
  Se  Se188  1  0.24836160  0.24882128  0.80083412  1
  Se  Se189  1  0.24979716  0.57513422  0.30982628  1
  Se  Se190  1  0.24354008  0.57338462  0.80938875  1
  Se  Se191  1  0.25391580  0.92014387  0.30372198  1
  Se  Se192  1  0.25052040  0.91623876  0.80145539  1
  Se  Se193  1  0.58421551  0.25590777  0.30158549  1
  Se  Se194  1  0.58415278  0.24220068  0.80002312  1
  Se  Se195  1  0.58044260  0.58045595  0.30929121  1
  Se  Se196  1  0.60329474  0.59101408  0.80123412  1
  Se  Se197  1  0.58559338  0.92211183  0.30822023  1
  Se  Se198  1  0.58381099  0.91646487  0.80256280  1
  Se  Se199  1  0.90594811  0.24137718  0.31377806  1
  Se  Se200  1  0.91881729  0.25295798  0.80978752  1
  Se  Se201  1  0.91940696  0.57028173  0.31018544  1
  Se  Se202  1  0.92102460  0.58791265  0.79940133  1
  Se  Se203  1  0.92681125  0.92663132  0.29832472  1
  Se  Se204  1  0.91359408  0.91714173  0.79973020  1
  Se  Se205  1  0.08283692  0.08259086  0.30318266  1
  Se  Se206  1  0.07847827  0.08283062  0.80587986  1
  Se  Se207  1  0.08324983  0.41812234  0.31743011  1
  Se  Se208  1  0.08039074  0.41345231  0.79835225  1
  Se  Se209  1  0.08858043  0.74712887  0.30394453  1
  Se  Se210  1  0.08179496  0.74908360  0.79855206  1
  Se  Se211  1  0.41783357  0.08691577  0.30354082  1
  Se  Se212  1  0.41010559  0.07833966  0.80208233  1
  Se  Se213  1  0.41769764  0.42105571  0.30514001  1
  Se  Se214  1  0.40383179  0.40775638  0.79039715  1
  Se  Se215  1  0.42691362  0.75359879  0.31557038  1
  Se  Se216  1  0.42440207  0.74701604  0.81278033  1
  Se  Se217  1  0.74832362  0.08662923  0.30002057  1
  Se  Se218  1  0.75244932  0.08398388  0.80190301  1
  Se  Se219  1  0.73948576  0.42370579  0.30599218  1
  Se  Se220  1  0.75595285  0.41411432  0.80637066  1
  Se  Se221  1  0.75886454  0.76016207  0.31310051  1
  Se  Se222  1  0.74852508  0.74949254  0.79931762  1
  Se  Se223  1  0.25468013  0.08228968  0.19460379  1
  Se  Se224  1  0.24928364  0.08152383  0.69850846  1
  Se  Se225  1  0.23454493  0.42499057  0.19257104  1
  Se  Se226  1  0.25063382  0.41385681  0.69496939  1
  Se  Se227  1  0.23951005  0.75795699  0.18522361  1
  Se  Se228  1  0.23867536  0.75503438  0.68592213  1
  Se  Se229  1  0.58968606  0.08222442  0.19688088  1
  Se  Se230  1  0.58442002  0.07828746  0.69844688  1
  Se  Se231  1  0.58434950  0.41507474  0.19387547  1
  Se  Se232  1  0.59569714  0.41197237  0.70061314  1
  Se  Se233  1  0.57303633  0.76190688  0.19238367  1
  Se  Se234  1  0.58167296  0.75034287  0.69540614  1
  Se  Se235  1  0.92385093  0.08636176  0.19605987  1
  Se  Se236  1  0.92002690  0.08187454  0.69804149  1
  Se  Se237  1  0.90552333  0.41544867  0.18984826  1
  Se  Se238  1  0.92094368  0.41386677  0.69907708  1
  Se  Se239  1  0.90918666  0.74699868  0.19900732  1
  Se  Se240  1  0.91522905  0.74945768  0.69446149  1
  Se  Se241  1  0.09091919  0.24581188  0.19064888  1
  Se  Se242  1  0.08119706  0.24965497  0.69731340  1
  Se  Se243  1  0.07210748  0.58633779  0.20515670  1
  Se  Se244  1  0.07917563  0.58304041  0.69610717  1
  Se  Se245  1  0.08549760  0.91676591  0.19800000  1
  Se  Se246  1  0.07792882  0.92178130  0.69612877  1
  Se  Se247  1  0.42910151  0.23874466  0.18273971  1
  Se  Se248  1  0.41986008  0.24847874  0.69668281  1
  Se  Se249  1  0.41809948  0.57751520  0.19157663  1
  Se  Se250  1  0.42644993  0.57503426  0.69449746  1
  Se  Se251  1  0.41272329  0.92388419  0.20161210  1
  Se  Se252  1  0.41190416  0.91459502  0.70149573  1
  Se  Se253  1  0.75045499  0.25305094  0.19229667  1
  Se  Se254  1  0.75427878  0.25023165  0.69912361  1
  Se  Se255  1  0.75149926  0.57809870  0.18834751  1
  Se  Se256  1  0.75262001  0.58236193  0.69681485  1
  Se  Se257  1  0.75522426  0.91481043  0.20306068  1
  Se  Se258  1  0.74543811  0.92065886  0.69655146  1
