# generated using pymatgen
data_In86Cu29Se144
_symmetry_space_group_name_H-M   'P 1'
_cell_length_a   17.58077340
_cell_length_b   17.57746352
_cell_length_c   23.43321441
_cell_angle_alpha   89.95081062
_cell_angle_beta   90.01683616
_cell_angle_gamma   89.99229544
_symmetry_Int_Tables_number   1
_chemical_formula_structural   In86Cu29Se144
_chemical_formula_sum   'In86 Cu29 Se144'
_cell_volume   7241.45548326
_cell_formula_units_Z   1
loop_
 _symmetry_equiv_pos_site_id
 _symmetry_equiv_pos_as_xyz
  1  'x, y, z'
loop_
 _atom_site_type_symbol
 _atom_site_label
 _atom_site_symmetry_multiplicity
 _atom_site_fract_x
 _atom_site_fract_y
 _atom_site_fract_z
 _atom_site_occupancy
  In  In0  1  -0.00595009  0.17896277  0.12711111  1
  In  In1  1  -0.00101660  0.14115613  0.62469465  1
  In  In2  1  -0.00847520  0.49009105  0.11539522  1
  In  In3  1  0.00936651  0.50580664  0.63198645  1
  In  In4  1  0.00224710  0.83073516  0.11810061  1
  In  In5  1  -0.00678080  0.83733234  0.62718256  1
  In  In6  1  0.33997031  0.14899099  0.12273838  1
  In  In7  1  0.32647605  0.15108474  0.60783076  1
  In  In8  1  0.34522991  0.51286833  0.11835672  1
  In  In9  1  0.34135786  0.49183486  0.62526408  1
  In  In10  1  0.33499662  0.83388319  0.12032028  1
  In  In11  1  0.33853811  0.86532497  0.61653465  1
  In  In12  1  0.67124508  0.16782618  0.11810561  1
  In  In13  1  0.64767234  0.16581502  0.64812967  1
  In  In14  1  0.65884961  0.49084922  0.11751122  1
  In  In15  1  0.64768518  0.49923597  0.63274150  1
  In  In16  1  0.66938826  0.84310912  0.11255518  1
  In  In17  1  0.67554967  0.83736724  0.62578857  1
  In  In18  1  0.17553909  -0.00803974  0.40211547  1
  In  In19  1  0.15564790  -0.00952618  0.86580138  1
  In  In20  1  0.16007126  0.33557719  0.37194739  1
  In  In21  1  0.17963435  0.33522239  0.87823791  1
  In  In22  1  0.17844055  0.66961612  0.37527527  1
  In  In23  1  0.15578975  0.67739012  0.87881012  1
  In  In24  1  0.51548679  0.00152781  0.37393724  1
  In  In25  1  0.49906079  0.00729164  0.86770249  1
  In  In26  1  0.50971612  0.32265125  0.37835307  1
  In  In27  1  0.51054257  0.32788180  0.87652832  1
  In  In28  1  0.48081765  0.67282265  0.37557750  1
  In  In29  1  0.49977237  0.66562591  0.88057778  1
  In  In30  1  0.82565787  0.00686904  0.37876270  1
  In  In31  1  0.83064295  -0.00138137  0.88334618  1
  In  In32  1  0.83290107  0.32416881  0.36266981  1
  In  In33  1  0.81651744  0.34399755  0.88206961  1
  In  In34  1  0.84044992  0.67094307  0.37323690  1
  In  In35  1  0.83642014  0.66924577  0.88011168  1
  In  In36  1  -0.00451678  0.16814462  0.37904597  1
  In  In37  1  -0.00293255  0.14867827  0.87154351  1
  In  In38  1  0.01251640  0.49326166  0.37063198  1
  In  In39  1  -0.01282117  0.51285318  0.88100528  1
  In  In40  1  -0.00079337  0.83901295  0.38903476  1
  In  In41  1  0.00200735  0.83634983  0.87683829  1
  In  In42  1  0.34293954  0.15514006  0.39020565  1
  In  In43  1  0.35554688  0.16098602  0.87051724  1
  In  In44  1  0.33698495  0.52077290  0.37323378  1
  In  In45  1  0.33908218  0.49279298  0.88527126  1
  In  In46  1  0.33251555  0.82253431  0.37990086  1
  In  In47  1  0.32720772  0.83718888  0.87021074  1
  In  In48  1  0.66637830  0.16344410  0.36784680  1
  In  In49  1  0.65510315  0.16464466  0.87556598  1
  In  In50  1  0.66594125  0.48281781  0.37180121  1
  In  In51  1  0.66799993  0.50000025  0.87893519  1
  In  In52  1  0.66059879  0.85209214  0.37452712  1
  In  In53  1  0.64746407  0.86801082  0.89384072  1
  In  In54  1  0.17744649  -0.00844422  0.12156542  1
  In  In55  1  0.16080892  -0.00452626  0.61665150  1
  In  In56  1  0.15002368  0.32981826  0.12740436  1
  In  In57  1  0.18132954  0.33261241  0.62334650  1
  In  In58  1  0.18277943  0.67603459  0.12112343  1
  In  In59  1  0.15381970  0.66426521  0.63061249  1
  In  In60  1  0.52842137  0.02321640  0.09323530  1
  In  In61  1  0.47405825  0.01814436  0.66341751  1
  In  In62  1  0.51242786  0.34193082  0.12153793  1
  In  In63  1  0.50600256  0.33317820  0.62372537  1
  In  In64  1  0.49362263  0.66130131  0.11860854  1
  In  In65  1  0.50192798  0.66616791  0.62402164  1
  In  In66  1  0.81347228  -0.01166055  0.10460240  1
  In  In67  1  0.83855865  -0.00412947  0.63729936  1
  In  In68  1  0.83074043  0.32973202  0.11963285  1
  In  In69  1  0.81940314  0.31920668  0.63041715  1
  In  In70  1  0.83804884  0.66712153  0.11355994  1
  In  In71  1  0.82847817  0.68901411  0.62855520  1
  In  In72  1  0.82990761  0.50231828  0.49465435  1
  In  In73  1  0.00069218  0.65985318  0.24786265  1
  In  In74  1  0.66229703  0.66436520  0.24150731  1
  In  In75  1  0.49797173  0.84214226  0.50397333  1
  In  In76  1  -0.00165400  0.33296060  0.74787703  1
  In  In77  1  0.33274004  0.67326075  0.74819409  1
  In  In78  1  0.34198893  -0.01323487  0.25334790  1
  In  In79  1  0.33948712  0.32813806  0.75434155  1
  In  In80  1  0.33438344  0.33533162  0.25033273  1
  In  In81  1  0.17326862  0.50315787  0.49606957  1
  In  In82  1  0.16843007  0.16562774  0.00022725  1
  In  In83  1  0.67101847  0.67606350  0.75812021  1
  In  In84  1  0.83468538  0.15857329  0.50388089  1
  In  In85  1  -0.00543642  0.00932674  0.25529568  1
  Cu  Cu86  1  0.33588614  0.33532336  0.00289226  1
  Cu  Cu87  1  0.33415626  -0.00472761  -0.00775010  1
  Cu  Cu88  1  0.16302791  0.50956863  0.75898362  1
  Cu  Cu89  1  0.16380005  0.83883497  0.74692648  1
  Cu  Cu90  1  0.17058795  0.15549577  0.74095386  1
  Cu  Cu91  1  0.66738538  0.00341907  0.50381447  1
  Cu  Cu92  1  0.66234864  0.32964156  0.50376121  1
  Cu  Cu93  1  0.16567769  0.83080000  0.24927304  1
  Cu  Cu94  1  0.66500007  0.33115791  -0.00132523  1
  Cu  Cu95  1  0.49892579  0.50366365  0.24486094  1
  Cu  Cu96  1  -0.00378916  0.33220663  -0.00194318  1
  Cu  Cu97  1  0.67055835  0.66839576  -0.00259226  1
  Cu  Cu98  1  0.83237296  0.48546592  0.24015946  1
  Cu  Cu99  1  0.34424227  0.33285621  0.50030670  1
  Cu  Cu100  1  -0.00898449  0.67301914  0.50460490  1
  Cu  Cu101  1  0.00329276  0.32711898  0.49757762  1
  Cu  Cu102  1  0.66173061  0.66901464  0.50446801  1
  Cu  Cu103  1  0.82999368  0.50432319  0.75697294  1
  Cu  Cu104  1  0.49846678  0.84378814  0.24614705  1
  Cu  Cu105  1  0.00096285  -0.00255988  -0.00284903  1
  Cu  Cu106  1  0.16545438  0.16426681  0.25808717  1
  Cu  Cu107  1  0.16550643  0.49813205  0.24763987  1
  Cu  Cu108  1  0.82794986  0.16795023  0.75742123  1
  Cu  Cu109  1  0.01123760  0.66480265  -0.00078419  1
  Cu  Cu110  1  0.33095120  0.66746451  -0.00487542  1
  Cu  Cu111  1  0.82925340  0.16425116  0.24371313  1
  Cu  Cu112  1  0.82367398  0.83946272  0.24477598  1
  Cu  Cu113  1  0.83870458  0.83567052  0.75936754  1
  Cu  Cu114  1  0.51089375  0.16839367  0.24392619  1
  Se  Se115  1  0.07754938  0.07698646  0.06292779  1
  Se  Se116  1  0.09325576  0.09613396  0.55036340  1
  Se  Se117  1  0.08442128  0.41191531  0.04998556  1
  Se  Se118  1  0.07905504  0.41286077  0.55742748  1
  Se  Se119  1  0.09119127  0.75121532  0.05374179  1
  Se  Se120  1  0.07681492  0.74825885  0.56069637  1
  Se  Se121  1  0.41413303  0.08759146  0.04050054  1
  Se  Se122  1  0.43468744  0.06872042  0.56527209  1
  Se  Se123  1  0.42132429  0.41870400  0.05509601  1
  Se  Se124  1  0.42436670  0.41779334  0.55363657  1
  Se  Se125  1  0.41452989  0.74902109  0.05117036  1
  Se  Se126  1  0.40780086  0.74885265  0.56118756  1
  Se  Se127  1  0.74272967  0.08506697  0.04312094  1
  Se  Se128  1  0.74192967  0.08272446  0.56984550  1
  Se  Se129  1  0.75046497  0.41610816  0.05089866  1
  Se  Se130  1  0.74472520  0.41297206  0.55982826  1
  Se  Se131  1  0.75363979  0.75238527  0.05036916  1
  Se  Se132  1  0.74835602  0.75472852  0.55012484  1
  Se  Se133  1  0.25733610  0.25423741  0.06471919  1
  Se  Se134  1  0.25243561  0.25382813  0.54838857  1
  Se  Se135  1  0.24997721  0.58280391  0.05113494  1
  Se  Se136  1  0.25469534  0.58737126  0.56484436  1
  Se  Se137  1  0.25139275  0.91380141  0.04782119  1
  Se  Se138  1  0.23953817  0.91070829  0.54486241  1
  Se  Se139  1  0.57965934  0.24945848  0.05228173  1
  Se  Se140  1  0.58972126  0.24127515  0.56153108  1
  Se  Se141  1  0.58621692  0.58611061  0.05281992  1
  Se  Se142  1  0.58218919  0.58201370  0.55474323  1
  Se  Se143  1  0.56823292  0.89928989  0.04449611  1
  Se  Se144  1  0.58575066  0.92828077  0.56595177  1
  Se  Se145  1  0.91411134  0.24620691  0.04962211  1
  Se  Se146  1  0.92403744  0.25500557  0.56311189  1
  Se  Se147  1  0.92031038  0.58257098  0.04777405  1
  Se  Se148  1  0.91644015  0.58624288  0.56285731  1
  Se  Se149  1  0.91888992  0.91244383  0.05066012  1
  Se  Se150  1  0.90530579  0.91650339  0.56005537  1
  Se  Se151  1  0.08722709  0.24831822  0.44290051  1
  Se  Se152  1  0.07669747  0.25249845  0.93662937  1
  Se  Se153  1  0.07149384  0.59324876  0.44257554  1
  Se  Se154  1  0.08945731  0.57784155  0.94500205  1
  Se  Se155  1  0.08638692  0.90643900  0.45992132  1
  Se  Se156  1  0.08898738  0.91623057  0.94726802  1
  Se  Se157  1  0.42782977  0.24559865  0.45027179  1
  Se  Se158  1  0.41424701  0.25447396  0.94384621  1
  Se  Se159  1  0.41644033  0.58722711  0.44981678  1
  Se  Se160  1  0.41994979  0.58151892  0.95006464  1
  Se  Se161  1  0.41262731  0.92828825  0.43620892  1
  Se  Se162  1  0.41721482  0.91726326  0.93523291  1
  Se  Se163  1  0.74889795  0.25525040  0.44283902  1
  Se  Se164  1  0.74472673  0.24580849  0.94412112  1
  Se  Se165  1  0.73697823  0.59296934  0.43594060  1
  Se  Se166  1  0.75329121  0.58241242  0.94589247  1
  Se  Se167  1  0.74783233  0.92011169  0.44800586  1
  Se  Se168  1  0.76217226  0.90800177  0.95470009  1
  Se  Se169  1  0.25320662  0.08805088  0.45949403  1
  Se  Se170  1  0.25187054  0.07916845  0.93367852  1
  Se  Se171  1  0.26351743  0.41064474  0.43608828  1
  Se  Se172  1  0.24810356  0.41750872  0.95345290  1
  Se  Se173  1  0.24861165  0.74734623  0.45024013  1
  Se  Se174  1  0.24983925  0.75368698  0.94248444  1
  Se  Se175  1  0.59001161  0.08771272  0.44477607  1
  Se  Se176  1  0.57770882  0.07865632  0.94549621  1
  Se  Se177  1  0.58360064  0.41479510  0.44770093  1
  Se  Se178  1  0.58242662  0.41804447  0.94678621  1
  Se  Se179  1  0.58561069  0.74961784  0.43932235  1
  Se  Se180  1  0.58615834  0.75007936  0.94459571  1
  Se  Se181  1  0.92881362  0.06790627  0.44794301  1
  Se  Se182  1  0.91733907  0.08554340  0.95049441  1
  Se  Se183  1  0.92255125  0.40707689  0.43848791  1
  Se  Se184  1  0.91338500  0.41796370  0.94562984  1
  Se  Se185  1  0.90723277  0.75285255  0.44868038  1
  Se  Se186  1  0.92556569  0.74844283  0.94704142  1
  Se  Se187  1  0.25411097  0.23978105  0.31426771  1
  Se  Se188  1  0.24208989  0.23463453  0.80779909  1
  Se  Se189  1  0.24585874  0.58477452  0.29986350  1
  Se  Se190  1  0.25151552  0.58208908  0.81617983  1
  Se  Se191  1  0.23912960  0.91228331  0.31368418  1
  Se  Se192  1  0.25033450  0.92070886  0.79813625  1
  Se  Se193  1  0.58876905  0.25345149  0.30014534  1
  Se  Se194  1  0.57046638  0.23897074  0.80249018  1
  Se  Se195  1  0.57741166  0.58104232  0.31063138  1
  Se  Se196  1  0.57789053  0.57931026  0.80735411  1
  Se  Se197  1  0.58701458  0.92483902  0.29576548  1
  Se  Se198  1  0.59525704  0.93048531  0.80159357  1
  Se  Se199  1  0.91941145  0.23906829  0.29955958  1
  Se  Se200  1  0.91069762  0.25091884  0.81465145  1
  Se  Se201  1  0.90631325  0.56652054  0.30556779  1
  Se  Se202  1  0.91431464  0.59031195  0.80404940  1
  Se  Se203  1  0.90894683  0.90836884  0.31021111  1
  Se  Se204  1  0.91945875  0.92389900  0.81116962  1
  Se  Se205  1  0.09544973  0.07875779  0.32012176  1
  Se  Se206  1  0.08155468  0.08119967  0.79678689  1
  Se  Se207  1  0.08199247  0.41081281  0.29572486  1
  Se  Se208  1  0.08569237  0.41972287  0.81380198  1
  Se  Se209  1  0.08159516  0.75595503  0.31033123  1
  Se  Se210  1  0.08258135  0.75539680  0.80284952  1
  Se  Se211  1  0.42646262  0.09245395  0.30549379  1
  Se  Se212  1  0.41347580  0.07844684  0.79199101  1
  Se  Se213  1  0.42414161  0.42373403  0.31114355  1
  Se  Se214  1  0.42555783  0.42447316  0.80918383  1
  Se  Se215  1  0.41613256  0.76078820  0.30051495  1
  Se  Se216  1  0.42801780  0.75636170  0.80785090  1
  Se  Se217  1  0.75099260  0.07971093  0.30100421  1
  Se  Se218  1  0.75102536  0.08327465  0.81369961  1
  Se  Se219  1  0.74810665  0.40958638  0.29832517  1
  Se  Se220  1  0.74420776  0.41918345  0.80354353  1
  Se  Se221  1  0.74885148  0.75530750  0.30660894  1
  Se  Se222  1  0.75039430  0.76784923  0.82208961  1
  Se  Se223  1  0.24459049  0.08396140  0.19781328  1
  Se  Se224  1  0.25096248  0.07530442  0.68491157  1
  Se  Se225  1  0.24714506  0.42117999  0.18537824  1
  Se  Se226  1  0.24244437  0.42698011  0.69973232  1
  Se  Se227  1  0.25576564  0.75615010  0.19664622  1
  Se  Se228  1  0.24483380  0.76039572  0.68568337  1
  Se  Se229  1  0.58505253  0.08197040  0.18575425  1
  Se  Se230  1  0.60353519  0.05043209  0.71030957  1
  Se  Se231  1  0.58614682  0.41912664  0.19828058  1
  Se  Se232  1  0.58503583  0.40502914  0.70063425  1
  Se  Se233  1  0.57547254  0.75984512  0.18571900  1
  Se  Se234  1  0.57916129  0.75721191  0.69201294  1
  Se  Se235  1  0.90555773  0.08029162  0.18319366  1
  Se  Se236  1  0.91472468  0.08728440  0.70503922  1
  Se  Se237  1  0.92146931  0.40638954  0.19005463  1
  Se  Se238  1  0.90402303  0.42441897  0.68967186  1
  Se  Se239  1  0.90876159  0.75643206  0.19258991  1
  Se  Se240  1  0.91724158  0.75197598  0.70200364  1
  Se  Se241  1  0.08287393  0.24354711  0.20206677  1
  Se  Se242  1  0.09105021  0.24540945  0.68709613  1
  Se  Se243  1  0.08924674  0.57778812  0.18288682  1
  Se  Se244  1  0.07601024  0.58937030  0.70746122  1
  Se  Se245  1  0.08497944  0.91462728  0.19380644  1
  Se  Se246  1  0.07949943  0.92168651  0.69291055  1
  Se  Se247  1  0.42137748  0.24326100  0.18797843  1
  Se  Se248  1  0.40968792  0.24246924  0.68097510  1
  Se  Se249  1  0.41472736  0.59013526  0.19729131  1
  Se  Se250  1  0.42468326  0.57513617  0.69585471  1
  Se  Se251  1  0.43036644  0.92514062  0.17757325  1
  Se  Se252  1  0.41651611  0.89579883  0.70553721  1
  Se  Se253  1  0.74788972  0.25060297  0.19149212  1
  Se  Se254  1  0.74156145  0.25082780  0.70741931  1
  Se  Se255  1  0.75925612  0.57666389  0.18549326  1
  Se  Se256  1  0.75323316  0.58256608  0.69011569  1
  Se  Se257  1  0.74427400  0.92096069  0.18936345  1
  Se  Se258  1  0.75262816  0.91208180  0.70268651  1
