# generated using pymatgen
data_In86Cu29Se144
_symmetry_space_group_name_H-M   'P 1'
_cell_length_a   17.58542309
_cell_length_b   17.58305951
_cell_length_c   23.44767632
_cell_angle_alpha   89.99986610
_cell_angle_beta   89.97030054
_cell_angle_gamma   89.97156405
_symmetry_Int_Tables_number   1
_chemical_formula_structural   In86Cu29Se144
_chemical_formula_sum   'In86 Cu29 Se144'
_cell_volume   7250.14957005
_cell_formula_units_Z   1
loop_
 _symmetry_equiv_pos_site_id
 _symmetry_equiv_pos_as_xyz
  1  'x, y, z'
loop_
 _atom_site_type_symbol
 _atom_site_label
 _atom_site_symmetry_multiplicity
 _atom_site_fract_x
 _atom_site_fract_y
 _atom_site_fract_z
 _atom_site_occupancy
  In  In0  1  0.00059406  0.17316869  0.12448392  1
  In  In1  1  0.00402708  0.15825017  0.63515913  1
  In  In2  1  -0.01667879  0.49929602  0.11919433  1
  In  In3  1  0.01915079  0.49153993  0.64405075  1
  In  In4  1  0.00911503  0.84553536  0.13062007  1
  In  In5  1  0.00785724  0.82671756  0.63022917  1
  In  In6  1  0.31170477  0.16921547  0.12266158  1
  In  In7  1  0.33084117  0.16635014  0.62339722  1
  In  In8  1  0.34145241  0.50348741  0.12759529  1
  In  In9  1  0.32996876  0.48814769  0.62627928  1
  In  In10  1  0.32665998  0.82136268  0.13093240  1
  In  In11  1  0.34446808  0.84005281  0.61336643  1
  In  In12  1  0.67759600  0.15872536  0.12977185  1
  In  In13  1  0.66126254  0.18661493  0.62437970  1
  In  In14  1  0.67303919  0.48952228  0.13392238  1
  In  In15  1  0.66532877  0.49872408  0.62790659  1
  In  In16  1  0.65607290  0.84250040  0.12966563  1
  In  In17  1  0.65197151  0.83030759  0.62270444  1
  In  In18  1  0.16019454  0.00498968  0.38155767  1
  In  In19  1  0.17732072  0.01064859  0.86803898  1
  In  In20  1  0.15621608  0.33060405  0.37150345  1
  In  In21  1  0.15887443  0.32632679  0.86944433  1
  In  In22  1  0.18480810  0.66776655  0.37409060  1
  In  In23  1  0.16136688  0.67750557  0.87218694  1
  In  In24  1  0.50250905  -0.00652137  0.37857967  1
  In  In25  1  0.48269973  -0.00031603  0.87322981  1
  In  In26  1  0.51244933  0.32738098  0.39072559  1
  In  In27  1  0.50068397  0.32900178  0.86118041  1
  In  In28  1  0.50381062  0.66329876  0.38103740  1
  In  In29  1  0.51003094  0.66219822  0.87448046  1
  In  In30  1  0.83897619  0.00739709  0.36399793  1
  In  In31  1  0.84912500  0.00444997  0.87300230  1
  In  In32  1  0.83017082  0.32586959  0.36886930  1
  In  In33  1  0.83226092  0.33050975  0.87895704  1
  In  In34  1  0.82990193  0.67923614  0.37101605  1
  In  In35  1  0.82188290  0.65536327  0.87087920  1
  In  In36  1  0.00966262  0.16718375  0.36560970  1
  In  In37  1  0.00198292  0.17188351  0.87558373  1
  In  In38  1  0.00823451  0.48645379  0.37368417  1
  In  In39  1  -0.02112356  0.46583484  0.85476636  1
  In  In40  1  0.00125200  0.84883270  0.37566416  1
  In  In41  1  0.00447055  0.84190502  0.86565825  1
  In  In42  1  0.32872778  0.17210968  0.38244082  1
  In  In43  1  0.33079833  0.16315080  0.86969852  1
  In  In44  1  0.34257174  0.51587875  0.37818490  1
  In  In45  1  0.33637304  0.49285706  0.86578275  1
  In  In46  1  0.34337331  0.81785029  0.39191935  1
  In  In47  1  0.32685250  0.84508230  0.87596431  1
  In  In48  1  0.66263083  0.16406576  0.36956037  1
  In  In49  1  0.66620059  0.18116735  0.87238801  1
  In  In50  1  0.65545120  0.49019586  0.37157641  1
  In  In51  1  0.67100494  0.49956942  0.87079997  1
  In  In52  1  0.65716499  0.82755278  0.36557812  1
  In  In53  1  0.66395632  0.81738372  0.87546683  1
  In  In54  1  0.14593628  0.00506758  0.13641166  1
  In  In55  1  0.16864810  0.00383630  0.62429143  1
  In  In56  1  0.16276266  0.30483227  0.11772532  1
  In  In57  1  0.17794995  0.32600345  0.63420382  1
  In  In58  1  0.17549084  0.67819998  0.13277290  1
  In  In59  1  0.15692929  0.66115775  0.62384070  1
  In  In60  1  0.51485684  0.00243343  0.12589654  1
  In  In61  1  0.48921695  -0.00992080  0.61582587  1
  In  In62  1  0.49933541  0.34501832  0.12826404  1
  In  In63  1  0.49966517  0.32980359  0.62070970  1
  In  In64  1  0.49079242  0.67490893  0.13507297  1
  In  In65  1  0.50758115  0.67612886  0.61492642  1
  In  In66  1  0.82854998  0.01074635  0.12561431  1
  In  In67  1  0.83988059  0.01649316  0.63175908  1
  In  In68  1  0.83479098  0.33303403  0.12240641  1
  In  In69  1  0.82945703  0.33013410  0.63563674  1
  In  In70  1  0.83177702  0.64942375  0.12258764  1
  In  In71  1  0.83886362  0.65983103  0.63342037  1
  In  In72  1  0.16004386  0.49902646  -0.01394199  1
  In  In73  1  0.83211841  0.83981063  0.49498961  1
  In  In74  1  0.82970263  0.83501821  -0.00039913  1
  In  In75  1  0.33141390  0.33735862  0.25078475  1
  In  In76  1  0.50188587  0.49979036  0.00416733  1
  In  In77  1  0.17532746  0.49698381  0.50442848  1
  In  In78  1  0.50384652  0.16645206  -0.00197744  1
  In  In79  1  0.33265962  -0.00771258  0.25841461  1
  In  In80  1  0.33454398  0.66791378  0.73943956  1
  In  In81  1  0.16702653  0.84069244  0.01033953  1
  In  In82  1  0.82991577  0.50075759  0.51042251  1
  In  In83  1  0.82642574  0.16683637  0.49917662  1
  In  In84  1  -0.00358022  0.66632469  0.24766009  1
  In  In85  1  0.66664086  -0.00046995  0.74788032  1
  Cu  Cu86  1  0.50261533  0.83313548  0.25755497  1
  Cu  Cu87  1  0.49645285  0.82998773  0.74295688  1
  Cu  Cu88  1  0.00687127  0.00259439  0.50456534  1
  Cu  Cu89  1  0.16448421  0.16533448  0.74967810  1
  Cu  Cu90  1  0.16643997  0.84301788  0.74648564  1
  Cu  Cu91  1  0.50204152  0.17303947  0.25139730  1
  Cu  Cu92  1  0.50722910  0.49260642  0.74671508  1
  Cu  Cu93  1  0.16632230  0.49554998  0.25072878  1
  Cu  Cu94  1  0.82686041  0.83931101  0.24698561  1
  Cu  Cu95  1  0.83233041  0.83121700  0.75341958  1
  Cu  Cu96  1  -0.00001867  0.32514318  0.49921207  1
  Cu  Cu97  1  0.66873686  0.00054593  0.00310468  1
  Cu  Cu98  1  -0.00097958  0.33137577  -0.00432169  1
  Cu  Cu99  1  0.32843985  0.00548594  0.49847015  1
  Cu  Cu100  1  0.66234250  0.66424744  -0.00116019  1
  Cu  Cu101  1  0.67162003  0.33589036  0.00196341  1
  Cu  Cu102  1  0.33388203  0.33134757  0.50406845  1
  Cu  Cu103  1  0.00513137  0.01267376  -0.00073510  1
  Cu  Cu104  1  0.00894696  0.66539826  0.50615461  1
  Cu  Cu105  1  0.66782442  0.66680550  0.49923637  1
  Cu  Cu106  1  0.65784562  0.00139131  0.49574811  1
  Cu  Cu107  1  0.33576426  0.00022281  -0.00159047  1
  Cu  Cu108  1  0.83017572  0.49524842  0.24855433  1
  Cu  Cu109  1  0.33761095  0.66710823  0.00767217  1
  Cu  Cu110  1  0.82909819  0.49711949  0.75208814  1
  Cu  Cu111  1  -0.00636671  0.66726433  -0.00467218  1
  Cu  Cu112  1  0.83993632  0.17106383  0.24478485  1
  Cu  Cu113  1  0.50264280  0.50531381  0.25397389  1
  Cu  Cu114  1  0.49581840  0.16703476  0.74435378  1
  Se  Se115  1  0.08902536  0.08896057  0.05668605  1
  Se  Se116  1  0.08440744  0.09101187  0.55720502  1
  Se  Se117  1  0.07908528  0.41275864  0.05699926  1
  Se  Se118  1  0.07889869  0.40767132  0.55965713  1
  Se  Se119  1  0.07255684  0.74022823  0.05984578  1
  Se  Se120  1  0.08884498  0.75543859  0.55394727  1
  Se  Se121  1  0.41246212  0.08053045  0.06224865  1
  Se  Se122  1  0.41445917  0.08572191  0.55260389  1
  Se  Se123  1  0.40401674  0.40652165  0.05401185  1
  Se  Se124  1  0.41588380  0.41763381  0.55385284  1
  Se  Se125  1  0.41739950  0.75425071  0.05848955  1
  Se  Se126  1  0.41933717  0.74975148  0.54754388  1
  Se  Se127  1  0.75236590  0.08772793  0.04967855  1
  Se  Se128  1  0.73853393  0.07415421  0.55968343  1
  Se  Se129  1  0.75164677  0.42173388  0.05534782  1
  Se  Se130  1  0.74207035  0.40099586  0.55931003  1
  Se  Se131  1  0.74205365  0.74451541  0.06089306  1
  Se  Se132  1  0.75220686  0.74392235  0.55910773  1
  Se  Se133  1  0.25721504  0.25319720  0.04386176  1
  Se  Se134  1  0.24584568  0.25024094  0.55425772  1
  Se  Se135  1  0.24844355  0.58593949  0.05819448  1
  Se  Se136  1  0.26181871  0.59271221  0.55999799  1
  Se  Se137  1  0.25713172  0.93065067  0.06860257  1
  Se  Se138  1  0.24853424  0.92066511  0.55348278  1
  Se  Se139  1  0.58908616  0.25726580  0.06232500  1
  Se  Se140  1  0.57415881  0.24324252  0.54895056  1
  Se  Se141  1  0.58706167  0.58881778  0.06696794  1
  Se  Se142  1  0.59010900  0.58149900  0.55475960  1
  Se  Se143  1  0.58221122  0.91673333  0.05059900  1
  Se  Se144  1  0.58062413  0.91221051  0.54866928  1
  Se  Se145  1  0.91603934  0.24977386  0.05264283  1
  Se  Se146  1  0.91902126  0.25123174  0.56172116  1
  Se  Se147  1  0.91036167  0.58081508  0.04451067  1
  Se  Se148  1  0.93377899  0.58130214  0.56500502  1
  Se  Se149  1  0.92649819  0.92428382  0.05581552  1
  Se  Se150  1  0.91923854  0.92519585  0.56119542  1
  Se  Se151  1  0.08252545  0.24555662  0.44351211  1
  Se  Se152  1  0.08821248  0.24888665  0.94780289  1
  Se  Se153  1  0.08066490  0.58297738  0.44118694  1
  Se  Se154  1  0.06852140  0.58985057  0.93074314  1
  Se  Se155  1  0.08485499  0.91419147  0.45197186  1
  Se  Se156  1  0.08282809  0.92568956  0.94196897  1
  Se  Se157  1  0.41697406  0.24722121  0.45062469  1
  Se  Se158  1  0.41659848  0.25509714  0.93703963  1
  Se  Se159  1  0.41959082  0.58752935  0.45281161  1
  Se  Se160  1  0.40857238  0.58670600  0.94180335  1
  Se  Se161  1  0.41678094  0.92079981  0.45004085  1
  Se  Se162  1  0.41658965  0.91281225  0.94858423  1
  Se  Se163  1  0.73777371  0.25926998  0.44230856  1
  Se  Se164  1  0.74911295  0.24749331  0.94885724  1
  Se  Se165  1  0.75093506  0.58888335  0.44004672  1
  Se  Se166  1  0.74477103  0.57987374  0.94681626  1
  Se  Se167  1  0.74334255  0.92804646  0.43353758  1
  Se  Se168  1  0.74332488  0.92337818  0.93511261  1
  Se  Se169  1  0.24340505  0.08958024  0.44845918  1
  Se  Se170  1  0.25373607  0.08383391  0.94523197  1
  Se  Se171  1  0.25782633  0.40804870  0.43600073  1
  Se  Se172  1  0.25868564  0.40872763  0.93763536  1
  Se  Se173  1  0.24538746  0.74469636  0.45421425  1
  Se  Se174  1  0.25447494  0.74620865  0.94794726  1
  Se  Se175  1  0.57952056  0.08853425  0.44249934  1
  Se  Se176  1  0.58959862  0.07446877  0.93548396  1
  Se  Se177  1  0.57874226  0.42950086  0.45261341  1
  Se  Se178  1  0.58503260  0.40741428  0.94056202  1
  Se  Se179  1  0.58876721  0.75393797  0.44583544  1
  Se  Se180  1  0.57728799  0.74869204  0.94941838  1
  Se  Se181  1  0.92281535  0.07878946  0.44293825  1
  Se  Se182  1  0.91702556  0.09011303  0.94658056  1
  Se  Se183  1  0.91773684  0.40899984  0.44474972  1
  Se  Se184  1  0.91434534  0.41889541  0.94724410  1
  Se  Se185  1  0.92758254  0.74236538  0.44410298  1
  Se  Se186  1  0.91913585  0.75160867  0.93447702  1
  Se  Se187  1  0.24210782  0.24095807  0.30445682  1
  Se  Se188  1  0.24968296  0.24865842  0.80227145  1
  Se  Se189  1  0.25143182  0.57633855  0.30268304  1
  Se  Se190  1  0.24796246  0.58670907  0.80798816  1
  Se  Se191  1  0.25201893  0.90699074  0.32532374  1
  Se  Se192  1  0.25456045  0.92122348  0.79972530  1
  Se  Se193  1  0.58081786  0.25737950  0.30669216  1
  Se  Se194  1  0.58520418  0.24725011  0.79427560  1
  Se  Se195  1  0.58757205  0.58886488  0.30617954  1
  Se  Se196  1  0.58411341  0.57975287  0.80258848  1
  Se  Se197  1  0.58564821  0.92576170  0.30143539  1
  Se  Se198  1  0.57522594  0.90840878  0.80815707  1
  Se  Se199  1  0.92111067  0.25184232  0.30244436  1
  Se  Se200  1  0.93792848  0.27545472  0.81272856  1
  Se  Se201  1  0.91046931  0.57346527  0.31178197  1
  Se  Se202  1  0.91399783  0.58190579  0.80364402  1
  Se  Se203  1  0.91693659  0.91529258  0.29950170  1
  Se  Se204  1  0.91697310  0.92003865  0.79817569  1
  Se  Se205  1  0.07071581  0.06150043  0.30464983  1
  Se  Se206  1  0.08070603  0.08374767  0.80551984  1
  Se  Se207  1  0.07983430  0.41005011  0.29661246  1
  Se  Se208  1  0.10202726  0.43052601  0.80339163  1
  Se  Se209  1  0.08304114  0.74913676  0.31340140  1
  Se  Se210  1  0.08540100  0.75640666  0.79857741  1
  Se  Se211  1  0.42103510  0.09308620  0.31128782  1
  Se  Se212  1  0.41425346  0.08242459  0.79857615  1
  Se  Se213  1  0.42438001  0.41960907  0.31332066  1
  Se  Se214  1  0.41602741  0.41289828  0.79520713  1
  Se  Se215  1  0.42138996  0.74978648  0.31200065  1
  Se  Se216  1  0.41844637  0.75350887  0.80999744  1
  Se  Se217  1  0.75323352  0.09124921  0.29997315  1
  Se  Se218  1  0.75347002  0.08792819  0.81000486  1
  Se  Se219  1  0.74774372  0.41471590  0.30536385  1
  Se  Se220  1  0.74841811  0.40942283  0.80543026  1
  Se  Se221  1  0.74743242  0.75071788  0.29778657  1
  Se  Se222  1  0.74654935  0.74620827  0.80187591  1
  Se  Se223  1  0.24283924  0.08633922  0.20036444  1
  Se  Se224  1  0.25064421  0.08436211  0.69560452  1
  Se  Se225  1  0.24100453  0.41815721  0.18345977  1
  Se  Se226  1  0.23412387  0.43325712  0.69735908  1
  Se  Se227  1  0.25526744  0.74687832  0.20787582  1
  Se  Se228  1  0.24480050  0.76217378  0.68444137  1
  Se  Se229  1  0.58486885  0.08731494  0.19887865  1
  Se  Se230  1  0.57538076  0.08312062  0.68457223  1
  Se  Se231  1  0.58166251  0.41552939  0.20213882  1
  Se  Se232  1  0.58697102  0.40676097  0.69259520  1
  Se  Se233  1  0.58417708  0.75168158  0.19909611  1
  Se  Se234  1  0.58338142  0.74448527  0.69671234  1
  Se  Se235  1  0.92061689  0.08310049  0.19250242  1
  Se  Se236  1  0.91373705  0.09037914  0.70658760  1
  Se  Se237  1  0.91642538  0.41602315  0.19458929  1
  Se  Se238  1  0.91533089  0.41580601  0.69897037  1
  Se  Se239  1  0.90609165  0.75768627  0.18523909  1
  Se  Se240  1  0.91747969  0.75072773  0.69738652  1
  Se  Se241  1  0.08268498  0.24957788  0.19764450  1
  Se  Se242  1  0.08219732  0.25232570  0.69844398  1
  Se  Se243  1  0.08703701  0.57498834  0.18650201  1
  Se  Se244  1  0.08019228  0.59773196  0.70337723  1
  Se  Se245  1  0.10798140  0.89330768  0.20142027  1
  Se  Se246  1  0.08034322  0.92432416  0.69363283  1
  Se  Se247  1  0.41798474  0.24215707  0.18794047  1
  Se  Se248  1  0.41264805  0.25230789  0.69156416  1
  Se  Se249  1  0.41344983  0.58411651  0.20187215  1
  Se  Se250  1  0.42975454  0.57638479  0.68600710  1
  Se  Se251  1  0.42554183  0.91205076  0.19210743  1
  Se  Se252  1  0.41344354  0.91629471  0.69399817  1
  Se  Se253  1  0.75157983  0.25342496  0.19415347  1
  Se  Se254  1  0.76326920  0.22627425  0.69607459  1
  Se  Se255  1  0.74868214  0.58431989  0.19941007  1
  Se  Se256  1  0.74806959  0.58107211  0.69707598  1
  Se  Se257  1  0.74682343  0.92446059  0.19224201  1
  Se  Se258  1  0.75561573  0.90731964  0.68612815  1
