# generated using pymatgen
data_In86Cu29Se144
_symmetry_space_group_name_H-M   'P 1'
_cell_length_a   17.56599369
_cell_length_b   17.56674667
_cell_length_c   23.42176240
_cell_angle_alpha   89.99678540
_cell_angle_beta   89.99601788
_cell_angle_gamma   89.99717358
_symmetry_Int_Tables_number   1
_chemical_formula_structural   In86Cu29Se144
_chemical_formula_sum   'In86 Cu29 Se144'
_cell_volume   7227.42559720
_cell_formula_units_Z   1
loop_
 _symmetry_equiv_pos_site_id
 _symmetry_equiv_pos_as_xyz
  1  'x, y, z'
loop_
 _atom_site_type_symbol
 _atom_site_label
 _atom_site_symmetry_multiplicity
 _atom_site_fract_x
 _atom_site_fract_y
 _atom_site_fract_z
 _atom_site_occupancy
  In  In0  1  0.01185489  0.16862941  0.11869393  1
  In  In1  1  -0.01982905  0.18347732  0.64246154  1
  In  In2  1  0.00083641  0.49910999  0.12350465  1
  In  In3  1  -0.00644192  0.50164657  0.63014866  1
  In  In4  1  -0.01032292  0.83367024  0.12287898  1
  In  In5  1  -0.00893557  0.83225249  0.65215923  1
  In  In6  1  0.35380557  0.17894106  0.10664118  1
  In  In7  1  0.35006746  0.17228238  0.62466784  1
  In  In8  1  0.32316318  0.49129778  0.11585330  1
  In  In9  1  0.34012639  0.49628516  0.63962769  1
  In  In10  1  0.34801859  0.82672561  0.11738852  1
  In  In11  1  0.32159130  0.83185248  0.63261427  1
  In  In12  1  0.66226178  0.17073897  0.12839386  1
  In  In13  1  0.65957619  0.16334997  0.62097790  1
  In  In14  1  0.66922430  0.49706830  0.12368145  1
  In  In15  1  0.66075368  0.49128479  0.61192739  1
  In  In16  1  0.64674139  0.84464382  0.14297893  1
  In  In17  1  0.68498683  0.84556502  0.63253643  1
  In  In18  1  0.16026953  -0.01278089  0.37131224  1
  In  In19  1  0.17303369  0.01322941  0.88068796  1
  In  In20  1  0.17103210  0.34431183  0.36576999  1
  In  In21  1  0.16679487  0.33629608  0.87115529  1
  In  In22  1  0.16160679  0.67543323  0.37062022  1
  In  In23  1  0.15040753  0.64645357  0.85517524  1
  In  In24  1  0.52093508  0.00642330  0.37109432  1
  In  In25  1  0.49942567  -0.00238116  0.89625734  1
  In  In26  1  0.50030630  0.33201391  0.37391787  1
  In  In27  1  0.49203792  0.34431301  0.88391175  1
  In  In28  1  0.49192127  0.65504703  0.37031324  1
  In  In29  1  0.49411173  0.67365132  0.88207687  1
  In  In30  1  0.82454032  0.01120156  0.37752612  1
  In  In31  1  0.83076947  -0.00326783  0.85695260  1
  In  In32  1  0.83246644  0.33292472  0.37373701  1
  In  In33  1  0.84995555  0.33087106  0.87228916  1
  In  In34  1  0.82545364  0.65751894  0.36822681  1
  In  In35  1  0.83589542  0.65520129  0.87503707  1
  In  In36  1  -0.01751176  0.16149123  0.37795545  1
  In  In37  1  0.00497203  0.18149694  0.86260192  1
  In  In38  1  -0.00992062  0.49191962  0.36824004  1
  In  In39  1  0.00263040  0.49604164  0.87318806  1
  In  In40  1  0.01075025  0.82538226  0.37217387  1
  In  In41  1  -0.00425361  0.82678307  0.85404579  1
  In  In42  1  0.33441936  0.18677862  0.37502581  1
  In  In43  1  0.32498408  0.16957384  0.88746496  1
  In  In44  1  0.34819586  0.49712824  0.37609033  1
  In  In45  1  0.33029111  0.49846339  0.87229115  1
  In  In46  1  0.33135378  0.82018043  0.37060334  1
  In  In47  1  0.34897854  0.83450155  0.87569802  1
  In  In48  1  0.66645505  0.16761523  0.37459090  1
  In  In49  1  0.66227700  0.14748835  0.87704668  1
  In  In50  1  0.66778038  0.49586136  0.37142653  1
  In  In51  1  0.66757996  0.50557597  0.89111331  1
  In  In52  1  0.66432360  0.83547154  0.36031442  1
  In  In53  1  0.65314180  0.84333356  0.87900944  1
  In  In54  1  0.15658417  0.01116055  0.11095576  1
  In  In55  1  0.15108935  -0.00026824  0.63196794  1
  In  In56  1  0.16540858  0.33468625  0.12454524  1
  In  In57  1  0.16336552  0.35195066  0.64614978  1
  In  In58  1  0.17153547  0.65016642  0.12161713  1
  In  In59  1  0.16047111  0.66640404  0.65695414  1
  In  In60  1  0.51210038  0.00778766  0.10604734  1
  In  In61  1  0.50177963  0.02193303  0.62463661  1
  In  In62  1  0.49950064  0.33256623  0.12531115  1
  In  In63  1  0.49829349  0.33001420  0.62528867  1
  In  In64  1  0.50922758  0.67146717  0.11648899  1
  In  In65  1  0.50964381  0.65430769  0.62654118  1
  In  In66  1  0.82503801  -0.00850969  0.12224707  1
  In  In67  1  0.81615419  0.01965845  0.65275548  1
  In  In68  1  0.82464493  0.33966785  0.13087566  1
  In  In69  1  0.83363581  0.33638129  0.61474566  1
  In  In70  1  0.83905172  0.66191187  0.12792460  1
  In  In71  1  0.84089934  0.65680526  0.62711117  1
  In  In72  1  0.67117953  0.67500791  0.75190418  1
  In  In73  1  -0.00943500  0.00245764  0.25118932  1
  In  In74  1  0.33941772  0.66089618  0.24964537  1
  In  In75  1  0.83661128  0.82723182  0.50784923  1
  In  In76  1  0.83161643  0.17077508  -0.00339835  1
  In  In77  1  0.82706994  0.83218132  -0.00852877  1
  In  In78  1  0.16617064  0.50462623  0.51458810  1
  In  In79  1  0.33433353  0.00525152  0.75546834  1
  In  In80  1  0.34213376  0.00889855  0.22924177  1
  In  In81  1  0.17316496  0.17478305  0.50461889  1
  In  In82  1  0.15792685  0.83184868  0.52324083  1
  In  In83  1  0.17261579  0.82716690  -0.01306177  1
  In  In84  1  0.66982025  0.33092413  0.75044346  1
  In  In85  1  0.50139246  0.83606863  0.49220163  1
  Cu  Cu86  1  0.16576407  0.83249487  0.24523088  1
  Cu  Cu87  1  0.32847933  0.33308062  -0.00087218  1
  Cu  Cu88  1  0.16562479  0.17906021  0.24548512  1
  Cu  Cu89  1  0.83384304  0.49813919  0.75063736  1
  Cu  Cu90  1  0.66733427  0.33134427  0.49276029  1
  Cu  Cu91  1  -0.00606456  0.32366611  0.49786969  1
  Cu  Cu92  1  0.83276796  0.82766925  0.24567873  1
  Cu  Cu93  1  0.49904212  0.17116777  0.75291260  1
  Cu  Cu94  1  0.66798741  0.65532160  0.49553046  1
  Cu  Cu95  1  0.34163729  0.33942171  0.50430480  1
  Cu  Cu96  1  0.00085079  0.00602163  -0.01390977  1
  Cu  Cu97  1  0.50240405  0.49599543  0.24704120  1
  Cu  Cu98  1  0.33495496  0.66563813  0.50797323  1
  Cu  Cu99  1  0.00720050  0.33875832  -0.00457368  1
  Cu  Cu100  1  0.49669721  0.50515611  0.75684684  1
  Cu  Cu101  1  -0.00250049  0.65519302  0.50456487  1
  Cu  Cu102  1  0.16266126  0.49856967  0.24345404  1
  Cu  Cu103  1  0.50246211  0.84309712  0.75566219  1
  Cu  Cu104  1  0.00802875  0.66184805  -0.00178448  1
  Cu  Cu105  1  0.83050568  0.16955535  0.25300177  1
  Cu  Cu106  1  0.67234959  0.66935799  0.00693714  1
  Cu  Cu107  1  0.17013886  0.16863363  0.75684440  1
  Cu  Cu108  1  0.83593381  0.49955768  0.24911923  1
  Cu  Cu109  1  -0.01162451  0.00090890  0.51227205  1
  Cu  Cu110  1  0.33264868  0.65714936  -0.00722920  1
  Cu  Cu111  1  0.67104262  0.00234512  0.50313913  1
  Cu  Cu112  1  0.49898188  0.16544296  0.24466876  1
  Cu  Cu113  1  0.33948885  0.01202180  0.49615014  1
  Cu  Cu114  1  0.66529186  0.33293794  0.00460356  1
  Se  Se115  1  0.08117905  0.09258879  0.03825945  1
  Se  Se116  1  0.07590291  0.08757662  0.56071757  1
  Se  Se117  1  0.08741581  0.42056881  0.05389489  1
  Se  Se118  1  0.07467228  0.40192411  0.56007088  1
  Se  Se119  1  0.08151069  0.74818115  0.05809573  1
  Se  Se120  1  0.06804541  0.73402342  0.57499495  1
  Se  Se121  1  0.39944536  0.06304518  0.04975464  1
  Se  Se122  1  0.42387152  0.09461310  0.54738603  1
  Se  Se123  1  0.41631910  0.41252723  0.05338113  1
  Se  Se124  1  0.41910014  0.42453985  0.56202382  1
  Se  Se125  1  0.41722314  0.74088461  0.04490294  1
  Se  Se126  1  0.41562013  0.75240575  0.56257621  1
  Se  Se127  1  0.74298605  0.07917893  0.05601088  1
  Se  Se128  1  0.75498708  0.07865422  0.56202072  1
  Se  Se129  1  0.75419670  0.41632242  0.05223375  1
  Se  Se130  1  0.75051478  0.41648121  0.54523682  1
  Se  Se131  1  0.74883333  0.75476446  0.06599596  1
  Se  Se132  1  0.73728200  0.73672975  0.56187187  1
  Se  Se133  1  0.24511572  0.25017075  0.05371026  1
  Se  Se134  1  0.25568983  0.26861623  0.56806616  1
  Se  Se135  1  0.24593495  0.57683324  0.04477711  1
  Se  Se136  1  0.25374167  0.59641940  0.57379114  1
  Se  Se137  1  0.24761027  0.91208095  0.05999308  1
  Se  Se138  1  0.25951983  0.93465777  0.56091295  1
  Se  Se139  1  0.58205168  0.24838487  0.05552805  1
  Se  Se140  1  0.58496681  0.25498210  0.55470761  1
  Se  Se141  1  0.58714257  0.57894181  0.05237572  1
  Se  Se142  1  0.57690541  0.57827952  0.54685343  1
  Se  Se143  1  0.59146444  0.90527677  0.05259978  1
  Se  Se144  1  0.58904519  0.92036709  0.56134970  1
  Se  Se145  1  0.92290419  0.26059804  0.05672815  1
  Se  Se146  1  0.91402770  0.23976725  0.55303524  1
  Se  Se147  1  0.92063418  0.58625235  0.05408804  1
  Se  Se148  1  0.91114096  0.57140990  0.55320792  1
  Se  Se149  1  0.92401782  0.92786707  0.04862363  1
  Se  Se150  1  0.91756998  0.91551553  0.57323423  1
  Se  Se151  1  0.08242950  0.25513914  0.43559191  1
  Se  Se152  1  0.08404608  0.25012349  0.94103155  1
  Se  Se153  1  0.08170937  0.58531037  0.44066622  1
  Se  Se154  1  0.08800705  0.57969036  0.94194975  1
  Se  Se155  1  0.07096702  0.92102156  0.45064535  1
  Se  Se156  1  0.07276333  0.91407611  0.93152638  1
  Se  Se157  1  0.41950008  0.25300673  0.44966366  1
  Se  Se158  1  0.41799787  0.25036377  0.95011669  1
  Se  Se159  1  0.41491970  0.58563555  0.44994480  1
  Se  Se160  1  0.42061394  0.57421870  0.94258862  1
  Se  Se161  1  0.40678323  0.92452233  0.43284695  1
  Se  Se162  1  0.41654002  0.90552619  0.95619804  1
  Se  Se163  1  0.75320603  0.24665235  0.44322952  1
  Se  Se164  1  0.74121439  0.26017255  0.93531708  1
  Se  Se165  1  0.75401816  0.57582746  0.44278046  1
  Se  Se166  1  0.75813082  0.58764993  0.95420394  1
  Se  Se167  1  0.74317879  0.91339504  0.44345417  1
  Se  Se168  1  0.74437334  0.93511225  0.93962444  1
  Se  Se169  1  0.24865649  0.07865133  0.43543534  1
  Se  Se170  1  0.25992456  0.07248583  0.95610853  1
  Se  Se171  1  0.25426474  0.41658266  0.44677029  1
  Se  Se172  1  0.24840116  0.41669542  0.94323217  1
  Se  Se173  1  0.24835130  0.74601311  0.45015734  1
  Se  Se174  1  0.25467846  0.73293266  0.92758513  1
  Se  Se175  1  0.58719265  0.08564721  0.44932315  1
  Se  Se176  1  0.57649645  0.09486421  0.95610946  1
  Se  Se177  1  0.58269364  0.41669571  0.44172341  1
  Se  Se178  1  0.58158534  0.41935388  0.95286060  1
  Se  Se179  1  0.59191075  0.74167522  0.43577846  1
  Se  Se180  1  0.59019668  0.74676165  0.94715895  1
  Se  Se181  1  0.90929850  0.08018354  0.45238596  1
  Se  Se182  1  0.91683238  0.08437783  0.92962626  1
  Se  Se183  1  0.91771892  0.41391844  0.44475633  1
  Se  Se184  1  0.91657640  0.41850679  0.94602067  1
  Se  Se185  1  0.92542197  0.74101904  0.44187125  1
  Se  Se186  1  0.92995094  0.74567741  0.93927030  1
  Se  Se187  1  0.25270399  0.25718603  0.29964760  1
  Se  Se188  1  0.25762320  0.24845935  0.80869164  1
  Se  Se189  1  0.24373327  0.57360944  0.31025271  1
  Se  Se190  1  0.26160263  0.58659062  0.79965001  1
  Se  Se191  1  0.25224139  0.91276262  0.29946626  1
  Se  Se192  1  0.24759258  0.91357398  0.81425669  1
  Se  Se193  1  0.57923485  0.24528429  0.30500838  1
  Se  Se194  1  0.57835403  0.25066600  0.81535413  1
  Se  Se195  1  0.58122272  0.57979058  0.30370401  1
  Se  Se196  1  0.58437913  0.58203407  0.81301916  1
  Se  Se197  1  0.57900098  0.91793837  0.29672222  1
  Se  Se198  1  0.57454769  0.93112494  0.81203152  1
  Se  Se199  1  0.91832142  0.24931754  0.30433508  1
  Se  Se200  1  0.90590692  0.24402342  0.79531961  1
  Se  Se201  1  0.91979908  0.58634382  0.30078017  1
  Se  Se202  1  0.91802793  0.58097243  0.80288143  1
  Se  Se203  1  0.90680948  0.90762162  0.31445953  1
  Se  Se204  1  0.92369257  0.92333218  0.79226768  1
  Se  Se205  1  0.08999001  0.09139971  0.30650661  1
  Se  Se206  1  0.08791696  0.08158757  0.80660519  1
  Se  Se207  1  0.07923739  0.41656813  0.29917918  1
  Se  Se208  1  0.06635356  0.39913754  0.80482930  1
  Se  Se209  1  0.08082442  0.74687452  0.29467370  1
  Se  Se210  1  0.07899777  0.74167339  0.79031509  1
  Se  Se211  1  0.41665047  0.08983019  0.30938692  1
  Se  Se212  1  0.42396123  0.08969498  0.81710912  1
  Se  Se213  1  0.41767384  0.41426830  0.30186891  1
  Se  Se214  1  0.41730680  0.41358475  0.80423587  1
  Se  Se215  1  0.43094273  0.76063188  0.30026658  1
  Se  Se216  1  0.42414986  0.75135773  0.80280956  1
  Se  Se217  1  0.74611062  0.08308522  0.30192431  1
  Se  Se218  1  0.75682580  0.10129436  0.80166398  1
  Se  Se219  1  0.75247540  0.41488057  0.30227969  1
  Se  Se220  1  0.75029351  0.42695065  0.81366302  1
  Se  Se221  1  0.74886726  0.74548437  0.29986397  1
  Se  Se222  1  0.75453024  0.75986769  0.81844532  1
  Se  Se223  1  0.23762182  0.09540450  0.18215163  1
  Se  Se224  1  0.24713974  0.09366956  0.68865936  1
  Se  Se225  1  0.25076965  0.41625817  0.19468667  1
  Se  Se226  1  0.25200764  0.42716463  0.71094752  1
  Se  Se227  1  0.24883355  0.75262721  0.18743894  1
  Se  Se228  1  0.25781014  0.75116916  0.70883786  1
  Se  Se229  1  0.57792014  0.07962805  0.19043194  1
  Se  Se230  1  0.58427898  0.08873336  0.70061202  1
  Se  Se231  1  0.58659270  0.41316859  0.19305717  1
  Se  Se232  1  0.57824373  0.42718886  0.69504531  1
  Se  Se233  1  0.58824531  0.73205865  0.19715538  1
  Se  Se234  1  0.57841398  0.76372859  0.68991248  1
  Se  Se235  1  0.90753199  0.09245076  0.18515018  1
  Se  Se236  1  0.94853040  0.05596071  0.69047821  1
  Se  Se237  1  0.91884078  0.41725575  0.19402806  1
  Se  Se238  1  0.90855744  0.41187590  0.69265983  1
  Se  Se239  1  0.92211648  0.74860208  0.19636081  1
  Se  Se240  1  0.89536140  0.74485405  0.70333870  1
  Se  Se241  1  0.07543059  0.25591951  0.19383557  1
  Se  Se242  1  0.08626145  0.24984995  0.70141428  1
  Se  Se243  1  0.08103481  0.58655276  0.19427708  1
  Se  Se244  1  0.08933017  0.55555233  0.70300197  1
  Se  Se245  1  0.08667056  0.91752497  0.18806457  1
  Se  Se246  1  0.11176474  0.89036486  0.69718375  1
  Se  Se247  1  0.41329907  0.24775069  0.19322085  1
  Se  Se248  1  0.41703094  0.25601354  0.70092519  1
  Se  Se249  1  0.42159773  0.57359170  0.18384385  1
  Se  Se250  1  0.42086820  0.59318823  0.70084473  1
  Se  Se251  1  0.43339786  0.90953540  0.18415119  1
  Se  Se252  1  0.42499610  0.91959448  0.68885665  1
  Se  Se253  1  0.74653159  0.25058247  0.19731497  1
  Se  Se254  1  0.75467497  0.24521253  0.68595611  1
  Se  Se255  1  0.75189008  0.58019708  0.19379732  1
  Se  Se256  1  0.74402630  0.56934435  0.69067581  1
  Se  Se257  1  0.75145519  0.91918615  0.19992030  1
  Se  Se258  1  0.74262028  0.92239086  0.71376415  1
