# generated using pymatgen
data_In86Cu29Se144
_symmetry_space_group_name_H-M   'P 1'
_cell_length_a   17.56645586
_cell_length_b   17.56596800
_cell_length_c   23.42952658
_cell_angle_alpha   89.98686937
_cell_angle_beta   90.03029080
_cell_angle_gamma   90.01848195
_symmetry_Int_Tables_number   1
_chemical_formula_structural   In86Cu29Se144
_chemical_formula_sum   'In86 Cu29 Se144'
_cell_volume   7229.68965021
_cell_formula_units_Z   1
loop_
 _symmetry_equiv_pos_site_id
 _symmetry_equiv_pos_as_xyz
  1  'x, y, z'
loop_
 _atom_site_type_symbol
 _atom_site_label
 _atom_site_symmetry_multiplicity
 _atom_site_fract_x
 _atom_site_fract_y
 _atom_site_fract_z
 _atom_site_occupancy
  In  In0  1  0.00425614  0.16807433  0.12788262  1
  In  In1  1  0.00623635  0.16352681  0.62002451  1
  In  In2  1  -0.01361748  0.49239706  0.12763025  1
  In  In3  1  0.00005662  0.49575758  0.61083735  1
  In  In4  1  0.00566436  0.84666596  0.12931321  1
  In  In5  1  0.01800261  0.84067136  0.61472582  1
  In  In6  1  0.34010461  0.17243130  0.11101433  1
  In  In7  1  0.33453283  0.16609349  0.62734596  1
  In  In8  1  0.33096763  0.48387164  0.12556162  1
  In  In9  1  0.32190991  0.50777969  0.63115464  1
  In  In10  1  0.34139022  0.82500148  0.12219363  1
  In  In11  1  0.32835652  0.83758484  0.63407515  1
  In  In12  1  0.66677661  0.16912339  0.12381338  1
  In  In13  1  0.65813134  0.16346143  0.62038052  1
  In  In14  1  0.65821224  0.50046489  0.13411918  1
  In  In15  1  0.67196110  0.49749867  0.61657609  1
  In  In16  1  0.65820753  0.83630796  0.12810461  1
  In  In17  1  0.67828029  0.84332723  0.62440608  1
  In  In18  1  0.12960990  0.02750794  0.41274558  1
  In  In19  1  0.17356774  0.01596346  0.87090790  1
  In  In20  1  0.16572936  0.33306217  0.37564128  1
  In  In21  1  0.15359978  0.31752140  0.86384386  1
  In  In22  1  0.15224872  0.68076711  0.40410060  1
  In  In23  1  0.17435390  0.65577089  0.86872656  1
  In  In24  1  0.50813328  0.01087248  0.37406989  1
  In  In25  1  0.49561265  -0.00256134  0.87864674  1
  In  In26  1  0.48798780  0.32762334  0.36849262  1
  In  In27  1  0.49343243  0.34106226  0.88312263  1
  In  In28  1  0.50452817  0.65956839  0.37394782  1
  In  In29  1  0.48849619  0.67379865  0.88020243  1
  In  In30  1  0.85465239  -0.00449661  0.37266912  1
  In  In31  1  0.85016712  0.02612817  0.85714564  1
  In  In32  1  0.83333877  0.33034895  0.37610898  1
  In  In33  1  0.82902795  0.31823012  0.87360972  1
  In  In34  1  0.81678373  0.66618304  0.37697328  1
  In  In35  1  0.84147438  0.67163126  0.86987413  1
  In  In36  1  -0.00548380  0.16829091  0.37795509  1
  In  In37  1  -0.00293500  0.16597028  0.87481678  1
  In  In38  1  0.01353441  0.49157995  0.38890548  1
  In  In39  1  0.01626286  0.49581333  0.87136038  1
  In  In40  1  -0.00277269  0.85602099  0.37856713  1
  In  In41  1  -0.00058426  0.85066264  0.86973431  1
  In  In42  1  0.32068272  0.17607929  0.38382509  1
  In  In43  1  0.32756232  0.16513173  0.87657786  1
  In  In44  1  0.33490217  0.49645402  0.37927021  1
  In  In45  1  0.33635380  0.50381249  0.86574278  1
  In  In46  1  0.31331785  0.83323788  0.38033578  1
  In  In47  1  0.34970240  0.84966916  0.86014698  1
  In  In48  1  0.65780758  0.17646478  0.37990690  1
  In  In49  1  0.67769116  0.15744510  0.88094798  1
  In  In50  1  0.67278300  0.50437299  0.36874828  1
  In  In51  1  0.66386021  0.48167127  0.87558041  1
  In  In52  1  0.68513321  0.82333413  0.36706036  1
  In  In53  1  0.65126522  0.83883696  0.87980570  1
  In  In54  1  0.15555996  0.01125600  0.12675816  1
  In  In55  1  0.16703547  0.00551476  0.62448773  1
  In  In56  1  0.17449199  0.32461459  0.13873324  1
  In  In57  1  0.17046977  0.32776731  0.62372289  1
  In  In58  1  0.16760591  0.67976792  0.13086242  1
  In  In59  1  0.18212049  0.68131660  0.60143691  1
  In  In60  1  0.50130476  0.00399336  0.10585958  1
  In  In61  1  0.48927053  0.00725915  0.63860728  1
  In  In62  1  0.49346451  0.33230556  0.12322373  1
  In  In63  1  0.50107368  0.32182498  0.62782840  1
  In  In64  1  0.50956650  0.67056198  0.11895103  1
  In  In65  1  0.49444447  0.65755381  0.62512978  1
  In  In66  1  0.83625713  0.01260052  0.12564757  1
  In  In67  1  0.82908495  0.00756876  0.62862886  1
  In  In68  1  0.84004784  0.31402312  0.13991514  1
  In  In69  1  0.85030456  0.34372469  0.61467160  1
  In  In70  1  0.82984009  0.65086013  0.13312323  1
  In  In71  1  0.84711096  0.66959629  0.60958886  1
  In  In72  1  0.66670324  0.32746819  0.74941395  1
  In  In73  1  0.33372221  0.65695707  0.25995506  1
  In  In74  1  0.49955495  0.83675069  0.49612207  1
  In  In75  1  -0.00383281  0.66116592  0.26157235  1
  In  In76  1  0.01013725  0.66933129  0.72589579  1
  In  In77  1  0.66266954  0.66803354  0.74437647  1
  In  In78  1  0.17272364  0.49322340  0.00309996  1
  In  In79  1  0.82353776  0.84623936  0.01098511  1
  In  In80  1  0.67624798  -0.00089145  0.24381560  1
  In  In81  1  0.83491538  0.83290736  0.49650913  1
  In  In82  1  0.18542420  0.85406312  -0.01803287  1
  In  In83  1  0.49812969  0.49830395  0.49541033  1
  In  In84  1  0.32983724  -0.00275944  0.24568280  1
  In  In85  1  0.82491689  0.49104081  0.00456475  1
  Cu  Cu86  1  0.66828930  -0.00350641  -0.00447111  1
  Cu  Cu87  1  0.49485855  0.50124094  0.75249342  1
  Cu  Cu88  1  0.33042304  0.33179758  -0.00228492  1
  Cu  Cu89  1  0.83170851  0.84605221  0.74962063  1
  Cu  Cu90  1  0.00372658  0.32346476  0.49819886  1
  Cu  Cu91  1  0.33564045  0.00029229  0.51056225  1
  Cu  Cu92  1  0.84239659  0.17417118  0.74351035  1
  Cu  Cu93  1  0.65962087  0.32716731  0.00411105  1
  Cu  Cu94  1  0.16287525  0.84655595  0.25780085  1
  Cu  Cu95  1  0.67166030  0.33168459  0.49851874  1
  Cu  Cu96  1  0.66443074  0.00668092  0.50005765  1
  Cu  Cu97  1  0.49890268  0.49568149  0.25182889  1
  Cu  Cu98  1  0.16336046  0.83099915  0.74441444  1
  Cu  Cu99  1  0.83473952  0.16478120  0.25282192  1
  Cu  Cu100  1  0.50637406  0.82717005  0.24790429  1
  Cu  Cu101  1  0.33527125  0.33074812  0.50064569  1
  Cu  Cu102  1  0.66160532  0.65595185  -0.00013531  1
  Cu  Cu103  1  0.84690640  0.50198424  0.73898073  1
  Cu  Cu104  1  0.34254500  0.66202912  -0.00227449  1
  Cu  Cu105  1  0.49186226  0.16999734  0.24621824  1
  Cu  Cu106  1  0.16746016  0.16669473  0.74656705  1
  Cu  Cu107  1  0.83114007  0.48724586  0.25397463  1
  Cu  Cu108  1  0.49722327  0.16358467  0.75563110  1
  Cu  Cu109  1  0.15997453  0.16670866  0.26043761  1
  Cu  Cu110  1  0.49563511  0.83562589  0.75466907  1
  Cu  Cu111  1  0.00456241  0.68579497  0.00248752  1
  Cu  Cu112  1  -0.00481244  0.32588092  0.00129359  1
  Cu  Cu113  1  0.16935034  0.48885123  0.74474063  1
  Cu  Cu114  1  0.16258809  0.50049993  0.25940320  1
  Se  Se115  1  0.08919043  0.09666445  0.05413717  1
  Se  Se116  1  0.08504968  0.07842685  0.55001243  1
  Se  Se117  1  0.07502475  0.40817414  0.06150728  1
  Se  Se118  1  0.08836392  0.40666781  0.55106932  1
  Se  Se119  1  0.09127379  0.76369019  0.05626993  1
  Se  Se120  1  0.04969936  0.71714636  0.56200008  1
  Se  Se121  1  0.40263888  0.07320187  0.04546064  1
  Se  Se122  1  0.42268865  0.08410476  0.55869016  1
  Se  Se123  1  0.41357305  0.41614212  0.05048349  1
  Se  Se124  1  0.41312014  0.41219485  0.56268084  1
  Se  Se125  1  0.42273173  0.74919424  0.05021167  1
  Se  Se126  1  0.41347405  0.75106956  0.56144943  1
  Se  Se127  1  0.74358997  0.07920357  0.05614853  1
  Se  Se128  1  0.74996305  0.08580032  0.55475286  1
  Se  Se129  1  0.74352643  0.40177119  0.06889599  1
  Se  Se130  1  0.75445994  0.41764725  0.54901130  1
  Se  Se131  1  0.74343086  0.73527424  0.06136839  1
  Se  Se132  1  0.73716392  0.74404239  0.55300171  1
  Se  Se133  1  0.24229247  0.25749339  0.05433061  1
  Se  Se134  1  0.25377376  0.24486867  0.55408461  1
  Se  Se135  1  0.25627261  0.59456070  0.06249701  1
  Se  Se136  1  0.25320903  0.57420675  0.54868286  1
  Se  Se137  1  0.25563038  0.92244330  0.06639381  1
  Se  Se138  1  0.25136098  0.91539643  0.55967902  1
  Se  Se139  1  0.57526262  0.24361819  0.05659672  1
  Se  Se140  1  0.58363357  0.25419559  0.55181019  1
  Se  Se141  1  0.58146689  0.57202518  0.05512000  1
  Se  Se142  1  0.58962977  0.59255076  0.55339052  1
  Se  Se143  1  0.58776451  0.90995581  0.04893916  1
  Se  Se144  1  0.58491567  0.92649068  0.56010646  1
  Se  Se145  1  0.91281435  0.24671904  0.05849178  1
  Se  Se146  1  0.91704280  0.24285514  0.55111719  1
  Se  Se147  1  0.92372998  0.59230649  0.05330173  1
  Se  Se148  1  0.90662336  0.56982812  0.54484079  1
  Se  Se149  1  0.92937270  0.93269727  0.05570139  1
  Se  Se150  1  0.91921447  0.92487466  0.55777436  1
  Se  Se151  1  0.08937888  0.24410208  0.44419156  1
  Se  Se152  1  0.08151568  0.24919085  0.94512609  1
  Se  Se153  1  0.08688159  0.57555329  0.46041739  1
  Se  Se154  1  0.07967955  0.59319645  0.94703376  1
  Se  Se155  1  0.10227755  0.89191558  0.44975773  1
  Se  Se156  1  0.07370221  0.93662596  0.94192885  1
  Se  Se157  1  0.41976468  0.24886383  0.44726905  1
  Se  Se158  1  0.41396366  0.24846273  0.94535189  1
  Se  Se159  1  0.40634944  0.59863337  0.44528659  1
  Se  Se160  1  0.41827648  0.57287461  0.94322409  1
  Se  Se161  1  0.40867660  0.92992816  0.43797999  1
  Se  Se162  1  0.41854040  0.90621066  0.94519983  1
  Se  Se163  1  0.75374053  0.24487517  0.44710120  1
  Se  Se164  1  0.74883335  0.25060363  0.95058802  1
  Se  Se165  1  0.74132453  0.58187303  0.44645373  1
  Se  Se166  1  0.74736570  0.58699979  0.93581261  1
  Se  Se167  1  0.74213394  0.92699718  0.43801029  1
  Se  Se168  1  0.75397958  0.92583035  0.93164219  1
  Se  Se169  1  0.25405816  0.08410253  0.45476168  1
  Se  Se170  1  0.25068199  0.08264616  0.94905176  1
  Se  Se171  1  0.25213590  0.41290565  0.44627058  1
  Se  Se172  1  0.25003490  0.40824011  0.93233779  1
  Se  Se173  1  0.25787695  0.75090316  0.45976241  1
  Se  Se174  1  0.26113803  0.73951604  0.93586946  1
  Se  Se175  1  0.57816964  0.09049935  0.44978157  1
  Se  Se176  1  0.58368634  0.08167692  0.94476253  1
  Se  Se177  1  0.58766050  0.40775040  0.43619250  1
  Se  Se178  1  0.58223284  0.41763563  0.95291513  1
  Se  Se179  1  0.59324330  0.74708393  0.43907859  1
  Se  Se180  1  0.58301333  0.74501726  0.94756668  1
  Se  Se181  1  0.92923895  0.07014558  0.44705699  1
  Se  Se182  1  0.90437333  0.09377396  0.94346505  1
  Se  Se183  1  0.91799645  0.40871625  0.44715413  1
  Se  Se184  1  0.92306513  0.41374020  0.93933587  1
  Se  Se185  1  0.92327957  0.74463433  0.43474473  1
  Se  Se186  1  0.91859719  0.75866464  0.94318889  1
  Se  Se187  1  0.25042668  0.25188658  0.30486982  1
  Se  Se188  1  0.25292278  0.24827696  0.80094656  1
  Se  Se189  1  0.23289489  0.58583931  0.32233215  1
  Se  Se190  1  0.25019498  0.57948867  0.79430770  1
  Se  Se191  1  0.23806404  0.93001440  0.31760985  1
  Se  Se192  1  0.23867626  0.91272179  0.80556483  1
  Se  Se193  1  0.57771919  0.24698988  0.30263104  1
  Se  Se194  1  0.57894155  0.24566808  0.81556066  1
  Se  Se195  1  0.58194172  0.58265206  0.30066969  1
  Se  Se196  1  0.58106798  0.57733628  0.81158342  1
  Se  Se197  1  0.58273810  0.91121457  0.30777460  1
  Se  Se198  1  0.58141287  0.91960310  0.80460440  1
  Se  Se199  1  0.91730614  0.25011597  0.30505597  1
  Se  Se200  1  0.92078939  0.25500008  0.80265634  1
  Se  Se201  1  0.90881433  0.56662967  0.31779826  1
  Se  Se202  1  0.92450995  0.58405621  0.80063565  1
  Se  Se203  1  0.91123489  0.90476386  0.29786856  1
  Se  Se204  1  0.92390672  0.92716862  0.79475081  1
  Se  Se205  1  0.08286771  0.07875739  0.31438159  1
  Se  Se206  1  0.08177567  0.08806458  0.80284093  1
  Se  Se207  1  0.07778184  0.41454933  0.30738953  1
  Se  Se208  1  0.07980019  0.41111244  0.79589254  1
  Se  Se209  1  0.09178786  0.75351879  0.31408353  1
  Se  Se210  1  0.08386851  0.75058493  0.80745065  1
  Se  Se211  1  0.41579296  0.09063448  0.30925511  1
  Se  Se212  1  0.41330530  0.08100688  0.80894518  1
  Se  Se213  1  0.40870748  0.41832794  0.30312329  1
  Se  Se214  1  0.41737284  0.41028349  0.80327552  1
  Se  Se215  1  0.42066911  0.76133152  0.31295305  1
  Se  Se216  1  0.41397141  0.74206197  0.79939116  1
  Se  Se217  1  0.75315653  0.08638344  0.31446620  1
  Se  Se218  1  0.74871628  0.09659057  0.79492097  1
  Se  Se219  1  0.74394744  0.40605136  0.30546866  1
  Se  Se220  1  0.76383138  0.42454997  0.80154207  1
  Se  Se221  1  0.75741694  0.74292405  0.29430417  1
  Se  Se222  1  0.75306009  0.75901571  0.80640912  1
  Se  Se223  1  0.24426015  0.09816813  0.19314919  1
  Se  Se224  1  0.25250721  0.08156361  0.69613562  1
  Se  Se225  1  0.24774050  0.42125916  0.20358934  1
  Se  Se226  1  0.25698675  0.40593614  0.69519247  1
  Se  Se227  1  0.24895988  0.76458699  0.20290827  1
  Se  Se228  1  0.24239562  0.74240011  0.69211070  1
  Se  Se229  1  0.57089585  0.08184517  0.19074416  1
  Se  Se230  1  0.58459481  0.08846012  0.69894074  1
  Se  Se231  1  0.57723213  0.40878772  0.19655023  1
  Se  Se232  1  0.57967858  0.42692998  0.69125528  1
  Se  Se233  1  0.58824895  0.74208249  0.19656551  1
  Se  Se234  1  0.57388381  0.76295480  0.68649459  1
  Se  Se235  1  0.91938116  0.08506078  0.19845342  1
  Se  Se236  1  0.92192802  0.08498343  0.69293386  1
  Se  Se237  1  0.92007659  0.40838310  0.20222523  1
  Se  Se238  1  0.92944502  0.41630436  0.69059516  1
  Se  Se239  1  0.91941557  0.74760473  0.18838449  1
  Se  Se240  1  0.90645911  0.76531002  0.68519591  1
  Se  Se241  1  0.07984664  0.25082332  0.20262510  1
  Se  Se242  1  0.08364344  0.24813837  0.69209157  1
  Se  Se243  1  0.08777480  0.57738472  0.19151396  1
  Se  Se244  1  0.10094156  0.57143254  0.67755732  1
  Se  Se245  1  0.08234977  0.92797213  0.20165139  1
  Se  Se246  1  0.08310970  0.91877527  0.69378064  1
  Se  Se247  1  0.40647677  0.24995929  0.19145626  1
  Se  Se248  1  0.41783754  0.24803296  0.69961867  1
  Se  Se249  1  0.41952234  0.57864552  0.18927663  1
  Se  Se250  1  0.41323096  0.58550395  0.69907165  1
  Se  Se251  1  0.43141837  0.91195087  0.18883459  1
  Se  Se252  1  0.40892517  0.91967070  0.70433861  1
  Se  Se253  1  0.74085947  0.24206268  0.20283126  1
  Se  Se254  1  0.75857427  0.25139261  0.68265034  1
  Se  Se255  1  0.74807490  0.57468559  0.20379622  1
  Se  Se256  1  0.76068268  0.58208222  0.68638309  1
  Se  Se257  1  0.76571302  0.90436598  0.18881456  1
  Se  Se258  1  0.74371458  0.92779165  0.69974105  1
