# generated using pymatgen
data_In86Cu29Se144
_symmetry_space_group_name_H-M   'P 1'
_cell_length_a   17.57736681
_cell_length_b   17.57811136
_cell_length_c   23.44090723
_cell_angle_alpha   89.97802804
_cell_angle_beta   89.99005828
_cell_angle_gamma   89.99681866
_symmetry_Int_Tables_number   1
_chemical_formula_structural   In86Cu29Se144
_chemical_formula_sum   'In86 Cu29 Se144'
_cell_volume   7242.69846039
_cell_formula_units_Z   1
loop_
 _symmetry_equiv_pos_site_id
 _symmetry_equiv_pos_as_xyz
  1  'x, y, z'
loop_
 _atom_site_type_symbol
 _atom_site_label
 _atom_site_symmetry_multiplicity
 _atom_site_fract_x
 _atom_site_fract_y
 _atom_site_fract_z
 _atom_site_occupancy
  In  In0  1  0.00132706  0.16404388  0.12354007  1
  In  In1  1  -0.00078883  0.16435376  0.62660308  1
  In  In2  1  -0.00232416  0.49710336  0.12925932  1
  In  In3  1  -0.00761563  0.48882615  0.62904067  1
  In  In4  1  0.00912842  0.84172208  0.11781653  1
  In  In5  1  0.00597870  0.84791807  0.62154369  1
  In  In6  1  0.34117663  0.17257370  0.12334394  1
  In  In7  1  0.34025245  0.17794587  0.62044476  1
  In  In8  1  0.32486052  0.48161250  0.12492613  1
  In  In9  1  0.32908699  0.50202304  0.63194115  1
  In  In10  1  0.32676560  0.84770732  0.12416633  1
  In  In11  1  0.33572874  0.82808195  0.61373352  1
  In  In12  1  0.66091264  0.15351449  0.12331120  1
  In  In13  1  0.67921598  0.18233911  0.60209700  1
  In  In14  1  0.67317272  0.51090928  0.12869633  1
  In  In15  1  0.66530105  0.49880572  0.63292300  1
  In  In16  1  0.67354925  0.82869650  0.13685092  1
  In  In17  1  0.65897752  0.83011671  0.61218336  1
  In  In18  1  0.16225539  0.00874321  0.37963214  1
  In  In19  1  0.15642671  0.01162791  0.87962901  1
  In  In20  1  0.15115868  0.32149290  0.36240053  1
  In  In21  1  0.15956982  0.32791296  0.86860505  1
  In  In22  1  0.17707093  0.67572609  0.37760267  1
  In  In23  1  0.17174188  0.66379188  0.87539411  1
  In  In24  1  0.51690441  -0.00535947  0.38371935  1
  In  In25  1  0.51272357  0.00469656  0.87531329  1
  In  In26  1  0.49402297  0.33242826  0.37849988  1
  In  In27  1  0.49189152  0.32488062  0.86975049  1
  In  In28  1  0.50841331  0.66737434  0.37174915  1
  In  In29  1  0.49813684  0.66864793  0.86264578  1
  In  In30  1  0.83148728  0.00043683  0.37384393  1
  In  In31  1  0.83973899  -0.00769804  0.88072560  1
  In  In32  1  0.83301661  0.30726882  0.37761795  1
  In  In33  1  0.82341651  0.32280498  0.87010895  1
  In  In34  1  0.83197450  0.68983046  0.37752523  1
  In  In35  1  0.83181816  0.68355199  0.87389589  1
  In  In36  1  -0.00014036  0.16017177  0.37210368  1
  In  In37  1  -0.00234783  0.16482154  0.87370998  1
  In  In38  1  0.00769003  0.48662515  0.37221784  1
  In  In39  1  0.01010352  0.49461150  0.87553502  1
  In  In40  1  -0.01288221  0.85093734  0.38080592  1
  In  In41  1  -0.01410233  0.84123219  0.88222999  1
  In  In42  1  0.32744700  0.17083908  0.38279623  1
  In  In43  1  0.32685217  0.17322734  0.87948568  1
  In  In44  1  0.33934783  0.49583433  0.37219464  1
  In  In45  1  0.32818148  0.49990661  0.86558492  1
  In  In46  1  0.33593458  0.82728371  0.38873177  1
  In  In47  1  0.33301778  0.82325001  0.87114665  1
  In  In48  1  0.67940567  0.15776089  0.39047027  1
  In  In49  1  0.66326602  0.16912656  0.88130053  1
  In  In50  1  0.65433336  0.49962976  0.37247074  1
  In  In51  1  0.66326715  0.49868159  0.86644080  1
  In  In52  1  0.66722414  0.84051806  0.37095463  1
  In  In53  1  0.67810850  0.84062748  0.87078955  1
  In  In54  1  0.15701251  -0.00762695  0.12037682  1
  In  In55  1  0.15983897  -0.00605590  0.62051236  1
  In  In56  1  0.18341212  0.32253026  0.13751811  1
  In  In57  1  0.17299081  0.32591599  0.63302988  1
  In  In58  1  0.15537119  0.67710003  0.12274991  1
  In  In59  1  0.17356475  0.68026368  0.62270092  1
  In  In60  1  0.50079993  0.01477724  0.13528182  1
  In  In61  1  0.51498762  0.01044297  0.60411105  1
  In  In62  1  0.50191015  0.30561512  0.13524508  1
  In  In63  1  0.50479158  0.32564254  0.63250995  1
  In  In64  1  0.51176084  0.67648299  0.12864968  1
  In  In65  1  0.49349881  0.67422677  0.62592547  1
  In  In66  1  0.83466156  0.00121823  0.12689760  1
  In  In67  1  0.83497549  0.01374862  0.61340373  1
  In  In68  1  0.85027960  0.33256032  0.12802284  1
  In  In69  1  0.83611960  0.32412650  0.63050589  1
  In  In70  1  0.82367593  0.66733746  0.12572176  1
  In  In71  1  0.82046811  0.66753082  0.62687183  1
  In  In72  1  0.33405002  -0.00248588  0.74012196  1
  In  In73  1  0.66751613  0.32821733  0.25648182  1
  In  In74  1  0.83228031  0.50129680  0.50778232  1
  In  In75  1  0.33846996  0.66159975  0.25715876  1
  In  In76  1  0.33758359  0.00061307  0.25666034  1
  In  In77  1  0.49891824  0.84274724  0.00133523  1
  In  In78  1  -0.00187104  0.66621276  0.24726925  1
  In  In79  1  0.83681802  0.50194049  0.00641846  1
  In  In80  1  0.16783687  0.50231060  0.50278629  1
  In  In81  1  0.67005876  0.00235647  0.73724670  1
  In  In82  1  0.49762715  0.50093021  0.49425686  1
  In  In83  1  0.49597475  0.49456860  -0.01176554  1
  In  In84  1  0.16381756  0.49787634  -0.00411361  1
  In  In85  1  0.00151533  0.66296657  0.75531140  1
  Cu  Cu86  1  0.32385624  0.67443230  -0.00173130  1
  Cu  Cu87  1  0.32754879  0.33478671  0.50127459  1
  Cu  Cu88  1  0.16780302  0.49920124  0.75134756  1
  Cu  Cu89  1  0.00659772  0.67662094  0.50193840  1
  Cu  Cu90  1  0.50056221  0.82801232  0.73762165  1
  Cu  Cu91  1  0.67171312  0.32019428  0.00234157  1
  Cu  Cu92  1  0.83444514  0.83403521  0.75093760  1
  Cu  Cu93  1  0.66678245  0.67174410  0.49690691  1
  Cu  Cu94  1  0.16424976  0.15912834  0.24981667  1
  Cu  Cu95  1  0.16740175  0.83604231  0.74481796  1
  Cu  Cu96  1  0.32758730  0.00545466  0.00271661  1
  Cu  Cu97  1  0.32876118  0.00335914  0.49908323  1
  Cu  Cu98  1  0.83087658  0.49119044  0.74912838  1
  Cu  Cu99  1  0.83109382  0.16415293  0.74720072  1
  Cu  Cu100  1  -0.00302220  0.00469006  0.00133860  1
  Cu  Cu101  1  -0.00303761  0.32014269  0.49937123  1
  Cu  Cu102  1  0.33790426  0.32200534  0.00108032  1
  Cu  Cu103  1  0.83871850  0.16314780  0.25140472  1
  Cu  Cu104  1  0.16165125  0.16706180  0.75274843  1
  Cu  Cu105  1  0.67110090  0.00164547  0.00253395  1
  Cu  Cu106  1  0.16244283  0.83699136  0.25017470  1
  Cu  Cu107  1  0.83052645  0.84337446  0.25289775  1
  Cu  Cu108  1  -0.00037570  0.00524656  0.49802541  1
  Cu  Cu109  1  0.00374499  0.32580779  -0.00015454  1
  Cu  Cu110  1  0.66821209  0.67364318  -0.00122227  1
  Cu  Cu111  1  0.83423937  0.50271903  0.25045369  1
  Cu  Cu112  1  0.49800735  0.16909288  0.74898059  1
  Cu  Cu113  1  0.50109901  0.50182188  0.74741828  1
  Cu  Cu114  1  0.49782682  0.49796426  0.25050301  1
  Se  Se115  1  0.08550844  0.08543829  0.05228816  1
  Se  Se116  1  0.08264537  0.08569870  0.55493200  1
  Se  Se117  1  0.08121319  0.40762903  0.06124816  1
  Se  Se118  1  0.07557396  0.40642664  0.55746233  1
  Se  Se119  1  0.08612670  0.75547725  0.04874030  1
  Se  Se120  1  0.08807491  0.75953666  0.55576567  1
  Se  Se121  1  0.41691189  0.07931734  0.05741482  1
  Se  Se122  1  0.41186221  0.08858212  0.55059034  1
  Se  Se123  1  0.41965353  0.40460936  0.05830968  1
  Se  Se124  1  0.40953216  0.41512302  0.56017184  1
  Se  Se125  1  0.40960641  0.74581413  0.05974091  1
  Se  Se126  1  0.43193649  0.75782674  0.54880699  1
  Se  Se127  1  0.75507768  0.08543468  0.05503568  1
  Se  Se128  1  0.72380827  0.06165963  0.54970186  1
  Se  Se129  1  0.74260413  0.40782477  0.06290431  1
  Se  Se130  1  0.74240074  0.40893246  0.56247783  1
  Se  Se131  1  0.74675735  0.75433858  0.05655892  1
  Se  Se132  1  0.75545650  0.74980280  0.55010121  1
  Se  Se133  1  0.24818288  0.24692775  0.05554923  1
  Se  Se134  1  0.24362998  0.25066521  0.55397828  1
  Se  Se135  1  0.25525514  0.58633026  0.05969341  1
  Se  Se136  1  0.26233184  0.59349211  0.55581859  1
  Se  Se137  1  0.24493074  0.91549703  0.04912157  1
  Se  Se138  1  0.24889519  0.91716797  0.55334291  1
  Se  Se139  1  0.58228606  0.24360697  0.05547327  1
  Se  Se140  1  0.56560975  0.24752102  0.55251233  1
  Se  Se141  1  0.58553279  0.58691186  0.05191826  1
  Se  Se142  1  0.59107095  0.58625218  0.55673307  1
  Se  Se143  1  0.58937922  0.92415337  0.06521553  1
  Se  Se144  1  0.58543821  0.91425171  0.54139750  1
  Se  Se145  1  0.91652618  0.24722066  0.05350079  1
  Se  Se146  1  0.91191175  0.24371050  0.55626319  1
  Se  Se147  1  0.92828597  0.59550414  0.06126724  1
  Se  Se148  1  0.92894346  0.59436039  0.56224360  1
  Se  Se149  1  0.91495238  0.91938624  0.05498848  1
  Se  Se150  1  0.91700038  0.92062746  0.55196923  1
  Se  Se151  1  0.08319801  0.24506761  0.44210785  1
  Se  Se152  1  0.08591216  0.24650718  0.94229377  1
  Se  Se153  1  0.07512029  0.59008213  0.44039578  1
  Se  Se154  1  0.07119959  0.59506147  0.94490197  1
  Se  Se155  1  0.08437177  0.91898734  0.44724733  1
  Se  Se156  1  0.07871102  0.92089431  0.94542743  1
  Se  Se157  1  0.41453130  0.25273586  0.45043355  1
  Se  Se158  1  0.42390077  0.24243784  0.94675717  1
  Se  Se159  1  0.40655697  0.59570057  0.43967382  1
  Se  Se160  1  0.40462019  0.59533699  0.93815666  1
  Se  Se161  1  0.41584262  0.92296161  0.44732786  1
  Se  Se162  1  0.40705125  0.92823130  0.93746778  1
  Se  Se163  1  0.75069772  0.25307433  0.45689137  1
  Se  Se164  1  0.75783955  0.24160099  0.94875640  1
  Se  Se165  1  0.74571071  0.58664178  0.43892867  1
  Se  Se166  1  0.74358536  0.58523466  0.94103498  1
  Se  Se167  1  0.77407941  0.89271384  0.43665138  1
  Se  Se168  1  0.74977871  0.91416651  0.94879721  1
  Se  Se169  1  0.24286029  0.08889926  0.45060708  1
  Se  Se170  1  0.24621164  0.08792431  0.94681472  1
  Se  Se171  1  0.24854387  0.41048518  0.43734748  1
  Se  Se172  1  0.26019159  0.40668290  0.94092264  1
  Se  Se173  1  0.24477477  0.75192554  0.45441739  1
  Se  Se174  1  0.24323222  0.75694245  0.94411518  1
  Se  Se175  1  0.59065797  0.07843743  0.45686371  1
  Se  Se176  1  0.58338477  0.08290333  0.95116030  1
  Se  Se177  1  0.59436908  0.40546074  0.44659289  1
  Se  Se178  1  0.59555629  0.40260398  0.94054842  1
  Se  Se179  1  0.58535247  0.75228198  0.44074107  1
  Se  Se180  1  0.58391651  0.74895342  0.93783491  1
  Se  Se181  1  0.91372035  0.08556035  0.44383774  1
  Se  Se182  1  0.91415446  0.08630555  0.94557670  1
  Se  Se183  1  0.91981355  0.41001717  0.44431338  1
  Se  Se184  1  0.92147577  0.40948358  0.94259566  1
  Se  Se185  1  0.91858080  0.75662649  0.45088529  1
  Se  Se186  1  0.91278138  0.74874514  0.94870611  1
  Se  Se187  1  0.24848813  0.24096398  0.30416867  1
  Se  Se188  1  0.25041671  0.24877079  0.80318569  1
  Se  Se189  1  0.23833039  0.57362530  0.30868629  1
  Se  Se190  1  0.24938580  0.58944627  0.79947241  1
  Se  Se191  1  0.24572965  0.90808690  0.31415611  1
  Se  Se192  1  0.24535905  0.91678911  0.80852431  1
  Se  Se193  1  0.58384077  0.24031640  0.31941957  1
  Se  Se194  1  0.58481637  0.24555362  0.80618144  1
  Se  Se195  1  0.58320751  0.58298208  0.29880935  1
  Se  Se196  1  0.58565425  0.58659815  0.79910491  1
  Se  Se197  1  0.58522018  0.92358758  0.30253095  1
  Se  Se198  1  0.57715013  0.91059142  0.80007471  1
  Se  Se199  1  0.92225050  0.24955421  0.30167446  1
  Se  Se200  1  0.91393131  0.24665017  0.80324618  1
  Se  Se201  1  0.91057152  0.58172455  0.31583739  1
  Se  Se202  1  0.90640097  0.57291048  0.81315195  1
  Se  Se203  1  0.91994424  0.92533816  0.30030965  1
  Se  Se204  1  0.91661787  0.91865606  0.80300827  1
  Se  Se205  1  0.08081113  0.07525630  0.30181266  1
  Se  Se206  1  0.07792855  0.08096732  0.80186252  1
  Se  Se207  1  0.08391878  0.41777931  0.29607547  1
  Se  Se208  1  0.08072448  0.41541747  0.79994884  1
  Se  Se209  1  0.08272870  0.75699381  0.31173863  1
  Se  Se210  1  0.08809592  0.76005816  0.81036669  1
  Se  Se211  1  0.42258297  0.08613369  0.32047578  1
  Se  Se212  1  0.42068949  0.08473254  0.80762403  1
  Se  Se213  1  0.41844910  0.41227073  0.30320793  1
  Se  Se214  1  0.41897594  0.41893804  0.80361618  1
  Se  Se215  1  0.42294339  0.76232446  0.30852016  1
  Se  Se216  1  0.41481945  0.75267331  0.79571955  1
  Se  Se217  1  0.75012913  0.08898195  0.30736105  1
  Se  Se218  1  0.75245222  0.08332197  0.80966624  1
  Se  Se219  1  0.76035695  0.41993013  0.31524532  1
  Se  Se220  1  0.74488763  0.41002485  0.80234670  1
  Se  Se221  1  0.74926639  0.75242498  0.30029100  1
  Se  Se222  1  0.74621641  0.75063886  0.79881065  1
  Se  Se223  1  0.24631525  0.08031542  0.18909489  1
  Se  Se224  1  0.24235167  0.09271998  0.68746501  1
  Se  Se225  1  0.25374261  0.41495348  0.20478564  1
  Se  Se226  1  0.25193306  0.41453845  0.69969059  1
  Se  Se227  1  0.24666584  0.75536552  0.19498529  1
  Se  Se228  1  0.25620589  0.75777952  0.69375968  1
  Se  Se229  1  0.58285913  0.09279415  0.20412545  1
  Se  Se230  1  0.57827434  0.09627510  0.68508455  1
  Se  Se231  1  0.58089136  0.41935467  0.18935167  1
  Se  Se232  1  0.58400979  0.41328622  0.69944169  1
  Se  Se233  1  0.58454702  0.75071166  0.20332196  1
  Se  Se234  1  0.59200607  0.74764576  0.68993103  1
  Se  Se235  1  0.92093625  0.08211232  0.19518887  1
  Se  Se236  1  0.91281869  0.07975110  0.69366856  1
  Se  Se237  1  0.91955720  0.41808181  0.20212263  1
  Se  Se238  1  0.91750833  0.40755000  0.70084826  1
  Se  Se239  1  0.90994854  0.76091462  0.19042634  1
  Se  Se240  1  0.91672058  0.75252291  0.69070246  1
  Se  Se241  1  0.08341412  0.24541930  0.19508831  1
  Se  Se242  1  0.07861274  0.25037818  0.69718205  1
  Se  Se243  1  0.09602614  0.57667754  0.19312934  1
  Se  Se244  1  0.09048266  0.57848059  0.68729425  1
  Se  Se245  1  0.07879067  0.91863549  0.19724225  1
  Se  Se246  1  0.08146757  0.92257735  0.69895346  1
  Se  Se247  1  0.40941759  0.24370496  0.20496660  1
  Se  Se248  1  0.41024634  0.25338990  0.70034824  1
  Se  Se249  1  0.42120021  0.57562025  0.18479703  1
  Se  Se250  1  0.41747684  0.58589513  0.69488143  1
  Se  Se251  1  0.42494780  0.90781227  0.19434163  1
  Se  Se252  1  0.43181183  0.91916001  0.67893115  1
  Se  Se253  1  0.75787147  0.24573803  0.19104831  1
  Se  Se254  1  0.74311150  0.24133033  0.69212208  1
  Se  Se255  1  0.74984928  0.58855969  0.20246650  1
  Se  Se256  1  0.75122845  0.58125715  0.69948571  1
  Se  Se257  1  0.74688207  0.92671755  0.19876104  1
  Se  Se258  1  0.75916833  0.90799322  0.68237706  1
