# generated using pymatgen
data_In86Cu29Se144
_symmetry_space_group_name_H-M   'P 1'
_cell_length_a   17.58013660
_cell_length_b   17.57535175
_cell_length_c   23.43725601
_cell_angle_alpha   89.97920393
_cell_angle_beta   89.99613231
_cell_angle_gamma   90.01639603
_symmetry_Int_Tables_number   1
_chemical_formula_structural   In86Cu29Se144
_chemical_formula_sum   'In86 Cu29 Se144'
_cell_volume   7241.57424308
_cell_formula_units_Z   1
loop_
 _symmetry_equiv_pos_site_id
 _symmetry_equiv_pos_as_xyz
  1  'x, y, z'
loop_
 _atom_site_type_symbol
 _atom_site_label
 _atom_site_symmetry_multiplicity
 _atom_site_fract_x
 _atom_site_fract_y
 _atom_site_fract_z
 _atom_site_occupancy
  In  In0  1  -0.01248415  0.16177029  0.12357296  1
  In  In1  1  -0.00964688  0.17308339  0.62905172  1
  In  In2  1  -0.01456876  0.51620650  0.12251526  1
  In  In3  1  -0.00519266  0.50020865  0.63543600  1
  In  In4  1  0.00271711  0.83073096  0.13881642  1
  In  In5  1  -0.00153564  0.83674464  0.62789512  1
  In  In6  1  0.35606570  0.16567957  0.12809128  1
  In  In7  1  0.33878594  0.17446048  0.62750177  1
  In  In8  1  0.33823613  0.49751404  0.12922530  1
  In  In9  1  0.33707747  0.50050179  0.63324077  1
  In  In10  1  0.33767610  0.81017147  0.13239689  1
  In  In11  1  0.32212494  0.82482193  0.61476252  1
  In  In12  1  0.66839505  0.16324336  0.11978426  1
  In  In13  1  0.66991199  0.14503584  0.62771720  1
  In  In14  1  0.68185189  0.51885391  0.10596163  1
  In  In15  1  0.67790022  0.51740123  0.62658202  1
  In  In16  1  0.66729993  0.83580981  0.13024920  1
  In  In17  1  0.67060855  0.83151999  0.61618374  1
  In  In18  1  0.14754361  -0.00496301  0.37313469  1
  In  In19  1  0.15926438  0.00661629  0.86936275  1
  In  In20  1  0.17328757  0.33059788  0.37057738  1
  In  In21  1  0.16883010  0.33972567  0.86621636  1
  In  In22  1  0.17477988  0.68079272  0.36022126  1
  In  In23  1  0.16297699  0.66206696  0.86953739  1
  In  In24  1  0.50323802  -0.01813422  0.37839231  1
  In  In25  1  0.51405896  -0.01419460  0.88250409  1
  In  In26  1  0.49778726  0.34444599  0.37260250  1
  In  In27  1  0.49355365  0.34444069  0.88070609  1
  In  In28  1  0.51367822  0.68617163  0.35957049  1
  In  In29  1  0.49993885  0.66884043  0.87624969  1
  In  In30  1  0.82916788  -0.00871189  0.37713189  1
  In  In31  1  0.83254202  0.00239910  0.86833036  1
  In  In32  1  0.82745650  0.33226939  0.38054371  1
  In  In33  1  0.83246740  0.33199749  0.87709761  1
  In  In34  1  0.83743719  0.67567087  0.36791941  1
  In  In35  1  0.83188660  0.66585118  0.87600947  1
  In  In36  1  -0.00290186  0.15007478  0.37443200  1
  In  In37  1  -0.01622709  0.15953287  0.86624204  1
  In  In38  1  -0.00744251  0.53313061  0.36940807  1
  In  In39  1  -0.00291834  0.50046640  0.87363484  1
  In  In40  1  -0.00596333  0.82658013  0.37650033  1
  In  In41  1  -0.00745769  0.83369385  0.86471840  1
  In  In42  1  0.33656391  0.17364795  0.37223798  1
  In  In43  1  0.33499398  0.17770910  0.87397489  1
  In  In44  1  0.33175535  0.50379845  0.36704852  1
  In  In45  1  0.33750703  0.50821045  0.86837715  1
  In  In46  1  0.34330188  0.82269172  0.38101284  1
  In  In47  1  0.35334840  0.83163130  0.87678557  1
  In  In48  1  0.68480441  0.15897715  0.38266595  1
  In  In49  1  0.67590328  0.15710880  0.87869955  1
  In  In50  1  0.66397476  0.50725586  0.36905534  1
  In  In51  1  0.65648633  0.52629603  0.89683481  1
  In  In52  1  0.66593301  0.83474059  0.37838645  1
  In  In53  1  0.65446917  0.81950803  0.86707580  1
  In  In54  1  0.15841590  -0.01793359  0.13320250  1
  In  In55  1  0.16745467  -0.01699027  0.62185073  1
  In  In56  1  0.17372719  0.34567929  0.12301092  1
  In  In57  1  0.16720400  0.33052881  0.63104911  1
  In  In58  1  0.16543499  0.67261254  0.13425571  1
  In  In59  1  0.15883408  0.67100111  0.63015292  1
  In  In60  1  0.51539171  0.00875480  0.12106430  1
  In  In61  1  0.51740486  -0.01192277  0.62622599  1
  In  In62  1  0.50222991  0.33280174  0.12132284  1
  In  In63  1  0.49348422  0.33356038  0.63373425  1
  In  In64  1  0.50445121  0.66399563  0.12137536  1
  In  In65  1  0.49981108  0.67211506  0.62723722  1
  In  In66  1  0.82921000  0.00107280  0.13217646  1
  In  In67  1  0.82766685  -0.00081919  0.62039088  1
  In  In68  1  0.83656717  0.32963921  0.11519681  1
  In  In69  1  0.84550146  0.33381943  0.62607264  1
  In  In70  1  0.82474260  0.66191273  0.12617881  1
  In  In71  1  0.82250377  0.68579215  0.63763782  1
  In  In72  1  0.32932122  -0.00132504  0.74675925  1
  In  In73  1  0.16722664  0.16577300  -0.00737768  1
  In  In74  1  0.66434066  0.33911222  0.24779067  1
  In  In75  1  0.16885015  0.50025004  0.49308933  1
  In  In76  1  0.50263906  0.15898154  0.50138386  1
  In  In77  1  0.33510219  -0.00094358  0.25520108  1
  In  In78  1  0.16924487  0.83094431  0.01003075  1
  In  In79  1  0.16493124  0.15806546  0.50612463  1
  In  In80  1  0.00642163  0.33794257  0.24279517  1
  In  In81  1  0.83077941  0.83092227  0.00340597  1
  In  In82  1  0.66498126  0.33748075  0.76100121  1
  In  In83  1  0.49952737  0.50570398  0.50616681  1
  In  In84  1  0.16562355  0.50057558  -0.00275266  1
  In  In85  1  0.83621937  0.50715568  0.49363335  1
  Cu  Cu86  1  0.34286903  0.32905542  0.00154485  1
  Cu  Cu87  1  0.34586208  -0.00162354  0.00335437  1
  Cu  Cu88  1  0.82869314  0.83622896  0.25364652  1
  Cu  Cu89  1  0.17304378  0.16716641  0.25178413  1
  Cu  Cu90  1  0.33387066  0.66476264  0.49663393  1
  Cu  Cu91  1  0.49538395  0.50631376  0.24587716  1
  Cu  Cu92  1  0.66803225  0.32694286  0.50406019  1
  Cu  Cu93  1  0.67265526  -0.00171917  0.00191051  1
  Cu  Cu94  1  -0.00362968  0.00050203  -0.00444924  1
  Cu  Cu95  1  -0.00621559  0.33005392  -0.00439676  1
  Cu  Cu96  1  0.50415052  0.82697368  0.74862077  1
  Cu  Cu97  1  -0.01211414  -0.00914090  0.49699735  1
  Cu  Cu98  1  0.82807218  0.16576143  0.74874119  1
  Cu  Cu99  1  0.16650130  0.50052886  0.74966983  1
  Cu  Cu100  1  0.66508251  0.32848690  -0.00345929  1
  Cu  Cu101  1  0.83746197  0.16089534  0.25323302  1
  Cu  Cu102  1  0.15571018  0.17006127  0.75044348  1
  Cu  Cu103  1  0.34017342  0.66569437  -0.00116293  1
  Cu  Cu104  1  0.00176248  0.33241893  0.50092636  1
  Cu  Cu105  1  0.33141373  -0.00336281  0.49795143  1
  Cu  Cu106  1  -0.00395873  0.67799623  0.50571088  1
  Cu  Cu107  1  0.16824259  0.82782367  0.74488250  1
  Cu  Cu108  1  0.49616410  0.16409687  0.75030432  1
  Cu  Cu109  1  0.83198886  0.50664352  0.75536836  1
  Cu  Cu110  1  0.16905668  0.50079317  0.24763429  1
  Cu  Cu111  1  0.83307392  0.83882262  0.74615605  1
  Cu  Cu112  1  0.50218802  0.50498724  0.75775274  1
  Cu  Cu113  1  0.50116605  0.83250157  0.24943662  1
  Cu  Cu114  1  0.51108309  0.17134435  0.24626085  1
  Se  Se115  1  0.08273754  0.07377532  0.05727692  1
  Se  Se116  1  0.06877388  0.06971345  0.56055153  1
  Se  Se117  1  0.07094770  0.41075099  0.05717251  1
  Se  Se118  1  0.07840915  0.41504009  0.55977102  1
  Se  Se119  1  0.07061623  0.74189692  0.06073085  1
  Se  Se120  1  0.08536983  0.75562527  0.55817571  1
  Se  Se121  1  0.42695022  0.08743823  0.05228356  1
  Se  Se122  1  0.40826371  0.07171418  0.56318323  1
  Se  Se123  1  0.41639519  0.41860385  0.05601935  1
  Se  Se124  1  0.40899305  0.40877862  0.55832715  1
  Se  Se125  1  0.41995063  0.75138616  0.05304862  1
  Se  Se126  1  0.41659169  0.74571850  0.55314114  1
  Se  Se127  1  0.75749448  0.08067907  0.05500630  1
  Se  Se128  1  0.75067826  0.08565352  0.55003362  1
  Se  Se129  1  0.74986417  0.41049840  0.04967268  1
  Se  Se130  1  0.74774732  0.41464412  0.55931057  1
  Se  Se131  1  0.73426282  0.74201340  0.05544117  1
  Se  Se132  1  0.75993049  0.74782298  0.55188597  1
  Se  Se133  1  0.25707023  0.25070892  0.05884536  1
  Se  Se134  1  0.25603966  0.25758945  0.55504155  1
  Se  Se135  1  0.25270829  0.59217874  0.05943905  1
  Se  Se136  1  0.25548439  0.58614825  0.55920813  1
  Se  Se137  1  0.26393438  0.92309459  0.06521549  1
  Se  Se138  1  0.24393466  0.91125144  0.54504130  1
  Se  Se139  1  0.58376846  0.24723805  0.05419089  1
  Se  Se140  1  0.58642561  0.25356005  0.56633779  1
  Se  Se141  1  0.56697895  0.56929845  0.05010728  1
  Se  Se142  1  0.59651562  0.59773040  0.55451535  1
  Se  Se143  1  0.58915268  0.91543435  0.05547534  1
  Se  Se144  1  0.58093923  0.91017499  0.54874356  1
  Se  Se145  1  0.91562013  0.24098740  0.04805527  1
  Se  Se146  1  0.91599018  0.25021540  0.55148838  1
  Se  Se147  1  0.90016422  0.58277041  0.04927928  1
  Se  Se148  1  0.92059184  0.58940973  0.56277709  1
  Se  Se149  1  0.92543105  0.91988230  0.06209880  1
  Se  Se150  1  0.91082427  0.90903189  0.55631694  1
  Se  Se151  1  0.08045161  0.25120458  0.43988302  1
  Se  Se152  1  0.07609046  0.25508133  0.93408364  1
  Se  Se153  1  0.07889821  0.60031068  0.44512658  1
  Se  Se154  1  0.07408106  0.59479907  0.94563927  1
  Se  Se155  1  0.07735311  0.91127612  0.44653200  1
  Se  Se156  1  0.08085001  0.91841297  0.94165752  1
  Se  Se157  1  0.41597351  0.25736094  0.44518935  1
  Se  Se158  1  0.42273721  0.24539239  0.94653541  1
  Se  Se159  1  0.41642372  0.58892774  0.43613961  1
  Se  Se160  1  0.41769218  0.57947688  0.94368875  1
  Se  Se161  1  0.41793011  0.91114655  0.45075622  1
  Se  Se162  1  0.42555645  0.91040660  0.95220126  1
  Se  Se163  1  0.75666682  0.24775463  0.45350968  1
  Se  Se164  1  0.75228517  0.24669443  0.94566255  1
  Se  Se165  1  0.74077464  0.59456305  0.43920734  1
  Se  Se166  1  0.77037366  0.57965755  0.95412175  1
  Se  Se167  1  0.75957431  0.90237963  0.44818824  1
  Se  Se168  1  0.74516681  0.91675609  0.93706683  1
  Se  Se169  1  0.25467627  0.07730637  0.43649653  1
  Se  Se170  1  0.26221259  0.07000725  0.94007110  1
  Se  Se171  1  0.26333292  0.40742944  0.44119975  1
  Se  Se172  1  0.25967767  0.40837198  0.94223919  1
  Se  Se173  1  0.24622927  0.74604182  0.44424761  1
  Se  Se174  1  0.25510570  0.74523650  0.94099190  1
  Se  Se175  1  0.59300727  0.06965629  0.44427717  1
  Se  Se176  1  0.58728864  0.08095295  0.94784107  1
  Se  Se177  1  0.59394667  0.41185420  0.44484336  1
  Se  Se178  1  0.58245100  0.41831787  0.94935769  1
  Se  Se179  1  0.57125178  0.75652133  0.44331478  1
  Se  Se180  1  0.58111610  0.75117826  0.94569055  1
  Se  Se181  1  0.91069329  0.08147216  0.44591775  1
  Se  Se182  1  0.91161812  0.08145648  0.94325842  1
  Se  Se183  1  0.93276054  0.41706023  0.43577417  1
  Se  Se184  1  0.91575968  0.41822431  0.94332412  1
  Se  Se185  1  0.90753102  0.75033125  0.44864475  1
  Se  Se186  1  0.92705717  0.74935684  0.94305030  1
  Se  Se187  1  0.25658411  0.25280041  0.29993264  1
  Se  Se188  1  0.24678296  0.24696823  0.80219928  1
  Se  Se189  1  0.25324914  0.58764715  0.29749312  1
  Se  Se190  1  0.25042992  0.58621958  0.80084839  1
  Se  Se191  1  0.24787621  0.91117851  0.31628461  1
  Se  Se192  1  0.24524940  0.90592231  0.81154704  1
  Se  Se193  1  0.58615787  0.24481038  0.31579683  1
  Se  Se194  1  0.57434050  0.24180161  0.81456528  1
  Se  Se195  1  0.58379042  0.58523449  0.29780069  1
  Se  Se196  1  0.58826325  0.58630434  0.80914207  1
  Se  Se197  1  0.58516504  0.91536255  0.30247702  1
  Se  Se198  1  0.58391598  0.91640902  0.80013976  1
  Se  Se199  1  0.91595825  0.24967050  0.30828618  1
  Se  Se200  1  0.90904054  0.25335967  0.80099639  1
  Se  Se201  1  0.89912677  0.58091075  0.29533471  1
  Se  Se202  1  0.91968392  0.58932806  0.80569276  1
  Se  Se203  1  0.91682312  0.91542128  0.30702403  1
  Se  Se204  1  0.91740522  0.92395238  0.79824708  1
  Se  Se205  1  0.08410813  0.08544409  0.29942727  1
  Se  Se206  1  0.07459160  0.08136687  0.79957568  1
  Se  Se207  1  0.08687520  0.42873432  0.31231041  1
  Se  Se208  1  0.07961461  0.41935493  0.80265744  1
  Se  Se209  1  0.05293256  0.72271228  0.30960194  1
  Se  Se210  1  0.08373450  0.75045257  0.80319135  1
  Se  Se211  1  0.43300769  0.09037119  0.31047430  1
  Se  Se212  1  0.42004874  0.07994119  0.81254660  1
  Se  Se213  1  0.41664706  0.41878945  0.30024860  1
  Se  Se214  1  0.41652138  0.41624689  0.80282543  1
  Se  Se215  1  0.40923476  0.75111673  0.29700490  1
  Se  Se216  1  0.41746282  0.74647694  0.80143183  1
  Se  Se217  1  0.75141649  0.07939623  0.30512553  1
  Se  Se218  1  0.74397995  0.08051194  0.79910466  1
  Se  Se219  1  0.76093183  0.42344506  0.30751858  1
  Se  Se220  1  0.74782802  0.43362856  0.81871265  1
  Se  Se221  1  0.74274819  0.75222591  0.30407544  1
  Se  Se222  1  0.75715761  0.75320353  0.80511813  1
  Se  Se223  1  0.24881223  0.08697392  0.18742117  1
  Se  Se224  1  0.23713462  0.09190153  0.68765395  1
  Se  Se225  1  0.25374618  0.41477389  0.19863455  1
  Se  Se226  1  0.25014865  0.41586540  0.69714650  1
  Se  Se227  1  0.22814771  0.77373602  0.19892673  1
  Se  Se228  1  0.25523182  0.74642138  0.69444373  1
  Se  Se229  1  0.59307734  0.08529275  0.19652617  1
  Se  Se230  1  0.57978652  0.07932141  0.70019879  1
  Se  Se231  1  0.58080561  0.42993784  0.18615742  1
  Se  Se232  1  0.58249942  0.42943174  0.69214031  1
  Se  Se233  1  0.58187970  0.74831191  0.19379198  1
  Se  Se234  1  0.59073081  0.75087951  0.69195172  1
  Se  Se235  1  0.92156854  0.07844260  0.19955323  1
  Se  Se236  1  0.90945574  0.08316151  0.69222918  1
  Se  Se237  1  0.90580269  0.42108981  0.18997951  1
  Se  Se238  1  0.91043696  0.41751787  0.70288929  1
  Se  Se239  1  0.90319713  0.75113984  0.19411811  1
  Se  Se240  1  0.92312502  0.75186068  0.70118271  1
  Se  Se241  1  0.09437214  0.24147925  0.18425643  1
  Se  Se242  1  0.07502459  0.25555289  0.69655114  1
  Se  Se243  1  0.08233367  0.57763807  0.19240078  1
  Se  Se244  1  0.08129017  0.58452153  0.69871900  1
  Se  Se245  1  0.07946591  0.91487037  0.20884524  1
  Se  Se246  1  0.08524502  0.91747600  0.69849538  1
  Se  Se247  1  0.42424723  0.25566027  0.19887770  1
  Se  Se248  1  0.41224446  0.25212374  0.70385498  1
  Se  Se249  1  0.41263870  0.59217718  0.19338055  1
  Se  Se250  1  0.42190012  0.58524527  0.69710243  1
  Se  Se251  1  0.42360932  0.91655511  0.18836593  1
  Se  Se252  1  0.41835486  0.90606779  0.68905709  1
  Se  Se253  1  0.75974134  0.24507889  0.19335506  1
  Se  Se254  1  0.74755583  0.25090953  0.69095697  1
  Se  Se255  1  0.74003583  0.58063602  0.19451674  1
  Se  Se256  1  0.74827825  0.59191541  0.70457616  1
  Se  Se257  1  0.74542014  0.92052777  0.20029596  1
  Se  Se258  1  0.74621708  0.91598811  0.69074826  1
