# generated using pymatgen
data_In86Cu29Se144
_symmetry_space_group_name_H-M   'P 1'
_cell_length_a   17.58557729
_cell_length_b   17.58692036
_cell_length_c   23.43995404
_cell_angle_alpha   90.02285346
_cell_angle_beta   90.02182082
_cell_angle_gamma   89.98610097
_symmetry_Int_Tables_number   1
_chemical_formula_structural   In86Cu29Se144
_chemical_formula_sum   'In86 Cu29 Se144'
_cell_volume   7249.41736463
_cell_formula_units_Z   1
loop_
 _symmetry_equiv_pos_site_id
 _symmetry_equiv_pos_as_xyz
  1  'x, y, z'
loop_
 _atom_site_type_symbol
 _atom_site_label
 _atom_site_symmetry_multiplicity
 _atom_site_fract_x
 _atom_site_fract_y
 _atom_site_fract_z
 _atom_site_occupancy
  In  In0  1  -0.01195091  0.18369223  0.14653760  1
  In  In1  1  0.00598270  0.17456699  0.61647363  1
  In  In2  1  -0.00582473  0.50360851  0.12458469  1
  In  In3  1  -0.01137579  0.50792483  0.61890158  1
  In  In4  1  -0.00058474  0.83193761  0.14021020  1
  In  In5  1  -0.01711670  0.82138562  0.61531554  1
  In  In6  1  0.33888434  0.15613328  0.12232376  1
  In  In7  1  0.31287508  0.17275817  0.62880040  1
  In  In8  1  0.32654317  0.51398623  0.11831605  1
  In  In9  1  0.32548233  0.51980960  0.63128524  1
  In  In10  1  0.33447985  0.82885626  0.12364154  1
  In  In11  1  0.34916162  0.81511532  0.62875873  1
  In  In12  1  0.65878460  0.17093683  0.13005566  1
  In  In13  1  0.68023392  0.17366107  0.61769896  1
  In  In14  1  0.68402220  0.48773296  0.13079056  1
  In  In15  1  0.67227980  0.49579384  0.63013696  1
  In  In16  1  0.65069001  0.84163491  0.14079783  1
  In  In17  1  0.65760010  0.81413848  0.59886767  1
  In  In18  1  0.16042917  0.01566704  0.38139460  1
  In  In19  1  0.17016682  -0.01674668  0.87168990  1
  In  In20  1  0.15265762  0.34546242  0.38165333  1
  In  In21  1  0.16382785  0.35644636  0.87284013  1
  In  In22  1  0.14901875  0.66709911  0.38583524  1
  In  In23  1  0.14754293  0.63827200  0.84730992  1
  In  In24  1  0.50850709  -0.01712916  0.37004549  1
  In  In25  1  0.48920363  0.00100370  0.87947751  1
  In  In26  1  0.50800120  0.32753873  0.37208070  1
  In  In27  1  0.50416911  0.31998771  0.87647467  1
  In  In28  1  0.51965428  0.67367839  0.37729551  1
  In  In29  1  0.50904798  0.67281242  0.87226901  1
  In  In30  1  0.83521648  -0.00051028  0.37194969  1
  In  In31  1  0.83510732  0.00653649  0.87470514  1
  In  In32  1  0.83470302  0.33427143  0.37512474  1
  In  In33  1  0.84862026  0.34336239  0.86478683  1
  In  In34  1  0.83426159  0.66494325  0.38819227  1
  In  In35  1  0.81827325  0.65553391  0.86430980  1
  In  In36  1  0.00211311  0.16772698  0.37117373  1
  In  In37  1  -0.01431901  0.17526788  0.87677989  1
  In  In38  1  -0.00179900  0.50226035  0.37997750  1
  In  In39  1  -0.00372314  0.49965793  0.87102120  1
  In  In40  1  -0.01882342  0.81455065  0.37342616  1
  In  In41  1  0.01195777  0.82751403  0.87309146  1
  In  In42  1  0.32542143  0.16006964  0.37937281  1
  In  In43  1  0.34785349  0.16750759  0.87334965  1
  In  In44  1  0.32430827  0.49938849  0.38207180  1
  In  In45  1  0.31698357  0.50159109  0.87177164  1
  In  In46  1  0.34616105  0.83306579  0.38366810  1
  In  In47  1  0.33569295  0.83072780  0.86583876  1
  In  In48  1  0.68192849  0.17843616  0.36252847  1
  In  In49  1  0.65666391  0.16326724  0.87553231  1
  In  In50  1  0.69497293  0.52003469  0.37382371  1
  In  In51  1  0.67597013  0.50266526  0.87303709  1
  In  In52  1  0.66744966  0.83204683  0.37801870  1
  In  In53  1  0.66527867  0.81529748  0.87606403  1
  In  In54  1  0.16504159  0.00050591  0.13827974  1
  In  In55  1  0.16410994  0.01118131  0.62556913  1
  In  In56  1  0.14998852  0.33902176  0.12765758  1
  In  In57  1  0.15212992  0.33310136  0.62236633  1
  In  In58  1  0.16328014  0.65858431  0.12478301  1
  In  In59  1  0.17120903  0.65046698  0.62380622  1
  In  In60  1  0.50152893  0.00333018  0.12152081  1
  In  In61  1  0.50170895  -0.01614236  0.62538324  1
  In  In62  1  0.52496925  0.33174279  0.11739235  1
  In  In63  1  0.50439931  0.34853443  0.62977904  1
  In  In64  1  0.50032161  0.68023460  0.12186647  1
  In  In65  1  0.49763010  0.67397281  0.62494308  1
  In  In66  1  0.83135827  0.00247510  0.13921814  1
  In  In67  1  0.82848617  0.00152638  0.61310356  1
  In  In68  1  0.82485153  0.34531884  0.13029471  1
  In  In69  1  0.83583211  0.33552567  0.62188551  1
  In  In70  1  0.83947525  0.66034608  0.13071706  1
  In  In71  1  0.83152778  0.66239318  0.62260587  1
  In  In72  1  0.33284284  0.00176865  0.25031838  1
  In  In73  1  0.82977238  0.82469671  0.00364134  1
  In  In74  1  0.50167931  0.49790553  -0.00374122  1
  In  In75  1  0.33322569  0.33344577  0.25206372  1
  In  In76  1  0.49795664  0.16114508  0.49648656  1
  In  In77  1  0.66820740  -0.00379856  0.74669841  1
  In  In78  1  0.16557101  0.83203135  0.50643503  1
  In  In79  1  0.33661194  0.33442101  0.75276280  1
  In  In80  1  0.16778276  0.16703484  0.00571128  1
  In  In81  1  0.49972503  0.50482343  0.50120312  1
  In  In82  1  0.17253420  0.82446079  -0.00067528  1
  In  In83  1  0.33540716  0.66845444  0.25274576  1
  In  In84  1  0.81925372  0.17842855  0.01203396  1
  In  In85  1  0.00328072  -0.00294778  0.74872751  1
  Cu  Cu86  1  0.67002360  0.33686421  0.49490031  1
  Cu  Cu87  1  0.16148870  0.83494632  0.26327476  1
  Cu  Cu88  1  0.83170986  0.82881943  0.74208428  1
  Cu  Cu89  1  0.34011840  -0.00206197  -0.00304345  1
  Cu  Cu90  1  -0.00082057  0.00520983  0.01254537  1
  Cu  Cu91  1  0.83113644  0.82481279  0.25862574  1
  Cu  Cu92  1  0.50335359  0.16074971  0.75271710  1
  Cu  Cu93  1  0.17062768  0.82778170  0.74340528  1
  Cu  Cu94  1  0.83829850  0.17902286  0.74175147  1
  Cu  Cu95  1  0.00196089  0.34740830  -0.00079551  1
  Cu  Cu96  1  0.00104796  0.00363565  0.49356175  1
  Cu  Cu97  1  0.32148340  0.33446303  0.50462559  1
  Cu  Cu98  1  0.50386006  0.82887979  0.74578418  1
  Cu  Cu99  1  0.50806083  0.16751772  0.24711163  1
  Cu  Cu100  1  0.66707984  0.66296075  0.00089557  1
  Cu  Cu101  1  0.33347624  -0.00045125  0.50164351  1
  Cu  Cu102  1  -0.00474223  0.65941526  -0.00409863  1
  Cu  Cu103  1  0.83662023  0.16355460  0.25434163  1
  Cu  Cu104  1  0.50942677  0.50489732  0.75235304  1
  Cu  Cu105  1  0.33370533  0.33475814  -0.00643768  1
  Cu  Cu106  1  0.51227981  0.50098035  0.25080465  1
  Cu  Cu107  1  0.15292216  0.50169547  0.25117417  1
  Cu  Cu108  1  0.65671450  -0.01019079  0.00141445  1
  Cu  Cu109  1  0.83627693  0.50100618  0.74417091  1
  Cu  Cu110  1  0.67159718  0.00444948  0.49327987  1
  Cu  Cu111  1  0.83889818  0.50008767  0.25506208  1
  Cu  Cu112  1  0.32510930  0.67064932  -0.00514313  1
  Cu  Cu113  1  -0.00547770  0.33268216  0.49929342  1
  Cu  Cu114  1  0.16604227  0.16569824  0.74918650  1
  Se  Se115  1  0.07524851  0.08702119  0.07155699  1
  Se  Se116  1  0.08433991  0.08349993  0.55047808  1
  Se  Se117  1  0.08533100  0.42742971  0.05448709  1
  Se  Se118  1  0.07448608  0.41872970  0.55399313  1
  Se  Se119  1  0.06930226  0.74571424  0.05772614  1
  Se  Se120  1  0.07521757  0.73399292  0.55579978  1
  Se  Se121  1  0.42087414  0.08411907  0.04906653  1
  Se  Se122  1  0.40950810  0.08227977  0.56551500  1
  Se  Se123  1  0.41147468  0.41060276  0.06149643  1
  Se  Se124  1  0.40605077  0.41396656  0.56119284  1
  Se  Se125  1  0.40993543  0.74966912  0.04994007  1
  Se  Se126  1  0.42965801  0.75708702  0.54860663  1
  Se  Se127  1  0.74129644  0.06732342  0.06076089  1
  Se  Se128  1  0.75278276  0.09099369  0.54483693  1
  Se  Se129  1  0.74551967  0.40808199  0.05116266  1
  Se  Se130  1  0.74715041  0.41637140  0.55488043  1
  Se  Se131  1  0.73920892  0.74391641  0.06726745  1
  Se  Se132  1  0.78087680  0.76800629  0.55211920  1
  Se  Se133  1  0.25729180  0.26093062  0.06328289  1
  Se  Se134  1  0.23773829  0.24893760  0.55412654  1
  Se  Se135  1  0.24130596  0.58759760  0.04696867  1
  Se  Se136  1  0.25752955  0.58503586  0.54823012  1
  Se  Se137  1  0.25254568  0.92792503  0.05943610  1
  Se  Se138  1  0.25806032  0.92035927  0.56590664  1
  Se  Se139  1  0.59091536  0.24088571  0.04796366  1
  Se  Se140  1  0.58243097  0.26141134  0.55397632  1
  Se  Se141  1  0.58748040  0.58274600  0.06263192  1
  Se  Se142  1  0.59316391  0.58860006  0.56078013  1
  Se  Se143  1  0.57764859  0.90721956  0.05731992  1
  Se  Se144  1  0.58615100  0.92433539  0.54733135  1
  Se  Se145  1  0.92684297  0.26151689  0.05991492  1
  Se  Se146  1  0.91123491  0.24678836  0.55139073  1
  Se  Se147  1  0.91016935  0.58220855  0.05237253  1
  Se  Se148  1  0.88662231  0.56396213  0.54833016  1
  Se  Se149  1  0.91856565  0.91818287  0.06479056  1
  Se  Se150  1  0.92058131  0.92269759  0.55018758  1
  Se  Se151  1  0.07964049  0.24943001  0.44610737  1
  Se  Se152  1  0.07890487  0.25745799  0.94278073  1
  Se  Se153  1  0.09227742  0.56688587  0.45173519  1
  Se  Se154  1  0.08282516  0.58515792  0.93865548  1
  Se  Se155  1  0.07804951  0.91404529  0.43808695  1
  Se  Se156  1  0.07461535  0.92435319  0.94966656  1
  Se  Se157  1  0.40651175  0.26134349  0.44299404  1
  Se  Se158  1  0.41883252  0.24707993  0.94939639  1
  Se  Se159  1  0.41413293  0.59408553  0.43753375  1
  Se  Se160  1  0.40949420  0.58857198  0.93814404  1
  Se  Se161  1  0.42263780  0.92408674  0.44926361  1
  Se  Se162  1  0.41303574  0.90628784  0.94331633  1
  Se  Se163  1  0.75071679  0.24906883  0.44427750  1
  Se  Se164  1  0.75327193  0.25361182  0.93023397  1
  Se  Se165  1  0.76574060  0.57260136  0.46144309  1
  Se  Se166  1  0.75253249  0.58378848  0.94740381  1
  Se  Se167  1  0.75446782  0.91826256  0.44305107  1
  Se  Se168  1  0.74464999  0.92048415  0.93968579  1
  Se  Se169  1  0.24785376  0.08554032  0.45468880  1
  Se  Se170  1  0.25282416  0.07570153  0.93972316  1
  Se  Se171  1  0.24221759  0.42051874  0.45114667  1
  Se  Se172  1  0.24736394  0.42167632  0.94964303  1
  Se  Se173  1  0.25625542  0.74452015  0.44353898  1
  Se  Se174  1  0.24381714  0.73816486  0.92682768  1
  Se  Se175  1  0.59127999  0.08410439  0.43165273  1
  Se  Se176  1  0.58178064  0.07759655  0.94499544  1
  Se  Se177  1  0.59014165  0.41912338  0.43627989  1
  Se  Se178  1  0.59353542  0.40837641  0.94012930  1
  Se  Se179  1  0.58585456  0.75594817  0.45272279  1
  Se  Se180  1  0.58162948  0.74825652  0.95185932  1
  Se  Se181  1  0.91684056  0.08599039  0.44006973  1
  Se  Se182  1  0.91736037  0.08203424  0.95232122  1
  Se  Se183  1  0.91270341  0.41703232  0.44638673  1
  Se  Se184  1  0.91342996  0.42250353  0.94470615  1
  Se  Se185  1  0.91247815  0.75306358  0.45765731  1
  Se  Se186  1  0.91878835  0.74336683  0.93595065  1
  Se  Se187  1  0.24340448  0.25121711  0.31533492  1
  Se  Se188  1  0.24271285  0.24553819  0.81414209  1
  Se  Se189  1  0.23923036  0.58016855  0.30893432  1
  Se  Se190  1  0.26163898  0.58427813  0.79213595  1
  Se  Se191  1  0.24850637  0.91271278  0.31785206  1
  Se  Se192  1  0.25089287  0.91371724  0.79687924  1
  Se  Se193  1  0.58860511  0.25634121  0.29749844  1
  Se  Se194  1  0.58632847  0.24790294  0.80101438  1
  Se  Se195  1  0.59097045  0.58283450  0.30842893  1
  Se  Se196  1  0.59244052  0.58788261  0.80627641  1
  Se  Se197  1  0.59195445  0.91027749  0.30058117  1
  Se  Se198  1  0.57930658  0.91002087  0.81041942  1
  Se  Se199  1  0.91666011  0.25268866  0.30442516  1
  Se  Se200  1  0.92680160  0.25465051  0.79607496  1
  Se  Se201  1  0.91425826  0.58610300  0.31265951  1
  Se  Se202  1  0.91605896  0.58595250  0.80084227  1
  Se  Se203  1  0.91850040  0.91233992  0.30511400  1
  Se  Se204  1  0.90766691  0.90656067  0.80816221  1
  Se  Se205  1  0.08583838  0.08342505  0.30358178  1
  Se  Se206  1  0.08706245  0.08874276  0.81533174  1
  Se  Se207  1  0.07364819  0.41694614  0.30492673  1
  Se  Se208  1  0.08218403  0.42371010  0.79975485  1
  Se  Se209  1  0.07903859  0.74345051  0.30741129  1
  Se  Se210  1  0.07943362  0.75062306  0.79516938  1
  Se  Se211  1  0.42617145  0.09328322  0.31038909  1
  Se  Se212  1  0.41601010  0.07838685  0.80132360  1
  Se  Se213  1  0.42420833  0.42808652  0.31082419  1
  Se  Se214  1  0.42821160  0.42474934  0.81372530  1
  Se  Se215  1  0.42836301  0.75864482  0.30724764  1
  Se  Se216  1  0.42129569  0.74572652  0.80094348  1
  Se  Se217  1  0.74914573  0.07706017  0.30003984  1
  Se  Se218  1  0.76082544  0.09422702  0.80196591  1
  Se  Se219  1  0.75028367  0.41700595  0.30547927  1
  Se  Se220  1  0.75359220  0.41904618  0.80109507  1
  Se  Se221  1  0.75199353  0.74125872  0.31449804  1
  Se  Se222  1  0.74565733  0.75043937  0.79795151  1
  Se  Se223  1  0.24310978  0.10195594  0.19913669  1
  Se  Se224  1  0.24986695  0.07963070  0.70112846  1
  Se  Se225  1  0.24584564  0.43112373  0.19314235  1
  Se  Se226  1  0.24588859  0.41677559  0.69023632  1
  Se  Se227  1  0.23815862  0.75973140  0.19495020  1
  Se  Se228  1  0.25101485  0.74226785  0.69031308  1
  Se  Se229  1  0.58476169  0.07644513  0.19560152  1
  Se  Se230  1  0.58228682  0.08981920  0.68454732  1
  Se  Se231  1  0.58777647  0.41305495  0.19617226  1
  Se  Se232  1  0.58972060  0.41556287  0.70297553  1
  Se  Se233  1  0.58272506  0.73813948  0.20032968  1
  Se  Se234  1  0.59120187  0.75544121  0.68806416  1
  Se  Se235  1  0.92334182  0.07687020  0.20508107  1
  Se  Se236  1  0.91279776  0.08531771  0.68762146  1
  Se  Se237  1  0.91844223  0.41786072  0.19642717  1
  Se  Se238  1  0.91867443  0.41602878  0.69163602  1
  Se  Se239  1  0.91614173  0.74462175  0.20235236  1
  Se  Se240  1  0.91722443  0.74312409  0.69450840  1
  Se  Se241  1  0.08915713  0.25592373  0.20372113  1
  Se  Se242  1  0.08145777  0.24574978  0.69592176  1
  Se  Se243  1  0.07588390  0.58873031  0.19548475  1
  Se  Se244  1  0.07581894  0.58241226  0.68978870  1
  Se  Se245  1  0.08277942  0.91834480  0.20533821  1
  Se  Se246  1  0.08504943  0.90535019  0.68381953  1
  Se  Se247  1  0.42472318  0.24699008  0.18804282  1
  Se  Se248  1  0.42491483  0.24242998  0.68948874  1
  Se  Se249  1  0.42445639  0.57468800  0.19152671  1
  Se  Se250  1  0.42633594  0.58376241  0.69578962  1
  Se  Se251  1  0.42111247  0.90935731  0.19285857  1
  Se  Se252  1  0.41623878  0.91324048  0.69767126  1
  Se  Se253  1  0.75700170  0.24274907  0.19285859  1
  Se  Se254  1  0.74693487  0.25698463  0.69306065  1
  Se  Se255  1  0.75324178  0.58063754  0.19927725  1
  Se  Se256  1  0.74882001  0.58668681  0.69671923  1
  Se  Se257  1  0.75311329  0.91006982  0.20197962  1
  Se  Se258  1  0.75207131  0.90864622  0.68254220  1
