# generated using pymatgen
data_In86Cu29Se144
_symmetry_space_group_name_H-M   'P 1'
_cell_length_a   17.58875168
_cell_length_b   17.58896926
_cell_length_c   23.44627777
_cell_angle_alpha   90.00218339
_cell_angle_beta   89.98852917
_cell_angle_gamma   89.97563076
_symmetry_Int_Tables_number   1
_chemical_formula_structural   In86Cu29Se144
_chemical_formula_sum   'In86 Cu29 Se144'
_cell_volume   7253.52755077
_cell_formula_units_Z   1
loop_
 _symmetry_equiv_pos_site_id
 _symmetry_equiv_pos_as_xyz
  1  'x, y, z'
loop_
 _atom_site_type_symbol
 _atom_site_label
 _atom_site_symmetry_multiplicity
 _atom_site_fract_x
 _atom_site_fract_y
 _atom_site_fract_z
 _atom_site_occupancy
  In  In0  1  -0.00736094  0.15622483  0.11471038  1
  In  In1  1  0.00041449  0.17243974  0.62977646  1
  In  In2  1  0.00950942  0.48882243  0.12289838  1
  In  In3  1  -0.00041761  0.50025796  0.63275350  1
  In  In4  1  0.01011318  0.83940778  0.11317727  1
  In  In5  1  0.00255201  0.84211262  0.63495917  1
  In  In6  1  0.32933311  0.16446470  0.12181745  1
  In  In7  1  0.31562560  0.15263165  0.61954664  1
  In  In8  1  0.31591255  0.48085678  0.11782256  1
  In  In9  1  0.31893359  0.50078433  0.62354708  1
  In  In10  1  0.33133220  0.85225448  0.12736676  1
  In  In11  1  0.34008795  0.84310159  0.62341013  1
  In  In12  1  0.66694986  0.17162113  0.11361501  1
  In  In13  1  0.66659666  0.15701399  0.60978395  1
  In  In14  1  0.66501589  0.51196908  0.12223796  1
  In  In15  1  0.68526855  0.50227824  0.62558241  1
  In  In16  1  0.67404720  0.82401017  0.12127991  1
  In  In17  1  0.65710420  0.83191946  0.61898721  1
  In  In18  1  0.17495501  0.00931081  0.36665050  1
  In  In19  1  0.16405981  0.00315849  0.86608003  1
  In  In20  1  0.16958025  0.33124449  0.37969865  1
  In  In21  1  0.16074157  0.33400493  0.87393765  1
  In  In22  1  0.15550047  0.65787812  0.38061764  1
  In  In23  1  0.15741665  0.67085166  0.87630302  1
  In  In24  1  0.48415020  0.01324212  0.38598677  1
  In  In25  1  0.49871740  0.01371863  0.87791492  1
  In  In26  1  0.48047014  0.32872639  0.36950398  1
  In  In27  1  0.50235870  0.33709819  0.88571950  1
  In  In28  1  0.51182452  0.66686400  0.37947122  1
  In  In29  1  0.49283678  0.65800911  0.87362201  1
  In  In30  1  0.84852711  -0.01167751  0.38873428  1
  In  In31  1  0.84266984  -0.00540711  0.87817342  1
  In  In32  1  0.84056947  0.32633995  0.38397350  1
  In  In33  1  0.84301079  0.31804701  0.87808722  1
  In  In34  1  0.83824303  0.66988795  0.39442665  1
  In  In35  1  0.84826586  0.67581385  0.86291284  1
  In  In36  1  0.01637191  0.16057213  0.38106805  1
  In  In37  1  0.00477195  0.16258335  0.86867888  1
  In  In38  1  0.00578418  0.49349669  0.39237861  1
  In  In39  1  0.01869725  0.50812013  0.85643359  1
  In  In40  1  -0.01077117  0.83171633  0.37972549  1
  In  In41  1  0.00463242  0.83505009  0.86668841  1
  In  In42  1  0.32686759  0.16828257  0.37457512  1
  In  In43  1  0.33563036  0.16104127  0.87647062  1
  In  In44  1  0.33017277  0.48594554  0.37184225  1
  In  In45  1  0.33345898  0.50015668  0.88289524  1
  In  In46  1  0.31935439  0.85206686  0.37634447  1
  In  In47  1  0.30307378  0.83850236  0.87123470  1
  In  In48  1  0.66831584  0.15239872  0.38668661  1
  In  In49  1  0.66699030  0.17400668  0.88699010  1
  In  In50  1  0.67033601  0.50946141  0.37786588  1
  In  In51  1  0.65635688  0.50317920  0.87061762  1
  In  In52  1  0.67356177  0.83673405  0.39341385  1
  In  In53  1  0.68345703  0.83635433  0.87195734  1
  In  In54  1  0.16278728  0.00220501  0.11990236  1
  In  In55  1  0.13682315  0.02627673  0.66418132  1
  In  In56  1  0.17811915  0.33760959  0.11770049  1
  In  In57  1  0.15490078  0.32801410  0.62907527  1
  In  In58  1  0.15983812  0.66040015  0.11374338  1
  In  In59  1  0.16001430  0.65327504  0.62700691  1
  In  In60  1  0.48435708  0.00613736  0.12625941  1
  In  In61  1  0.49472069  -0.00502459  0.61522549  1
  In  In62  1  0.47980309  0.31048256  0.11109309  1
  In  In63  1  0.51343737  0.32830000  0.62439542  1
  In  In64  1  0.51027770  0.66349305  0.12028026  1
  In  In65  1  0.49555884  0.68651869  0.62640985  1
  In  In66  1  0.84215626  0.00446763  0.11746082  1
  In  In67  1  0.84382745  0.01042166  0.61466401  1
  In  In68  1  0.84711232  0.32899751  0.12277595  1
  In  In69  1  0.84288022  0.33951541  0.61932818  1
  In  In70  1  0.82563381  0.67323316  0.12081041  1
  In  In71  1  0.83847245  0.66510709  0.62873203  1
  In  In72  1  0.32806550  0.33089573  0.75347701  1
  In  In73  1  0.49979574  0.83632412  0.00391710  1
  In  In74  1  0.66248219  -0.00074184  0.25690985  1
  In  In75  1  0.16546453  0.83680505  0.51136731  1
  In  In76  1  0.66735556  0.67119756  0.25369739  1
  In  In77  1  0.01381681  0.32863544  0.25709287  1
  In  In78  1  0.83798912  0.49804570  -0.00129745  1
  In  In79  1  0.67710451  0.33376939  0.75162456  1
  In  In80  1  0.00002839  0.66918626  0.24918000  1
  In  In81  1  0.49896982  0.49590348  0.49550668  1
  In  In82  1  0.67086315  0.00119642  0.74616624  1
  In  In83  1  0.32820985  0.67249879  0.75578881  1
  In  In84  1  0.65880442  0.33003126  0.24436609  1
  In  In85  1  0.33156724  0.67200383  0.24940008  1
  Cu  Cu86  1  0.32575940  0.00806365  0.50016342  1
  Cu  Cu87  1  0.66825196  0.66365989  0.50667436  1
  Cu  Cu88  1  0.83899279  0.49839308  0.26198811  1
  Cu  Cu89  1  0.67128093  0.66839736  -0.00512279  1
  Cu  Cu90  1  0.33111133  0.32656002  -0.00336989  1
  Cu  Cu91  1  0.33224424  0.66304801  -0.00255324  1
  Cu  Cu92  1  0.49273000  0.16454177  0.25083056  1
  Cu  Cu93  1  0.32723074  0.00075915  -0.00135689  1
  Cu  Cu94  1  0.00502487  0.32848928  -0.00365395  1
  Cu  Cu95  1  0.33072733  0.66980824  0.50681379  1
  Cu  Cu96  1  0.48825143  0.49275494  0.24088902  1
  Cu  Cu97  1  0.50024440  0.51044023  0.75104818  1
  Cu  Cu98  1  0.67084611  0.00262230  -0.00294411  1
  Cu  Cu99  1  0.83436441  0.83264714  0.74724660  1
  Cu  Cu100  1  0.50188825  0.83735277  0.74575719  1
  Cu  Cu101  1  -0.00002807  0.66772114  -0.01060099  1
  Cu  Cu102  1  0.01272150  0.00221968  0.50710480  1
  Cu  Cu103  1  -0.00173892  0.33285602  0.50741595  1
  Cu  Cu104  1  0.49388624  0.84251971  0.25735161  1
  Cu  Cu105  1  0.83496409  0.16304919  0.74696144  1
  Cu  Cu106  1  0.83968593  0.15481542  0.24722620  1
  Cu  Cu107  1  0.16874548  0.16673112  0.24613549  1
  Cu  Cu108  1  0.49506146  0.16923567  0.75055506  1
  Cu  Cu109  1  0.00174685  -0.00054650  -0.00817776  1
  Cu  Cu110  1  0.32924454  0.32852342  0.49917309  1
  Cu  Cu111  1  0.66641477  0.32431650  0.49799099  1
  Cu  Cu112  1  0.84059459  0.50123163  0.74592095  1
  Cu  Cu113  1  0.83804019  0.84142758  0.25560029  1
  Cu  Cu114  1  0.16184982  0.84331041  0.24443323  1
  Se  Se115  1  0.08410540  0.08304434  0.04696518  1
  Se  Se116  1  0.08998574  0.08235121  0.56777244  1
  Se  Se117  1  0.08735468  0.41474182  0.04893726  1
  Se  Se118  1  0.08109236  0.41743227  0.55994439  1
  Se  Se119  1  0.08449043  0.74862433  0.04595511  1
  Se  Se120  1  0.07309260  0.74316248  0.56275379  1
  Se  Se121  1  0.41437432  0.08395226  0.04990600  1
  Se  Se122  1  0.41468138  0.08873677  0.55241961  1
  Se  Se123  1  0.41279523  0.41464190  0.05022049  1
  Se  Se124  1  0.41019395  0.40870176  0.56069271  1
  Se  Se125  1  0.40650202  0.74505858  0.06235616  1
  Se  Se126  1  0.41614487  0.75769976  0.55065567  1
  Se  Se127  1  0.75409640  0.08524999  0.05205118  1
  Se  Se128  1  0.75194365  0.07724961  0.54502691  1
  Se  Se129  1  0.74906691  0.41377056  0.06351658  1
  Se  Se130  1  0.74505137  0.40939458  0.55301080  1
  Se  Se131  1  0.75491950  0.75402336  0.04513065  1
  Se  Se132  1  0.75043595  0.74662318  0.56054408  1
  Se  Se133  1  0.24684878  0.24345554  0.04976847  1
  Se  Se134  1  0.24481380  0.25316083  0.55843010  1
  Se  Se135  1  0.24864563  0.57835013  0.05048977  1
  Se  Se136  1  0.24493962  0.58274435  0.55086495  1
  Se  Se137  1  0.24613834  0.91492982  0.05154018  1
  Se  Se138  1  0.24795144  0.93487195  0.56680639  1
  Se  Se139  1  0.58581880  0.25503572  0.04875655  1
  Se  Se140  1  0.57790377  0.24485295  0.54844534  1
  Se  Se141  1  0.58627936  0.58515409  0.04617605  1
  Se  Se142  1  0.58128045  0.58393941  0.56333600  1
  Se  Se143  1  0.59133860  0.92776707  0.06380543  1
  Se  Se144  1  0.58703670  0.92238884  0.55019776  1
  Se  Se145  1  0.91635541  0.24849427  0.04751744  1
  Se  Se146  1  0.91519616  0.24314768  0.55445404  1
  Se  Se147  1  0.92759354  0.59172496  0.06047822  1
  Se  Se148  1  0.89677056  0.55881760  0.56582826  1
  Se  Se149  1  0.91821656  0.91682155  0.04826172  1
  Se  Se150  1  0.92858621  0.91637949  0.55649218  1
  Se  Se151  1  0.08404422  0.25450816  0.44986510  1
  Se  Se152  1  0.08522925  0.24347664  0.94187215  1
  Se  Se153  1  0.07258334  0.59319862  0.45489229  1
  Se  Se154  1  0.08231606  0.57694526  0.94262859  1
  Se  Se155  1  0.08586825  0.92345752  0.43880471  1
  Se  Se156  1  0.08574039  0.91736709  0.93781425  1
  Se  Se157  1  0.41368288  0.24727765  0.44565743  1
  Se  Se158  1  0.41784796  0.24564021  0.94470680  1
  Se  Se159  1  0.40631318  0.59034128  0.43946513  1
  Se  Se160  1  0.42110360  0.58051354  0.95022762  1
  Se  Se161  1  0.40612563  0.91804292  0.44961348  1
  Se  Se162  1  0.40919701  0.91849086  0.93916354  1
  Se  Se163  1  0.75358019  0.24234203  0.44721396  1
  Se  Se164  1  0.74723152  0.26317857  0.94907548  1
  Se  Se165  1  0.75029500  0.57913348  0.45302935  1
  Se  Se166  1  0.75419010  0.59024906  0.93468883  1
  Se  Se167  1  0.76069400  0.91531487  0.45711133  1
  Se  Se168  1  0.75358738  0.91691159  0.94715096  1
  Se  Se169  1  0.24140771  0.08918050  0.44529834  1
  Se  Se170  1  0.24564459  0.08074557  0.94125247  1
  Se  Se171  1  0.24937500  0.41872517  0.44889746  1
  Se  Se172  1  0.24860206  0.41117604  0.94365762  1
  Se  Se173  1  0.25086426  0.74690827  0.44179405  1
  Se  Se174  1  0.24786725  0.74643382  0.94607283  1
  Se  Se175  1  0.58503331  0.07130500  0.45194814  1
  Se  Se176  1  0.58235927  0.08582073  0.95027351  1
  Se  Se177  1  0.58826480  0.40396741  0.43408543  1
  Se  Se178  1  0.59172151  0.42037887  0.94565002  1
  Se  Se179  1  0.58486696  0.74684426  0.45267246  1
  Se  Se180  1  0.58682857  0.74977371  0.93767189  1
  Se  Se181  1  0.92940362  0.08289288  0.44954411  1
  Se  Se182  1  0.91795653  0.08788726  0.94236681  1
  Se  Se183  1  0.91194583  0.41501220  0.45347367  1
  Se  Se184  1  0.93055241  0.41595045  0.93644582  1
  Se  Se185  1  0.92020690  0.75609614  0.45689523  1
  Se  Se186  1  0.91914845  0.75482942  0.93928448  1
  Se  Se187  1  0.24498238  0.25148295  0.30448629  1
  Se  Se188  1  0.24068130  0.23635845  0.80813911  1
  Se  Se189  1  0.24365269  0.58079988  0.30864915  1
  Se  Se190  1  0.24454442  0.57423053  0.81103969  1
  Se  Se191  1  0.25094103  0.92273364  0.29523283  1
  Se  Se192  1  0.25714137  0.93121652  0.79565095  1
  Se  Se193  1  0.57934508  0.23783606  0.31121220  1
  Se  Se194  1  0.57806200  0.24740828  0.80847582  1
  Se  Se195  1  0.57102045  0.56992639  0.30202497  1
  Se  Se196  1  0.58496459  0.59426520  0.80082831  1
  Se  Se197  1  0.57801505  0.91082512  0.32117130  1
  Se  Se198  1  0.57970763  0.91550594  0.81082670  1
  Se  Se199  1  0.91417255  0.23947899  0.30863083  1
  Se  Se200  1  0.91765730  0.24648130  0.80042987  1
  Se  Se201  1  0.91557798  0.58301662  0.31788956  1
  Se  Se202  1  0.92503822  0.58792568  0.79529309  1
  Se  Se203  1  0.92393882  0.92211075  0.30650545  1
  Se  Se204  1  0.91449598  0.91840328  0.80108474  1
  Se  Se205  1  0.08287454  0.08547095  0.29965468  1
  Se  Se206  1  0.07079366  0.07168846  0.79582807  1
  Se  Se207  1  0.09212169  0.43088412  0.31229734  1
  Se  Se208  1  0.07348801  0.39688094  0.79805457  1
  Se  Se209  1  0.09143730  0.76052472  0.30887141  1
  Se  Se210  1  0.09277345  0.75410445  0.80050794  1
  Se  Se211  1  0.41026522  0.08256234  0.30577990  1
  Se  Se212  1  0.41635776  0.08226173  0.80253773  1
  Se  Se213  1  0.40777913  0.41092603  0.29577339  1
  Se  Se214  1  0.42537323  0.42365416  0.80858823  1
  Se  Se215  1  0.42031716  0.75586229  0.31615977  1
  Se  Se216  1  0.42091943  0.76549669  0.81304595  1
  Se  Se217  1  0.76208045  0.08200557  0.31306020  1
  Se  Se218  1  0.75198671  0.09254906  0.81171425  1
  Se  Se219  1  0.75150995  0.41469307  0.31085891  1
  Se  Se220  1  0.76422779  0.42498161  0.81260801  1
  Se  Se221  1  0.75923726  0.75738072  0.31446843  1
  Se  Se222  1  0.74983633  0.74924651  0.79891902  1
  Se  Se223  1  0.24818374  0.08055958  0.19086068  1
  Se  Se224  1  0.26311361  0.07862552  0.70508386  1
  Se  Se225  1  0.24310120  0.41428157  0.19788387  1
  Se  Se226  1  0.23880300  0.42423558  0.69736369  1
  Se  Se227  1  0.23796229  0.75629757  0.18606856  1
  Se  Se228  1  0.24830158  0.75324329  0.68444626  1
  Se  Se229  1  0.58047883  0.09186839  0.19120595  1
  Se  Se230  1  0.57756541  0.09170387  0.68953700  1
  Se  Se231  1  0.57492568  0.42034975  0.18154496  1
  Se  Se232  1  0.58146656  0.42669451  0.69411446  1
  Se  Se233  1  0.57252951  0.76317307  0.19534059  1
  Se  Se234  1  0.58661804  0.75220134  0.69791085  1
  Se  Se235  1  0.92378292  0.07568504  0.19315960  1
  Se  Se236  1  0.91808315  0.07914641  0.69486591  1
  Se  Se237  1  0.91542103  0.42096588  0.19869944  1
  Se  Se238  1  0.91810717  0.40684699  0.69906446  1
  Se  Se239  1  0.90928262  0.75972730  0.18960867  1
  Se  Se240  1  0.92020179  0.74941782  0.69714811  1
  Se  Se241  1  0.08645693  0.24226153  0.18350708  1
  Se  Se242  1  0.08808584  0.24220070  0.70245531  1
  Se  Se243  1  0.09103274  0.57551672  0.19360169  1
  Se  Se244  1  0.08325277  0.58065390  0.70222534  1
  Se  Se245  1  0.07620071  0.92168565  0.19029628  1
  Se  Se246  1  0.10082729  0.89705990  0.70663246  1
  Se  Se247  1  0.41081018  0.24650739  0.19492566  1
  Se  Se248  1  0.41899787  0.24801283  0.68761804  1
  Se  Se249  1  0.41632054  0.58273620  0.18389322  1
  Se  Se250  1  0.41701077  0.58223570  0.68857165  1
  Se  Se251  1  0.41403619  0.92413979  0.20175489  1
  Se  Se252  1  0.42063790  0.92326258  0.69530706  1
  Se  Se253  1  0.76065647  0.24019504  0.19203692  1
  Se  Se254  1  0.75255398  0.23958853  0.68509126  1
  Se  Se255  1  0.76228739  0.57689632  0.19761880  1
  Se  Se256  1  0.75075851  0.58557703  0.70101352  1
  Se  Se257  1  0.75275293  0.91253843  0.19251839  1
  Se  Se258  1  0.75833754  0.91350325  0.68425901  1
