# generated using pymatgen
data_In86Cu29Se144
_symmetry_space_group_name_H-M   'P 1'
_cell_length_a   17.58237600
_cell_length_b   17.58937622
_cell_length_c   23.44922103
_cell_angle_alpha   90.02008294
_cell_angle_beta   89.99730225
_cell_angle_gamma   90.01574461
_symmetry_Int_Tables_number   1
_chemical_formula_structural   In86Cu29Se144
_chemical_formula_sum   'In86 Cu29 Se144'
_cell_volume   7251.97633430
_cell_formula_units_Z   1
loop_
 _symmetry_equiv_pos_site_id
 _symmetry_equiv_pos_as_xyz
  1  'x, y, z'
loop_
 _atom_site_type_symbol
 _atom_site_label
 _atom_site_symmetry_multiplicity
 _atom_site_fract_x
 _atom_site_fract_y
 _atom_site_fract_z
 _atom_site_occupancy
  In  In0  1  -0.00645248  0.16938157  0.12879887  1
  In  In1  1  -0.00426247  0.16571124  0.62632326  1
  In  In2  1  -0.00585702  0.49692721  0.12562465  1
  In  In3  1  -0.02172982  0.51193721  0.64665693  1
  In  In4  1  -0.00729211  0.83801631  0.13656130  1
  In  In5  1  0.00760548  0.82554500  0.62470498  1
  In  In6  1  0.35317861  0.16853343  0.12231827  1
  In  In7  1  0.31599173  0.16768185  0.62353181  1
  In  In8  1  0.31414971  0.49993994  0.12482141  1
  In  In9  1  0.34025488  0.49435812  0.62169526  1
  In  In10  1  0.32633467  0.83857681  0.12502891  1
  In  In11  1  0.34254142  0.84094477  0.61791705  1
  In  In12  1  0.65947115  0.16595863  0.11657031  1
  In  In13  1  0.67390012  0.14482377  0.62192266  1
  In  In14  1  0.68556667  0.49500831  0.12483696  1
  In  In15  1  0.67647379  0.50938950  0.62351351  1
  In  In16  1  0.66924083  0.83011819  0.13808595  1
  In  In17  1  0.65955753  0.84399430  0.62505655  1
  In  In18  1  0.16197796  0.01253779  0.38404294  1
  In  In19  1  0.16034786  -0.00284421  0.86663739  1
  In  In20  1  0.15474936  0.32327006  0.36667871  1
  In  In21  1  0.16514227  0.34727540  0.87948593  1
  In  In22  1  0.16247346  0.68096584  0.38162837  1
  In  In23  1  0.14764457  0.66181710  0.87179782  1
  In  In24  1  0.50770909  -0.01243606  0.37980314  1
  In  In25  1  0.50394828  0.00646359  0.86824580  1
  In  In26  1  0.50457275  0.34960643  0.37105260  1
  In  In27  1  0.49220256  0.32792150  0.87499358  1
  In  In28  1  0.50935504  0.66164330  0.38254011  1
  In  In29  1  0.51820174  0.65283292  0.86572372  1
  In  In30  1  0.83998396  0.00425124  0.37247904  1
  In  In31  1  0.84064647  0.01271100  0.86658872  1
  In  In32  1  0.84612041  0.32463640  0.38203242  1
  In  In33  1  0.83784256  0.32100010  0.88130548  1
  In  In34  1  0.83089138  0.66183557  0.37464615  1
  In  In35  1  0.82666670  0.65484019  0.86108284  1
  In  In36  1  0.00036877  0.16627393  0.37479953  1
  In  In37  1  -0.01618167  0.15160729  0.87211683  1
  In  In38  1  -0.00617570  0.49480489  0.37372772  1
  In  In39  1  -0.00352517  0.49875251  0.87348363  1
  In  In40  1  0.00344353  0.84117648  0.37552763  1
  In  In41  1  -0.00462062  0.83329683  0.86531219  1
  In  In42  1  0.32088665  0.16290115  0.37219306  1
  In  In43  1  0.34207848  0.16475925  0.87740358  1
  In  In44  1  0.34445058  0.50181870  0.37343609  1
  In  In45  1  0.33574333  0.48742080  0.87639964  1
  In  In46  1  0.33331486  0.83785152  0.38632592  1
  In  In47  1  0.32380423  0.83920512  0.86872844  1
  In  In48  1  0.68621992  0.16629827  0.37821986  1
  In  In49  1  0.68154992  0.16155796  0.88577139  1
  In  In50  1  0.66551974  0.50807708  0.38235045  1
  In  In51  1  0.67401860  0.51027310  0.86813813  1
  In  In52  1  0.66700110  0.82724424  0.37470820  1
  In  In53  1  0.67006520  0.83502138  0.86388731  1
  In  In54  1  0.16153362  -0.00648107  0.12547467  1
  In  In55  1  0.16312486  0.00095888  0.62457447  1
  In  In56  1  0.15050715  0.34111391  0.13370755  1
  In  In57  1  0.15849901  0.31897876  0.62170368  1
  In  In58  1  0.15766539  0.65149190  0.12355770  1
  In  In59  1  0.13888686  0.66845078  0.61776112  1
  In  In60  1  0.50291261  0.01677529  0.12196481  1
  In  In61  1  0.51233015  -0.01590903  0.63309928  1
  In  In62  1  0.50773438  0.31628017  0.12654934  1
  In  In63  1  0.49522230  0.33899275  0.61880426  1
  In  In64  1  0.50559005  0.67986759  0.12665426  1
  In  In65  1  0.50864602  0.67126819  0.62151748  1
  In  In66  1  0.82867249  0.00428120  0.12934425  1
  In  In67  1  0.82250775  0.01205881  0.62693337  1
  In  In68  1  0.83617790  0.34299840  0.11307012  1
  In  In69  1  0.84557889  0.34652047  0.61973855  1
  In  In70  1  0.84302190  0.65961633  0.13463532  1
  In  In71  1  0.84028821  0.65271703  0.63434831  1
  In  In72  1  0.16517332  0.49789764  0.50155813  1
  In  In73  1  0.67250288  0.33209270  0.24833427  1
  In  In74  1  0.16125008  0.83498300  0.00112172  1
  In  In75  1  0.83599351  0.83494567  0.00076693  1
  In  In76  1  0.49938301  0.16874366  0.50076472  1
  In  In77  1  0.33102226  0.66152601  0.25316884  1
  In  In78  1  0.50639333  0.49273172  -0.00269822  1
  In  In79  1  0.33131153  0.33023954  0.75539722  1
  In  In80  1  0.33226368  0.67277824  0.74193475  1
  In  In81  1  0.66947727  0.33302450  0.74927925  1
  In  In82  1  0.33398563  0.00218851  0.24510030  1
  In  In83  1  0.83502839  0.83427436  0.50275883  1
  In  In84  1  0.50211729  0.83802063  -0.01065536  1
  In  In85  1  0.16435762  0.16930555  0.00244457  1
  Cu  Cu86  1  -0.00783405  0.65638782  -0.00039776  1
  Cu  Cu87  1  0.00155317  0.00498877  0.50041512  1
  Cu  Cu88  1  0.32972176  0.66308687  -0.00146472  1
  Cu  Cu89  1  0.83472933  0.83152151  0.25754199  1
  Cu  Cu90  1  0.83701128  0.16364923  0.25026695  1
  Cu  Cu91  1  0.83178867  0.16896940  0.75050763  1
  Cu  Cu92  1  0.15778399  0.16371100  0.74832171  1
  Cu  Cu93  1  0.33334852  0.33548104  0.49836393  1
  Cu  Cu94  1  0.49818879  0.83600061  0.74554446  1
  Cu  Cu95  1  0.15639191  0.49711840  0.25002482  1
  Cu  Cu96  1  0.67844677  0.65993507  -0.00152248  1
  Cu  Cu97  1  0.16321978  0.83459957  0.25499930  1
  Cu  Cu98  1  0.16482542  0.83833995  0.74433928  1
  Cu  Cu99  1  0.66822263  0.66887029  0.50217767  1
  Cu  Cu100  1  0.49926096  0.50199582  0.25420749  1
  Cu  Cu101  1  0.16541771  0.49882841  0.75088974  1
  Cu  Cu102  1  0.16244782  0.16859834  0.25160397  1
  Cu  Cu103  1  0.66574620  0.00186162  -0.00025420  1
  Cu  Cu104  1  0.00217803  0.33712079  0.00185221  1
  Cu  Cu105  1  0.33387226  0.00290804  0.50382228  1
  Cu  Cu106  1  0.67208927  0.33800247  0.49890413  1
  Cu  Cu107  1  0.33632038  0.66894151  0.50065062  1
  Cu  Cu108  1  0.33225085  0.33277344  0.00163957  1
  Cu  Cu109  1  0.50698040  0.16282264  0.24779131  1
  Cu  Cu110  1  0.00084450  0.33219974  0.50041997  1
  Cu  Cu111  1  0.83228933  0.83482670  0.74167501  1
  Cu  Cu112  1  0.83583567  0.49831149  0.25082233  1
  Cu  Cu113  1  0.49930909  0.16054742  0.74965558  1
  Cu  Cu114  1  0.50683528  0.83091140  0.25584320  1
  Se  Se115  1  0.07464088  0.07589960  0.05811215  1
  Se  Se116  1  0.08393511  0.08873043  0.55598739  1
  Se  Se117  1  0.08414988  0.42101546  0.05534958  1
  Se  Se118  1  0.07321781  0.41579276  0.56435536  1
  Se  Se119  1  0.06877110  0.74310693  0.05960268  1
  Se  Se120  1  0.08155884  0.75813490  0.54361048  1
  Se  Se121  1  0.41460139  0.07920934  0.04955102  1
  Se  Se122  1  0.41455333  0.08106832  0.56580681  1
  Se  Se123  1  0.41259716  0.41319754  0.06375089  1
  Se  Se124  1  0.41874291  0.42044256  0.54594836  1
  Se  Se125  1  0.40795677  0.74763963  0.05444165  1
  Se  Se126  1  0.42196179  0.75091683  0.55336292  1
  Se  Se127  1  0.75060468  0.08116484  0.05496116  1
  Se  Se128  1  0.75379667  0.08109320  0.54430799  1
  Se  Se129  1  0.73859972  0.40954720  0.04701573  1
  Se  Se130  1  0.75341342  0.42212423  0.55399812  1
  Se  Se131  1  0.74703788  0.74484972  0.06241155  1
  Se  Se132  1  0.74849810  0.74440096  0.56581422  1
  Se  Se133  1  0.25194831  0.25799037  0.06603518  1
  Se  Se134  1  0.24811209  0.25237304  0.54875456  1
  Se  Se135  1  0.24376531  0.58234226  0.04985845  1
  Se  Se136  1  0.25464188  0.59191222  0.56280419  1
  Se  Se137  1  0.25938180  0.92925202  0.05194441  1
  Se  Se138  1  0.24851462  0.91919236  0.55506958  1
  Se  Se139  1  0.58285921  0.25199806  0.04777849  1
  Se  Se140  1  0.59464750  0.25581534  0.56091331  1
  Se  Se141  1  0.58911096  0.59001512  0.05917034  1
  Se  Se142  1  0.58472766  0.58158068  0.55342723  1
  Se  Se143  1  0.59151877  0.91534096  0.05951495  1
  Se  Se144  1  0.58027853  0.91805213  0.55034415  1
  Se  Se145  1  0.92084342  0.25007258  0.05367670  1
  Se  Se146  1  0.91612307  0.24934878  0.55461039  1
  Se  Se147  1  0.90808542  0.57810379  0.05616076  1
  Se  Se148  1  0.92451626  0.58360125  0.56032873  1
  Se  Se149  1  0.92503787  0.92413444  0.06000368  1
  Se  Se150  1  0.92231450  0.92669428  0.56300547  1
  Se  Se151  1  0.08368389  0.24922924  0.44581882  1
  Se  Se152  1  0.07529091  0.25390793  0.93832982  1
  Se  Se153  1  0.07652980  0.58716693  0.44218612  1
  Se  Se154  1  0.08169702  0.57811388  0.94713519  1
  Se  Se155  1  0.08449276  0.91986053  0.44809643  1
  Se  Se156  1  0.07083595  0.92131558  0.94043205  1
  Se  Se157  1  0.41301286  0.25658157  0.43540841  1
  Se  Se158  1  0.41565502  0.24994878  0.94952826  1
  Se  Se159  1  0.41686114  0.58327528  0.44720334  1
  Se  Se160  1  0.41653695  0.59041903  0.93871764  1
  Se  Se161  1  0.41906778  0.91997415  0.45196004  1
  Se  Se162  1  0.40601223  0.92615744  0.93726440  1
  Se  Se163  1  0.75603921  0.25071065  0.45152142  1
  Se  Se164  1  0.75039521  0.25203051  0.95375796  1
  Se  Se165  1  0.75352060  0.58505120  0.45065282  1
  Se  Se166  1  0.75934055  0.57978745  0.94290018  1
  Se  Se167  1  0.74793004  0.92187496  0.44019925  1
  Se  Se168  1  0.74440148  0.92100395  0.93893722  1
  Se  Se169  1  0.25198404  0.08893372  0.45184966  1
  Se  Se170  1  0.24792607  0.07788451  0.93869528  1
  Se  Se171  1  0.25182023  0.41177670  0.43548935  1
  Se  Se172  1  0.25123523  0.42043254  0.95151216  1
  Se  Se173  1  0.25010159  0.75301869  0.45187180  1
  Se  Se174  1  0.25028011  0.74260128  0.93818267  1
  Se  Se175  1  0.59183927  0.08185486  0.44237128  1
  Se  Se176  1  0.58181935  0.08170398  0.94381751  1
  Se  Se177  1  0.58391724  0.41852744  0.44787831  1
  Se  Se178  1  0.59333704  0.41010678  0.93225393  1
  Se  Se179  1  0.58491618  0.75278487  0.44914037  1
  Se  Se180  1  0.59671073  0.74014082  0.93995838  1
  Se  Se181  1  0.91724349  0.08546588  0.44541003  1
  Se  Se182  1  0.90660498  0.08213027  0.94925741  1
  Se  Se183  1  0.91707005  0.41859350  0.44985579  1
  Se  Se184  1  0.91777913  0.41557848  0.94462415  1
  Se  Se185  1  0.92224084  0.74601196  0.44104801  1
  Se  Se186  1  0.91953853  0.74214924  0.93839567  1
  Se  Se187  1  0.25138854  0.25058517  0.30071439  1
  Se  Se188  1  0.23750376  0.24113167  0.81311051  1
  Se  Se189  1  0.23608110  0.57620879  0.31316882  1
  Se  Se190  1  0.25022207  0.57803696  0.80886926  1
  Se  Se191  1  0.24772404  0.91550548  0.31081761  1
  Se  Se192  1  0.24845210  0.92072649  0.79717998  1
  Se  Se193  1  0.58250804  0.24329773  0.31188593  1
  Se  Se194  1  0.57915678  0.24096328  0.80963837  1
  Se  Se195  1  0.58401236  0.58243293  0.30702211  1
  Se  Se196  1  0.59537129  0.58146508  0.79150268  1
  Se  Se197  1  0.59004825  0.91775120  0.30483922  1
  Se  Se198  1  0.58220805  0.91829064  0.80093050  1
  Se  Se199  1  0.91799509  0.24926921  0.30395343  1
  Se  Se200  1  0.91713905  0.24868263  0.80446420  1
  Se  Se201  1  0.91690752  0.58308788  0.30488914  1
  Se  Se202  1  0.93776759  0.59826805  0.80411487  1
  Se  Se203  1  0.92040276  0.91896543  0.30429255  1
  Se  Se204  1  0.91184083  0.91793236  0.79981034  1
  Se  Se205  1  0.08428801  0.08170649  0.30575005  1
  Se  Se206  1  0.07444073  0.07987363  0.80174721  1
  Se  Se207  1  0.07379059  0.41233367  0.30279978  1
  Se  Se208  1  0.08306447  0.41520448  0.80423939  1
  Se  Se209  1  0.08019632  0.74982549  0.30613954  1
  Se  Se210  1  0.08527440  0.75367960  0.79986963  1
  Se  Se211  1  0.42632862  0.08504795  0.31077930  1
  Se  Se212  1  0.41011230  0.08189088  0.80135961  1
  Se  Se213  1  0.41268652  0.41529737  0.29893209  1
  Se  Se214  1  0.43024425  0.42670182  0.80168022  1
  Se  Se215  1  0.41845843  0.75526394  0.31229747  1
  Se  Se216  1  0.42508462  0.75381755  0.81050012  1
  Se  Se217  1  0.75120462  0.08209900  0.30220502  1
  Se  Se218  1  0.74399694  0.08656916  0.80227671  1
  Se  Se219  1  0.75634622  0.41931008  0.31420876  1
  Se  Se220  1  0.76328387  0.41645436  0.80942203  1
  Se  Se221  1  0.74940053  0.74556447  0.30578811  1
  Se  Se222  1  0.75112089  0.75038029  0.79766571  1
  Se  Se223  1  0.24399702  0.09474431  0.18653375  1
  Se  Se224  1  0.24569320  0.08389086  0.69669990  1
  Se  Se225  1  0.24571004  0.41675053  0.19958548  1
  Se  Se226  1  0.24384738  0.41877298  0.68997315  1
  Se  Se227  1  0.24052101  0.75341520  0.19237191  1
  Se  Se228  1  0.23952528  0.75606425  0.68090000  1
  Se  Se229  1  0.59164401  0.08232631  0.19483217  1
  Se  Se230  1  0.58605225  0.08072137  0.69706382  1
  Se  Se231  1  0.57876134  0.42358379  0.19024007  1
  Se  Se232  1  0.57944998  0.42063557  0.68764986  1
  Se  Se233  1  0.58729529  0.74278828  0.20449001  1
  Se  Se234  1  0.58393069  0.75363742  0.69448424  1
  Se  Se235  1  0.92012547  0.07850358  0.19783751  1
  Se  Se236  1  0.91391793  0.08312483  0.69676935  1
  Se  Se237  1  0.91135481  0.41153687  0.19384015  1
  Se  Se238  1  0.91662116  0.40512150  0.70501044  1
  Se  Se239  1  0.91857144  0.74784021  0.20323053  1
  Se  Se240  1  0.91912524  0.75057149  0.69419322  1
  Se  Se241  1  0.07566846  0.25011573  0.19963884  1
  Se  Se242  1  0.07708327  0.25075065  0.69758917  1
  Se  Se243  1  0.07445629  0.58223685  0.19727954  1
  Se  Se244  1  0.08513835  0.58691617  0.70025216  1
  Se  Se245  1  0.08341850  0.91982114  0.20023107  1
  Se  Se246  1  0.07765251  0.91993155  0.69332879  1
  Se  Se247  1  0.42055703  0.24872017  0.20073694  1
  Se  Se248  1  0.42123315  0.24354671  0.69006505  1
  Se  Se249  1  0.42163347  0.57765155  0.18703102  1
  Se  Se250  1  0.42418060  0.57755429  0.69086156  1
  Se  Se251  1  0.42923575  0.90785996  0.19027633  1
  Se  Se252  1  0.40992490  0.91915405  0.69782327  1
  Se  Se253  1  0.75862830  0.24312642  0.18650837  1
  Se  Se254  1  0.75453004  0.24401565  0.68461124  1
  Se  Se255  1  0.74970865  0.58163191  0.19980074  1
  Se  Se256  1  0.74872082  0.58096032  0.70267690  1
  Se  Se257  1  0.75478735  0.91535187  0.20011538  1
  Se  Se258  1  0.74650278  0.92118949  0.69453513  1
