# generated using pymatgen
data_In86Cu29Se144
_symmetry_space_group_name_H-M   'P 1'
_cell_length_a   17.58715887
_cell_length_b   17.58200279
_cell_length_c   23.44899491
_cell_angle_alpha   89.98773969
_cell_angle_beta   90.02924231
_cell_angle_gamma   90.00959006
_symmetry_Int_Tables_number   1
_chemical_formula_structural   In86Cu29Se144
_chemical_formula_sum   'In86 Cu29 Se144'
_cell_volume   7250.83781936
_cell_formula_units_Z   1
loop_
 _symmetry_equiv_pos_site_id
 _symmetry_equiv_pos_as_xyz
  1  'x, y, z'
loop_
 _atom_site_type_symbol
 _atom_site_label
 _atom_site_symmetry_multiplicity
 _atom_site_fract_x
 _atom_site_fract_y
 _atom_site_fract_z
 _atom_site_occupancy
  In  In0  1  0.00925528  0.15957527  0.12176320  1
  In  In1  1  0.00000047  0.15097298  0.62618420  1
  In  In2  1  -0.00849696  0.48797576  0.11149116  1
  In  In3  1  0.01948387  0.50137127  0.63006107  1
  In  In4  1  0.01321940  0.84254646  0.12235425  1
  In  In5  1  -0.00089311  0.83511056  0.62263249  1
  In  In6  1  0.33232786  0.16421630  0.12534158  1
  In  In7  1  0.33581673  0.17225808  0.61967753  1
  In  In8  1  0.31647190  0.49908953  0.12211386  1
  In  In9  1  0.33532808  0.48606003  0.62583844  1
  In  In10  1  0.34320900  0.84426437  0.12391121  1
  In  In11  1  0.33771029  0.83181363  0.61113312  1
  In  In12  1  0.65576110  0.16549559  0.11292884  1
  In  In13  1  0.65930659  0.17847092  0.63189499  1
  In  In14  1  0.67058527  0.47990799  0.11711024  1
  In  In15  1  0.65442632  0.49510346  0.62657827  1
  In  In16  1  0.67220837  0.85497965  0.13039486  1
  In  In17  1  0.66392387  0.81937008  0.60904183  1
  In  In18  1  0.17074854  0.00103181  0.37312208  1
  In  In19  1  0.14135481  0.01879019  0.90253939  1
  In  In20  1  0.15832200  0.31951700  0.36493107  1
  In  In21  1  0.18297966  0.31420645  0.88210799  1
  In  In22  1  0.17780306  0.67572573  0.37950064  1
  In  In23  1  0.15613693  0.68185036  0.88002339  1
  In  In24  1  0.49817945  0.00706364  0.37626194  1
  In  In25  1  0.49123066  0.00706191  0.88311178  1
  In  In26  1  0.48943245  0.34139149  0.38194659  1
  In  In27  1  0.49289235  0.31846068  0.86403840  1
  In  In28  1  0.48172354  0.68450296  0.40672622  1
  In  In29  1  0.50537964  0.67320142  0.87449805  1
  In  In30  1  0.82689445  0.00424081  0.36168410  1
  In  In31  1  0.84762420  0.00518942  0.87845502  1
  In  In32  1  0.83712144  0.31425931  0.36676702  1
  In  In33  1  0.82659663  0.33227697  0.88721087  1
  In  In34  1  0.84643733  0.67162260  0.37489716  1
  In  In35  1  0.83518384  0.65661053  0.87519053  1
  In  In36  1  0.00485741  0.17109033  0.36108519  1
  In  In37  1  0.00246653  0.15489837  0.88844536  1
  In  In38  1  0.00684432  0.49328758  0.37107698  1
  In  In39  1  -0.00597600  0.50413995  0.87784975  1
  In  In40  1  -0.00715393  0.84520537  0.38137256  1
  In  In41  1  0.01369464  0.85389098  0.86472114  1
  In  In42  1  0.33159649  0.16653818  0.37254494  1
  In  In43  1  0.32572821  0.17363365  0.87591083  1
  In  In44  1  0.34114944  0.50323985  0.37398045  1
  In  In45  1  0.33503213  0.48089114  0.87287541  1
  In  In46  1  0.32489921  0.84225418  0.38452385  1
  In  In47  1  0.32456219  0.84484055  0.88264442  1
  In  In48  1  0.66522840  0.14881765  0.37133077  1
  In  In49  1  0.65287460  0.18339596  0.89643197  1
  In  In50  1  0.65527824  0.49215173  0.37479704  1
  In  In51  1  0.68147992  0.49413992  0.87913604  1
  In  In52  1  0.65536780  0.84834212  0.38479167  1
  In  In53  1  0.65656207  0.82532898  0.87733432  1
  In  In54  1  0.16735346  0.00445773  0.12475110  1
  In  In55  1  0.16353904  -0.00684956  0.61803588  1
  In  In56  1  0.16636940  0.32797198  0.12151917  1
  In  In57  1  0.17970662  0.33126941  0.62642749  1
  In  In58  1  0.16746533  0.66497592  0.11669610  1
  In  In59  1  0.15617255  0.66832893  0.62869281  1
  In  In60  1  0.50039761  0.00302163  0.12907271  1
  In  In61  1  0.50042791  0.00101413  0.61725519  1
  In  In62  1  0.50267473  0.30919324  0.12230764  1
  In  In63  1  0.49350111  0.32718493  0.62432662  1
  In  In64  1  0.48571589  0.67537651  0.12938883  1
  In  In65  1  0.49880500  0.66127351  0.60803065  1
  In  In66  1  0.82886429  0.01347712  0.13564131  1
  In  In67  1  0.84569950  -0.00293031  0.62722676  1
  In  In68  1  0.83593593  0.33877205  0.10975649  1
  In  In69  1  0.83346545  0.31305903  0.63096721  1
  In  In70  1  0.84140624  0.66046501  0.12276638  1
  In  In71  1  0.83000419  0.67964844  0.62427888  1
  In  In72  1  0.00410922  0.33166403  0.75522489  1
  In  In73  1  0.66841294  0.32257846  0.24417547  1
  In  In74  1  0.33189094  0.67137048  0.26170858  1
  In  In75  1  0.83375071  0.83347092  0.00246831  1
  In  In76  1  0.33144672  0.66584756  0.74307684  1
  In  In77  1  0.82814889  0.50423785  0.50349269  1
  In  In78  1  0.17747379  0.50420817  0.50260426  1
  In  In79  1  0.49892891  0.50216916  -0.00298884  1
  In  In80  1  0.66418466  0.66502373  0.26244847  1
  In  In81  1  0.66964862  0.00433609  0.74484303  1
  In  In82  1  0.66916070  0.66274941  0.74683906  1
  In  In83  1  0.82901746  0.15649011  0.49550335  1
  In  In84  1  0.32498351  0.00878134  0.75364885  1
  In  In85  1  0.00240688  0.67190162  0.24431390  1
  Cu  Cu86  1  0.66037670  -0.00451491  0.00389593  1
  Cu  Cu87  1  0.00727685  0.33299733  -0.00163892  1
  Cu  Cu88  1  0.83239158  0.49274730  0.23927430  1
  Cu  Cu89  1  0.65760436  0.67033166  0.00070371  1
  Cu  Cu90  1  -0.00264800  0.66487322  -0.00220425  1
  Cu  Cu91  1  0.33336580  0.00553398  0.49718547  1
  Cu  Cu92  1  0.00244317  0.67540744  0.50288245  1
  Cu  Cu93  1  0.33452396  0.33019596  0.00006866  1
  Cu  Cu94  1  0.50477337  0.48669990  0.74883426  1
  Cu  Cu95  1  0.15539295  0.84321719  0.74900705  1
  Cu  Cu96  1  0.32851127  0.67184868  0.00060464  1
  Cu  Cu97  1  0.83874938  0.49410224  0.75714562  1
  Cu  Cu98  1  0.00206213  0.32828877  0.48985424  1
  Cu  Cu99  1  0.33796775  -0.00279584  0.00719051  1
  Cu  Cu100  1  0.49573574  0.16368768  0.25007252  1
  Cu  Cu101  1  0.49350400  0.49341250  0.25538515  1
  Cu  Cu102  1  0.84167494  0.83517828  0.74656603  1
  Cu  Cu103  1  0.16644217  0.50386981  0.75594835  1
  Cu  Cu104  1  0.83018575  0.16339454  0.75895326  1
  Cu  Cu105  1  0.65627827  0.33287322  0.50226537  1
  Cu  Cu106  1  0.17143303  0.83961115  0.25015763  1
  Cu  Cu107  1  0.50709307  0.84358112  0.25452782  1
  Cu  Cu108  1  0.17307907  0.16208580  0.24523195  1
  Cu  Cu109  1  0.83308776  0.84685449  0.25290557  1
  Cu  Cu110  1  0.49803191  0.83750316  0.74636868  1
  Cu  Cu111  1  0.15934610  0.48526316  0.24450632  1
  Cu  Cu112  1  0.33311233  0.32965366  0.49856318  1
  Cu  Cu113  1  0.00511506  -0.00375252  0.49843227  1
  Cu  Cu114  1  0.66651310  -0.00097701  0.49815751  1
  Se  Se115  1  0.10225836  0.09306399  0.05073027  1
  Se  Se116  1  0.08378339  0.08416178  0.55086991  1
  Se  Se117  1  0.09206467  0.41808554  0.05019646  1
  Se  Se118  1  0.07953294  0.40786855  0.55344357  1
  Se  Se119  1  0.07815964  0.74733293  0.05377830  1
  Se  Se120  1  0.08919723  0.75515555  0.55500133  1
  Se  Se121  1  0.42091058  0.08493511  0.05721355  1
  Se  Se122  1  0.41690647  0.08643922  0.55216131  1
  Se  Se123  1  0.41315967  0.41233783  0.06117157  1
  Se  Se124  1  0.41662755  0.41378949  0.55185578  1
  Se  Se125  1  0.41487411  0.75235949  0.05303768  1
  Se  Se126  1  0.42892940  0.75818838  0.54584013  1
  Se  Se127  1  0.74700096  0.07606598  0.05578892  1
  Se  Se128  1  0.74097099  0.07676272  0.56633834  1
  Se  Se129  1  0.75317095  0.42031571  0.04050796  1
  Se  Se130  1  0.74814903  0.40058789  0.56147684  1
  Se  Se131  1  0.73966303  0.74546018  0.06493814  1
  Se  Se132  1  0.75784832  0.74713368  0.54496924  1
  Se  Se133  1  0.25214200  0.24596848  0.05364929  1
  Se  Se134  1  0.24549496  0.24888814  0.54964195  1
  Se  Se135  1  0.24699398  0.58112111  0.04703426  1
  Se  Se136  1  0.26074653  0.59394055  0.56688763  1
  Se  Se137  1  0.24943139  0.91486509  0.05734039  1
  Se  Se138  1  0.25144520  0.91792873  0.54891500  1
  Se  Se139  1  0.59996205  0.27116493  0.04752450  1
  Se  Se140  1  0.57802811  0.24453893  0.55441940  1
  Se  Se141  1  0.58344535  0.59018741  0.06578575  1
  Se  Se142  1  0.59986459  0.58551187  0.55252431  1
  Se  Se143  1  0.57817042  0.91307830  0.05851835  1
  Se  Se144  1  0.58248664  0.91539583  0.55097199  1
  Se  Se145  1  0.92737008  0.24914935  0.05388000  1
  Se  Se146  1  0.92328798  0.25000856  0.55338198  1
  Se  Se147  1  0.91113426  0.58063285  0.04734628  1
  Se  Se148  1  0.93006876  0.58593345  0.56158053  1
  Se  Se149  1  0.91653565  0.92528932  0.06334737  1
  Se  Se150  1  0.91611542  0.91712649  0.55126869  1
  Se  Se151  1  0.08295716  0.24145954  0.44042075  1
  Se  Se152  1  0.08919128  0.24470575  0.94952258  1
  Se  Se153  1  0.07718001  0.58982744  0.44182953  1
  Se  Se154  1  0.08337204  0.58452807  0.94401926  1
  Se  Se155  1  0.09154812  0.91488748  0.44474429  1
  Se  Se156  1  0.07860939  0.90638076  0.95394662  1
  Se  Se157  1  0.41593390  0.24523570  0.44511789  1
  Se  Se158  1  0.41738104  0.24941961  0.94423367  1
  Se  Se159  1  0.40793435  0.57590771  0.45366215  1
  Se  Se160  1  0.40573323  0.59189962  0.93660870  1
  Se  Se161  1  0.41961945  0.92138784  0.44613515  1
  Se  Se162  1  0.41915385  0.91382331  0.94998258  1
  Se  Se163  1  0.73914484  0.25568966  0.44085363  1
  Se  Se164  1  0.77278692  0.22462678  0.95056562  1
  Se  Se165  1  0.74732866  0.58621556  0.43311365  1
  Se  Se166  1  0.74450803  0.59116957  0.94789926  1
  Se  Se167  1  0.75659227  0.92758528  0.44118210  1
  Se  Se168  1  0.74069973  0.91983305  0.93951372  1
  Se  Se169  1  0.24819163  0.08689810  0.44366952  1
  Se  Se170  1  0.26116157  0.07953057  0.94747223  1
  Se  Se171  1  0.25024705  0.40771735  0.43636306  1
  Se  Se172  1  0.25077020  0.41495612  0.94824298  1
  Se  Se173  1  0.26354844  0.74108904  0.45109012  1
  Se  Se174  1  0.24494896  0.75687454  0.94869992  1
  Se  Se175  1  0.58281228  0.08617282  0.44912969  1
  Se  Se176  1  0.57666215  0.08266538  0.95380282  1
  Se  Se177  1  0.57683476  0.42029580  0.45055241  1
  Se  Se178  1  0.58016127  0.41188541  0.93409896  1
  Se  Se179  1  0.60244424  0.74177291  0.44863158  1
  Se  Se180  1  0.57309970  0.75456977  0.95165250  1
  Se  Se181  1  0.92618621  0.07700524  0.43603198  1
  Se  Se182  1  0.91253175  0.08138847  0.95725076  1
  Se  Se183  1  0.91486866  0.41054580  0.43911239  1
  Se  Se184  1  0.91975292  0.41589520  0.94702681  1
  Se  Se185  1  0.91694690  0.75422394  0.44872301  1
  Se  Se186  1  0.92160869  0.74979451  0.93662160  1
  Se  Se187  1  0.25339348  0.24930984  0.29916794  1
  Se  Se188  1  0.25222273  0.25026129  0.79910908  1
  Se  Se189  1  0.23340642  0.57138840  0.30681060  1
  Se  Se190  1  0.24925656  0.58439193  0.81450791  1
  Se  Se191  1  0.25752433  0.91813306  0.30455863  1
  Se  Se192  1  0.23549830  0.91835342  0.81177650  1
  Se  Se193  1  0.57492432  0.24613715  0.31180278  1
  Se  Se194  1  0.59675628  0.24688171  0.80730149  1
  Se  Se195  1  0.56261795  0.58127797  0.31555425  1
  Se  Se196  1  0.57891753  0.57242245  0.80942317  1
  Se  Se197  1  0.58867596  0.92859961  0.30686916  1
  Se  Se198  1  0.57611510  0.91532670  0.80820208  1
  Se  Se199  1  0.91659698  0.24658830  0.29226257  1
  Se  Se200  1  0.91449243  0.24409478  0.81584002  1
  Se  Se201  1  0.91106375  0.57399171  0.30110041  1
  Se  Se202  1  0.92008134  0.58531441  0.80185001  1
  Se  Se203  1  0.92530727  0.92353398  0.30291315  1
  Se  Se204  1  0.91572935  0.92476311  0.80049772  1
  Se  Se205  1  0.08966283  0.08036272  0.30083443  1
  Se  Se206  1  0.08564763  0.08467761  0.81411613  1
  Se  Se207  1  0.07375540  0.40661313  0.29888352  1
  Se  Se208  1  0.09316020  0.41910686  0.81705621  1
  Se  Se209  1  0.09048286  0.75741861  0.30935978  1
  Se  Se210  1  0.07878014  0.75116600  0.80066958  1
  Se  Se211  1  0.41301142  0.08080317  0.30371893  1
  Se  Se212  1  0.42440128  0.09392612  0.80739864  1
  Se  Se213  1  0.40764374  0.40934879  0.30399488  1
  Se  Se214  1  0.41343476  0.40868916  0.79779145  1
  Se  Se215  1  0.42887841  0.76074884  0.31543528  1
  Se  Se216  1  0.41635353  0.75892048  0.80736227  1
  Se  Se217  1  0.77155610  0.11508878  0.30184187  1
  Se  Se218  1  0.74705314  0.08592134  0.81789541  1
  Se  Se219  1  0.75407589  0.41987119  0.30612025  1
  Se  Se220  1  0.75508181  0.41019341  0.80722945  1
  Se  Se221  1  0.75732758  0.76231175  0.31250497  1
  Se  Se222  1  0.75731693  0.75833737  0.80718461  1
  Se  Se223  1  0.25775955  0.07636063  0.19599866  1
  Se  Se224  1  0.24032753  0.08959094  0.68525663  1
  Se  Se225  1  0.25079133  0.40976963  0.19371870  1
  Se  Se226  1  0.24569135  0.42189218  0.69903439  1
  Se  Se227  1  0.24605089  0.75224396  0.19154797  1
  Se  Se228  1  0.24365792  0.76694013  0.69114797  1
  Se  Se229  1  0.58531946  0.09060982  0.19389893  1
  Se  Se230  1  0.56729134  0.09041626  0.69476718  1
  Se  Se231  1  0.57346755  0.41932479  0.19110079  1
  Se  Se232  1  0.58547034  0.40343870  0.69471139  1
  Se  Se233  1  0.58089369  0.75626094  0.19551950  1
  Se  Se234  1  0.57480880  0.75188004  0.68928829  1
  Se  Se235  1  0.93415331  0.07610594  0.19476889  1
  Se  Se236  1  0.91249107  0.08497360  0.70078332  1
  Se  Se237  1  0.91651039  0.41186188  0.18759805  1
  Se  Se238  1  0.91454948  0.41952292  0.68855858  1
  Se  Se239  1  0.90659948  0.76417865  0.18982072  1
  Se  Se240  1  0.92082505  0.74800071  0.69398171  1
  Se  Se241  1  0.08819029  0.24636382  0.19325514  1
  Se  Se242  1  0.08698864  0.24413552  0.68956182  1
  Se  Se243  1  0.08541244  0.57416182  0.18624825  1
  Se  Se244  1  0.08349988  0.58854070  0.70487469  1
  Se  Se245  1  0.08634753  0.92066737  0.19740710  1
  Se  Se246  1  0.07568839  0.92471759  0.69185234  1
  Se  Se247  1  0.41428983  0.24909800  0.19689089  1
  Se  Se248  1  0.40010806  0.25997140  0.69402544  1
  Se  Se249  1  0.41416500  0.57623752  0.19585568  1
  Se  Se250  1  0.43094398  0.57619690  0.69055004  1
  Se  Se251  1  0.41849593  0.91960422  0.20003323  1
  Se  Se252  1  0.41445622  0.91564222  0.68958646  1
  Se  Se253  1  0.75646020  0.24473988  0.17783722  1
  Se  Se254  1  0.74804420  0.24682932  0.70519627  1
  Se  Se255  1  0.74674220  0.57772850  0.18966233  1
  Se  Se256  1  0.76152615  0.57079848  0.68976805  1
  Se  Se257  1  0.74477882  0.93109166  0.20619505  1
  Se  Se258  1  0.75061558  0.90314213  0.68623129  1
