# generated using pymatgen
data_In86Cu29Se144
_symmetry_space_group_name_H-M   'P 1'
_cell_length_a   17.57704768
_cell_length_b   17.57749418
_cell_length_c   23.44451841
_cell_angle_alpha   90.00221380
_cell_angle_beta   89.99665226
_cell_angle_gamma   89.97041308
_symmetry_Int_Tables_number   1
_chemical_formula_structural   In86Cu29Se144
_chemical_formula_sum   'In86 Cu29 Se144'
_cell_volume   7243.42805176
_cell_formula_units_Z   1
loop_
 _symmetry_equiv_pos_site_id
 _symmetry_equiv_pos_as_xyz
  1  'x, y, z'
loop_
 _atom_site_type_symbol
 _atom_site_label
 _atom_site_symmetry_multiplicity
 _atom_site_fract_x
 _atom_site_fract_y
 _atom_site_fract_z
 _atom_site_occupancy
  In  In0  1  -0.00668385  0.15828652  0.11592066  1
  In  In1  1  0.00989300  0.15641108  0.63210801  1
  In  In2  1  0.00597309  0.50173263  0.12525939  1
  In  In3  1  -0.00071293  0.48829073  0.62561956  1
  In  In4  1  0.00048034  0.83298379  0.13213309  1
  In  In5  1  0.01044926  0.85202433  0.62436474  1
  In  In6  1  0.34228300  0.17270897  0.11707874  1
  In  In7  1  0.33825289  0.17866981  0.62109140  1
  In  In8  1  0.31891104  0.50114043  0.13648655  1
  In  In9  1  0.32911003  0.50303136  0.62304506  1
  In  In10  1  0.33097932  0.81677375  0.12408067  1
  In  In11  1  0.32321788  0.81347784  0.62552768  1
  In  In12  1  0.66092282  0.15645012  0.11909549  1
  In  In13  1  0.66336544  0.17799394  0.62529678  1
  In  In14  1  0.68025251  0.49955761  0.12795475  1
  In  In15  1  0.67199218  0.51571521  0.62440806  1
  In  In16  1  0.66349957  0.83476343  0.12941941  1
  In  In17  1  0.66259344  0.81621958  0.62226173  1
  In  In18  1  0.16696779  0.01655383  0.37227450  1
  In  In19  1  0.17400004  0.01747261  0.87444161  1
  In  In20  1  0.17634397  0.32842747  0.37899710  1
  In  In21  1  0.16807672  0.33190804  0.87424371  1
  In  In22  1  0.16544914  0.65893642  0.37456562  1
  In  In23  1  0.16145326  0.64895831  0.87553508  1
  In  In24  1  0.51231710  -0.00336916  0.37513607  1
  In  In25  1  0.48132505  0.00464698  0.89556845  1
  In  In26  1  0.48812325  0.35145564  0.38365695  1
  In  In27  1  0.48478260  0.33356039  0.87187579  1
  In  In28  1  0.48641872  0.65070151  0.36305977  1
  In  In29  1  0.50261759  0.67216179  0.87366248  1
  In  In30  1  0.82243074  -0.00678738  0.36609290  1
  In  In31  1  0.84588030  0.00653541  0.87000678  1
  In  In32  1  0.83354817  0.33883308  0.37406062  1
  In  In33  1  0.85024783  0.32021852  0.88550215  1
  In  In34  1  0.85059209  0.67959114  0.36518798  1
  In  In35  1  0.82396110  0.67170923  0.87659696  1
  In  In36  1  0.01387301  0.17288450  0.37144023  1
  In  In37  1  0.00107807  0.17368245  0.87164189  1
  In  In38  1  0.01784117  0.52922908  0.36589990  1
  In  In39  1  0.01346833  0.48831715  0.88399130  1
  In  In40  1  -0.01339349  0.82332243  0.37204840  1
  In  In41  1  -0.01109562  0.83608945  0.87032613  1
  In  In42  1  0.32848556  0.17823350  0.38160496  1
  In  In43  1  0.32276409  0.17176076  0.88507531  1
  In  In44  1  0.33188826  0.50500399  0.37408165  1
  In  In45  1  0.32339697  0.48768178  0.86687062  1
  In  In46  1  0.33964808  0.82073923  0.37340117  1
  In  In47  1  0.34604690  0.83675413  0.87717819  1
  In  In48  1  0.66595376  0.15518804  0.37221375  1
  In  In49  1  0.66835497  0.16244176  0.88134288  1
  In  In50  1  0.65622883  0.49840359  0.37131039  1
  In  In51  1  0.66824557  0.51430081  0.87564883  1
  In  In52  1  0.67385110  0.83836010  0.37167705  1
  In  In53  1  0.66013886  0.82066590  0.87403657  1
  In  In54  1  0.15561433  -0.00519969  0.12258810  1
  In  In55  1  0.14836709  -0.00282198  0.62560054  1
  In  In56  1  0.17780050  0.34118356  0.12185949  1
  In  In57  1  0.17018506  0.33698658  0.62330381  1
  In  In58  1  0.17000163  0.64931412  0.14152098  1
  In  In59  1  0.18339105  0.67128691  0.62267232  1
  In  In60  1  0.50697608  0.01016443  0.11854783  1
  In  In61  1  0.48724570  0.00631810  0.62347247  1
  In  In62  1  0.49386492  0.31750412  0.12393214  1
  In  In63  1  0.48790677  0.33000410  0.62212635  1
  In  In64  1  0.49574506  0.67076220  0.13114178  1
  In  In65  1  0.50397561  0.66063479  0.62640255  1
  In  In66  1  0.82804707  0.00088793  0.12597869  1
  In  In67  1  0.85282642  0.00161069  0.62510158  1
  In  In68  1  0.84077349  0.33570830  0.11348319  1
  In  In69  1  0.84222136  0.34071153  0.63158423  1
  In  In70  1  0.84700290  0.65227842  0.13884192  1
  In  In71  1  0.82179628  0.66413100  0.62197029  1
  In  In72  1  0.66053046  0.32990469  0.24861459  1
  In  In73  1  0.67220393  0.34075532  0.74658234  1
  In  In74  1  0.49918336  0.83270608  0.50029727  1
  In  In75  1  0.66775754  -0.00726386  0.76010491  1
  In  In76  1  0.33409243  -0.00235776  0.24612676  1
  In  In77  1  0.82761638  0.83632496  -0.00174138  1
  In  In78  1  0.00111387  0.66943599  0.74937270  1
  In  In79  1  0.83639556  0.50258729  0.49613737  1
  In  In80  1  0.16323407  0.83241129  0.49827474  1
  In  In81  1  0.00370448  0.33933345  0.24816689  1
  In  In82  1  0.83451125  0.16803846  0.50030205  1
  In  In83  1  0.50044593  0.49536413  -0.00335596  1
  In  In84  1  0.17082378  0.83316868  -0.00009210  1
  In  In85  1  0.32695421  -0.00334907  0.75063556  1
  Cu  Cu86  1  0.16250234  0.83117523  0.25030925  1
  Cu  Cu87  1  0.66927570  0.66695547  0.00155638  1
  Cu  Cu88  1  0.33414379  0.34054019  0.50102025  1
  Cu  Cu89  1  0.33102509  0.65783799  0.00630766  1
  Cu  Cu90  1  0.00498411  0.32962919  -0.00082922  1
  Cu  Cu91  1  -0.00175954  0.00418384  0.49878448  1
  Cu  Cu92  1  0.66890125  0.00056160  0.49433516  1
  Cu  Cu93  1  0.00386872  0.65984704  0.00838386  1
  Cu  Cu94  1  0.01018666  0.33476589  0.49963652  1
  Cu  Cu95  1  0.82998059  0.83389049  0.74892506  1
  Cu  Cu96  1  0.66670845  0.00221231  0.00189093  1
  Cu  Cu97  1  0.49382732  0.50012951  0.25125895  1
  Cu  Cu98  1  0.49489264  0.50837514  0.74880738  1
  Cu  Cu99  1  0.83390562  0.16206850  0.24204842  1
  Cu  Cu100  1  0.49658930  0.16569289  0.24659449  1
  Cu  Cu101  1  0.49882903  0.82413791  0.75220208  1
  Cu  Cu102  1  0.83891269  0.50159171  0.75202715  1
  Cu  Cu103  1  0.83194072  0.83533740  0.24831967  1
  Cu  Cu104  1  0.65562416  0.33493584  0.50225158  1
  Cu  Cu105  1  0.32947472  0.33308480  -0.00225202  1
  Cu  Cu106  1  0.17026536  0.49474879  0.74935377  1
  Cu  Cu107  1  0.49802780  0.16722597  0.75083524  1
  Cu  Cu108  1  0.16882608  0.17445595  0.75118527  1
  Cu  Cu109  1  0.32748244  0.00835224  0.50141054  1
  Cu  Cu110  1  0.66600825  0.66943875  0.49469491  1
  Cu  Cu111  1  0.50690247  0.83266164  0.25121862  1
  Cu  Cu112  1  0.00280335  0.00883706  -0.00432009  1
  Cu  Cu113  1  0.66702412  0.33027759  0.00439663  1
  Cu  Cu114  1  0.16374503  0.16754508  0.24902368  1
  Se  Se115  1  0.09010308  0.08545480  0.05016910  1
  Se  Se116  1  0.08368231  0.08593886  0.55104761  1
  Se  Se117  1  0.08276912  0.41427933  0.05631296  1
  Se  Se118  1  0.08811327  0.42149010  0.55317869  1
  Se  Se119  1  0.08438673  0.74424108  0.06421032  1
  Se  Se120  1  0.07569080  0.74519249  0.56150658  1
  Se  Se121  1  0.41724132  0.08226860  0.05163101  1
  Se  Se122  1  0.41644606  0.09004423  0.55123644  1
  Se  Se123  1  0.40849247  0.41296150  0.06038575  1
  Se  Se124  1  0.41856949  0.42335514  0.55446082  1
  Se  Se125  1  0.41782464  0.74284913  0.05303257  1
  Se  Se126  1  0.40983293  0.73754048  0.55407475  1
  Se  Se127  1  0.75531635  0.08375909  0.05164908  1
  Se  Se128  1  0.74465649  0.07761748  0.56149783  1
  Se  Se129  1  0.74963048  0.41894668  0.05129583  1
  Se  Se130  1  0.74560446  0.40979814  0.55948303  1
  Se  Se131  1  0.75181311  0.74280651  0.06362535  1
  Se  Se132  1  0.75049360  0.75045628  0.54834623  1
  Se  Se133  1  0.24782659  0.24889860  0.05236924  1
  Se  Se134  1  0.25041166  0.25347608  0.55185336  1
  Se  Se135  1  0.24492253  0.58009293  0.06036015  1
  Se  Se136  1  0.23908110  0.57505439  0.55262594  1
  Se  Se137  1  0.25997974  0.92123238  0.06111668  1
  Se  Se138  1  0.25503602  0.92260132  0.56168399  1
  Se  Se139  1  0.58095738  0.24630778  0.05286883  1
  Se  Se140  1  0.57654456  0.24840220  0.55494882  1
  Se  Se141  1  0.58699101  0.58458734  0.05972292  1
  Se  Se142  1  0.58655874  0.58646469  0.55160239  1
  Se  Se143  1  0.58776806  0.91595682  0.05576313  1
  Se  Se144  1  0.58934492  0.92535509  0.56066233  1
  Se  Se145  1  0.91627723  0.24571244  0.04714681  1
  Se  Se146  1  0.92512994  0.25743466  0.55932325  1
  Se  Se147  1  0.91426166  0.57878232  0.05699453  1
  Se  Se148  1  0.92376209  0.58833408  0.56048024  1
  Se  Se149  1  0.92630660  0.92159760  0.05492637  1
  Se  Se150  1  0.91884260  0.91624386  0.55018582  1
  Se  Se151  1  0.08921912  0.24664741  0.44735327  1
  Se  Se152  1  0.08783337  0.24745402  0.94388447  1
  Se  Se153  1  0.08521898  0.58828168  0.45121906  1
  Se  Se154  1  0.08779312  0.57751434  0.95435320  1
  Se  Se155  1  0.07816958  0.92516341  0.43596808  1
  Se  Se156  1  0.07734212  0.92030479  0.93801112  1
  Se  Se157  1  0.41838430  0.25380285  0.44919163  1
  Se  Se158  1  0.41837083  0.25108009  0.94788881  1
  Se  Se159  1  0.42368599  0.57781332  0.44376905  1
  Se  Se160  1  0.40806307  0.58320545  0.93806391  1
  Se  Se161  1  0.40622561  0.92604836  0.44130671  1
  Se  Se162  1  0.42103145  0.90038418  0.95713558  1
  Se  Se163  1  0.73944645  0.25895555  0.44121939  1
  Se  Se164  1  0.74971923  0.24874216  0.94751593  1
  Se  Se165  1  0.74639868  0.58878674  0.43429646  1
  Se  Se166  1  0.75400335  0.58446142  0.94957757  1
  Se  Se167  1  0.75394615  0.91605119  0.44589603  1
  Se  Se168  1  0.74159281  0.92598569  0.93372342  1
  Se  Se169  1  0.24513889  0.09059615  0.44730473  1
  Se  Se170  1  0.26397470  0.06941881  0.95034068  1
  Se  Se171  1  0.25060288  0.42046691  0.44516286  1
  Se  Se172  1  0.24671218  0.41845918  0.94560650  1
  Se  Se173  1  0.25905615  0.74180009  0.44583909  1
  Se  Se174  1  0.25516518  0.73722462  0.94034115  1
  Se  Se175  1  0.58213751  0.08553991  0.44764891  1
  Se  Se176  1  0.58113808  0.08606988  0.95006098  1
  Se  Se177  1  0.58160392  0.42579829  0.44972612  1
  Se  Se178  1  0.59187803  0.40628785  0.93609431  1
  Se  Se179  1  0.58261201  0.74620209  0.43360096  1
  Se  Se180  1  0.58206140  0.74740179  0.94996813  1
  Se  Se181  1  0.91967484  0.08183664  0.43441196  1
  Se  Se182  1  0.91717786  0.08955054  0.94288484  1
  Se  Se183  1  0.93032555  0.41293666  0.43817650  1
  Se  Se184  1  0.91841030  0.41823168  0.95131824  1
  Se  Se185  1  0.91664458  0.74585195  0.44896591  1
  Se  Se186  1  0.92646803  0.74134970  0.94661141  1
  Se  Se187  1  0.24937849  0.24645423  0.30316181  1
  Se  Se188  1  0.25630949  0.25088310  0.80603853  1
  Se  Se189  1  0.25849741  0.59417403  0.30432255  1
  Se  Se190  1  0.24956657  0.58309204  0.80157099  1
  Se  Se191  1  0.24501351  0.91002494  0.31133461  1
  Se  Se192  1  0.24173441  0.90785698  0.81348053  1
  Se  Se193  1  0.57111523  0.24618611  0.31302221  1
  Se  Se194  1  0.58214313  0.24748358  0.80775134  1
  Se  Se195  1  0.58490670  0.58222798  0.29717313  1
  Se  Se196  1  0.58182006  0.58542002  0.80411114  1
  Se  Se197  1  0.58884564  0.91948429  0.30148963  1
  Se  Se198  1  0.56489951  0.91303110  0.81556918  1
  Se  Se199  1  0.90812999  0.24348075  0.30509294  1
  Se  Se200  1  0.92056322  0.25833013  0.80288262  1
  Se  Se201  1  0.90599016  0.57018734  0.30375943  1
  Se  Se202  1  0.91708511  0.58063568  0.81589973  1
  Se  Se203  1  0.91726973  0.91721310  0.30283518  1
  Se  Se204  1  0.91519827  0.91860343  0.79732152  1
  Se  Se205  1  0.07864248  0.08252140  0.29790891  1
  Se  Se206  1  0.08679670  0.08874039  0.80375837  1
  Se  Se207  1  0.09548873  0.42157123  0.31001932  1
  Se  Se208  1  0.08475703  0.41527131  0.80440135  1
  Se  Se209  1  0.08376402  0.74935769  0.30877409  1
  Se  Se210  1  0.08994949  0.75523380  0.81287414  1
  Se  Se211  1  0.41943933  0.08598139  0.31156177  1
  Se  Se212  1  0.41876484  0.08600352  0.81081467  1
  Se  Se213  1  0.41134101  0.41535933  0.30343336  1
  Se  Se214  1  0.41569053  0.41675479  0.79741748  1
  Se  Se215  1  0.41692878  0.74936785  0.29718910  1
  Se  Se216  1  0.41068605  0.74500628  0.80454396  1
  Se  Se217  1  0.74722161  0.08389387  0.29757696  1
  Se  Se218  1  0.75773592  0.09543501  0.80439992  1
  Se  Se219  1  0.75417051  0.42224696  0.30308102  1
  Se  Se220  1  0.75838442  0.42278401  0.81428855  1
  Se  Se221  1  0.75065242  0.75103126  0.30280120  1
  Se  Se222  1  0.74753100  0.74985467  0.80156193  1
  Se  Se223  1  0.24423875  0.08818136  0.18711385  1
  Se  Se224  1  0.24463400  0.09058804  0.68755190  1
  Se  Se225  1  0.24795278  0.40828039  0.20322245  1
  Se  Se226  1  0.25524138  0.41419338  0.69469736  1
  Se  Se227  1  0.24904858  0.74884414  0.19967173  1
  Se  Se228  1  0.23463167  0.76006573  0.70171643  1
  Se  Se229  1  0.58349467  0.08336259  0.19687128  1
  Se  Se230  1  0.57910151  0.08505931  0.69433375  1
  Se  Se231  1  0.57136050  0.42072103  0.18670652  1
  Se  Se232  1  0.57745817  0.42783749  0.68796740  1
  Se  Se233  1  0.58730462  0.74586788  0.19800058  1
  Se  Se234  1  0.58440530  0.74425702  0.69805303  1
  Se  Se235  1  0.91997567  0.07890026  0.19200705  1
  Se  Se236  1  0.91601150  0.08633416  0.69880553  1
  Se  Se237  1  0.90520319  0.42152060  0.19155130  1
  Se  Se238  1  0.92358108  0.41581103  0.70427044  1
  Se  Se239  1  0.91999266  0.75046218  0.20079501  1
  Se  Se240  1  0.91100648  0.75650326  0.68617255  1
  Se  Se241  1  0.08404362  0.24412674  0.18520752  1
  Se  Se242  1  0.08630340  0.25366206  0.69298206  1
  Se  Se243  1  0.06610392  0.58724260  0.20293981  1
  Se  Se244  1  0.08931541  0.57703543  0.69058225  1
  Se  Se245  1  0.08214039  0.91882322  0.19940686  1
  Se  Se246  1  0.08305972  0.91996421  0.70425809  1
  Se  Se247  1  0.40928536  0.24905475  0.19876390  1
  Se  Se248  1  0.41514682  0.25157540  0.69905015  1
  Se  Se249  1  0.41236712  0.58431078  0.19617510  1
  Se  Se250  1  0.41069530  0.58850153  0.69342485  1
  Se  Se251  1  0.42531388  0.90871324  0.18691680  1
  Se  Se252  1  0.42055247  0.90447435  0.69010698  1
  Se  Se253  1  0.75449986  0.24674713  0.18504408  1
  Se  Se254  1  0.76232614  0.24174137  0.69407742  1
  Se  Se255  1  0.73890127  0.59282284  0.19889174  1
  Se  Se256  1  0.75354969  0.58479078  0.70090856  1
  Se  Se257  1  0.74821311  0.91874155  0.19567277  1
  Se  Se258  1  0.74927074  0.91196760  0.68630798  1
