# generated using pymatgen
data_In86Cu29Se144
_symmetry_space_group_name_H-M   'P 1'
_cell_length_a   17.57978731
_cell_length_b   17.58205150
_cell_length_c   23.44537359
_cell_angle_alpha   89.99695768
_cell_angle_beta   90.00115407
_cell_angle_gamma   90.00715856
_symmetry_Int_Tables_number   1
_chemical_formula_structural   In86Cu29Se144
_chemical_formula_sum   'In86 Cu29 Se144'
_cell_volume   7246.70058652
_cell_formula_units_Z   1
loop_
 _symmetry_equiv_pos_site_id
 _symmetry_equiv_pos_as_xyz
  1  'x, y, z'
loop_
 _atom_site_type_symbol
 _atom_site_label
 _atom_site_symmetry_multiplicity
 _atom_site_fract_x
 _atom_site_fract_y
 _atom_site_fract_z
 _atom_site_occupancy
  In  In0  1  -0.00926395  0.15714794  0.12650418  1
  In  In1  1  -0.00438880  0.16505103  0.61768193  1
  In  In2  1  -0.00348012  0.51796645  0.12696127  1
  In  In3  1  0.01015057  0.51394646  0.62081130  1
  In  In4  1  0.01085632  0.82810181  0.12991708  1
  In  In5  1  -0.01489401  0.81833804  0.61847307  1
  In  In6  1  0.32325558  0.15921274  0.11846896  1
  In  In7  1  0.31555258  0.16247566  0.63285398  1
  In  In8  1  0.33819878  0.48814060  0.11972195  1
  In  In9  1  0.32263289  0.51640170  0.63651322  1
  In  In10  1  0.32787270  0.85008139  0.12437202  1
  In  In11  1  0.32194726  0.84514002  0.63118907  1
  In  In12  1  0.67244186  0.16296136  0.12908788  1
  In  In13  1  0.68175754  0.16442821  0.62730076  1
  In  In14  1  0.67318434  0.49886035  0.12106806  1
  In  In15  1  0.67111250  0.49169344  0.62949660  1
  In  In16  1  0.67205573  0.83033708  0.13556680  1
  In  In17  1  0.67210364  0.82812015  0.62436678  1
  In  In18  1  0.16612147  -0.00064530  0.37342114  1
  In  In19  1  0.17085746  -0.00151274  0.88294196  1
  In  In20  1  0.16173592  0.33446565  0.38638739  1
  In  In21  1  0.15507869  0.32887296  0.87529318  1
  In  In22  1  0.15156928  0.68370215  0.38639303  1
  In  In23  1  0.17901494  0.67102131  0.85972458  1
  In  In24  1  0.50342275  0.00521645  0.36582039  1
  In  In25  1  0.48380351  0.01008630  0.87321791  1
  In  In26  1  0.50379337  0.32281504  0.37165351  1
  In  In27  1  0.52674027  0.33022209  0.87659643  1
  In  In28  1  0.50954411  0.65603169  0.37593556  1
  In  In29  1  0.49428306  0.65892148  0.87150632  1
  In  In30  1  0.83406798  -0.00307592  0.37910386  1
  In  In31  1  0.84494570  0.00044810  0.87820662  1
  In  In32  1  0.82777765  0.34355768  0.37795086  1
  In  In33  1  0.81795031  0.34896780  0.89235537  1
  In  In34  1  0.83648290  0.66899846  0.37394782  1
  In  In35  1  0.81846097  0.65927667  0.85547440  1
  In  In36  1  0.01073666  0.15436799  0.38033768  1
  In  In37  1  -0.00311330  0.16800750  0.88432055  1
  In  In38  1  -0.01129445  0.51272895  0.38350789  1
  In  In39  1  -0.01131576  0.49549328  0.87139101  1
  In  In40  1  -0.00096532  0.83440512  0.37539733  1
  In  In41  1  0.01071694  0.83718811  0.87218183  1
  In  In42  1  0.33593126  0.15433375  0.37397343  1
  In  In43  1  0.32801559  0.15108689  0.86601119  1
  In  In44  1  0.32972760  0.48844309  0.37999295  1
  In  In45  1  0.33194471  0.51669160  0.87328385  1
  In  In46  1  0.32013699  0.83817829  0.37915132  1
  In  In47  1  0.32415423  0.82877534  0.87060200  1
  In  In48  1  0.66982891  0.17107910  0.37007377  1
  In  In49  1  0.66588642  0.18876271  0.87613139  1
  In  In50  1  0.67987442  0.51003190  0.36521949  1
  In  In51  1  0.66874655  0.49965134  0.87588137  1
  In  In52  1  0.68808883  0.85042526  0.36516773  1
  In  In53  1  0.67957031  0.82305862  0.86930690  1
  In  In54  1  0.16656591  -0.00228275  0.12679538  1
  In  In55  1  0.16988334  0.00534060  0.62038499  1
  In  In56  1  0.18016551  0.32928871  0.12311573  1
  In  In57  1  0.15657662  0.32580776  0.62040151  1
  In  In58  1  0.14976938  0.67007187  0.12562606  1
  In  In59  1  0.15715111  0.66899986  0.62693607  1
  In  In60  1  0.49903196  0.00398091  0.13212747  1
  In  In61  1  0.49859096  -0.01117056  0.62923708  1
  In  In62  1  0.50952258  0.34609694  0.11445712  1
  In  In63  1  0.50427381  0.34295538  0.63055563  1
  In  In64  1  0.51557786  0.66648793  0.12054108  1
  In  In65  1  0.50474926  0.66536568  0.63385183  1
  In  In66  1  0.82782445  0.00706484  0.13551408  1
  In  In67  1  0.82833692  0.00397220  0.61001853  1
  In  In68  1  0.82079895  0.32408929  0.11470318  1
  In  In69  1  0.82410988  0.32902583  0.61924474  1
  In  In70  1  0.84009804  0.66212025  0.12734484  1
  In  In71  1  0.83634175  0.66489776  0.62604697  1
  In  In72  1  0.49806366  0.16737257  -0.00050472  1
  In  In73  1  0.33642643  0.33360120  0.75342804  1
  In  In74  1  0.66261834  -0.00113247  0.74773668  1
  In  In75  1  0.16277797  0.50092231  -0.00140404  1
  In  In76  1  0.49406271  0.83164812  -0.00349238  1
  In  In77  1  0.33958842  0.32689092  0.24380320  1
  In  In78  1  0.33507428  0.66871487  0.25543784  1
  In  In79  1  0.00093463  -0.00298266  0.75145522  1
  In  In80  1  -0.00618789  0.33306971  0.24988619  1
  In  In81  1  0.84227798  0.83231553  -0.00060493  1
  In  In82  1  0.49850235  0.49944925  0.50538048  1
  In  In83  1  0.49991138  0.16665704  0.49710417  1
  In  In84  1  -0.00293642  0.33396700  0.74649564  1
  In  In85  1  0.50523798  0.83189926  0.50647442  1
  Cu  Cu86  1  -0.00115966  0.33001779  0.00233125  1
  Cu  Cu87  1  0.33851209  0.32934203  -0.00316977  1
  Cu  Cu88  1  0.32245003  0.66739572  0.50749589  1
  Cu  Cu89  1  0.49641295  0.82923348  0.75331589  1
  Cu  Cu90  1  0.16305408  0.83148915  0.74661130  1
  Cu  Cu91  1  0.00577125  0.00380403  0.00486758  1
  Cu  Cu92  1  -0.00052267  0.66956903  -0.00312878  1
  Cu  Cu93  1  0.67116318  0.65618632  -0.00280797  1
  Cu  Cu94  1  0.82925962  0.50011238  0.74898698  1
  Cu  Cu95  1  0.32010398  0.33401278  0.50759553  1
  Cu  Cu96  1  -0.00063555  0.66768422  0.50083857  1
  Cu  Cu97  1  0.83356465  0.16223374  0.25298347  1
  Cu  Cu98  1  0.66844387  0.33833463  0.49704844  1
  Cu  Cu99  1  0.16003124  0.50912058  0.25713835  1
  Cu  Cu100  1  0.50965356  0.50016261  0.75428663  1
  Cu  Cu101  1  0.51130786  0.50027386  0.24348443  1
  Cu  Cu102  1  0.82814338  0.50125038  0.24977561  1
  Cu  Cu103  1  0.32928799  0.00118100  0.49990995  1
  Cu  Cu104  1  0.50673358  0.16580233  0.24635381  1
  Cu  Cu105  1  0.83253030  0.17153893  0.75275210  1
  Cu  Cu106  1  0.66500761  0.00263740  0.00671323  1
  Cu  Cu107  1  0.50196314  0.83283228  0.24779181  1
  Cu  Cu108  1  -0.00775492  0.33114989  0.50052872  1
  Cu  Cu109  1  0.16476989  0.83820166  0.25453715  1
  Cu  Cu110  1  0.83885935  0.83313475  0.25303623  1
  Cu  Cu111  1  0.32885730  0.66995201  -0.00592771  1
  Cu  Cu112  1  0.67856218  0.67108016  0.49774677  1
  Cu  Cu113  1  0.00333368  -0.00453238  0.49740222  1
  Cu  Cu114  1  0.17115863  0.16186556  0.25000700  1
  Se  Se115  1  0.08651268  0.08820558  0.05953584  1
  Se  Se116  1  0.08219877  0.08278537  0.55211945  1
  Se  Se117  1  0.07695453  0.41183022  0.06483224  1
  Se  Se118  1  0.07674370  0.41306299  0.55463651  1
  Se  Se119  1  0.08252070  0.75268728  0.04950682  1
  Se  Se120  1  0.08446374  0.75246427  0.55198021  1
  Se  Se121  1  0.41098621  0.06907692  0.05375981  1
  Se  Se122  1  0.41180247  0.07797405  0.56087279  1
  Se  Se123  1  0.41991053  0.41873229  0.04456260  1
  Se  Se124  1  0.40255746  0.41394747  0.56475519  1
  Se  Se125  1  0.40715044  0.74317006  0.06215206  1
  Se  Se126  1  0.41079673  0.74364434  0.56438770  1
  Se  Se127  1  0.75333633  0.08177610  0.05750624  1
  Se  Se128  1  0.75045688  0.09553771  0.54703754  1
  Se  Se129  1  0.75950049  0.42507686  0.05047577  1
  Se  Se130  1  0.74962913  0.42249307  0.55131779  1
  Se  Se131  1  0.74415793  0.74547163  0.05656453  1
  Se  Se132  1  0.75805362  0.75237682  0.55466969  1
  Se  Se133  1  0.25178043  0.24891565  0.04809355  1
  Se  Se134  1  0.24386126  0.24096555  0.55601785  1
  Se  Se135  1  0.25352785  0.59031991  0.06155604  1
  Se  Se136  1  0.24176846  0.58129575  0.55855193  1
  Se  Se137  1  0.23902388  0.91263458  0.05312199  1
  Se  Se138  1  0.24727584  0.91516098  0.55156412  1
  Se  Se139  1  0.59637829  0.25265265  0.05411263  1
  Se  Se140  1  0.58699431  0.25981220  0.55775075  1
  Se  Se141  1  0.58393046  0.57743484  0.05041772  1
  Se  Se142  1  0.59338049  0.59305488  0.55713212  1
  Se  Se143  1  0.58742739  0.91600370  0.06166851  1
  Se  Se144  1  0.59716131  0.92889548  0.55742957  1
  Se  Se145  1  0.91805865  0.24503716  0.05603581  1
  Se  Se146  1  0.90899870  0.24646557  0.55204934  1
  Se  Se147  1  0.91618071  0.58643681  0.04968654  1
  Se  Se148  1  0.91544556  0.58289639  0.55284952  1
  Se  Se149  1  0.92282154  0.92353745  0.06485339  1
  Se  Se150  1  0.91717768  0.91598699  0.55130459  1
  Se  Se151  1  0.08018430  0.24760255  0.45028287  1
  Se  Se152  1  0.08532482  0.24875168  0.95139316  1
  Se  Se153  1  0.08550343  0.58184967  0.44983045  1
  Se  Se154  1  0.07934830  0.58943111  0.93457620  1
  Se  Se155  1  0.08760061  0.91406823  0.44320580  1
  Se  Se156  1  0.08069083  0.91720669  0.94825954  1
  Se  Se157  1  0.40289731  0.26120546  0.44326725  1
  Se  Se158  1  0.41369233  0.25319782  0.93138166  1
  Se  Se159  1  0.40579354  0.59193574  0.44568514  1
  Se  Se160  1  0.41664521  0.58481863  0.94873751  1
  Se  Se161  1  0.41693692  0.92419916  0.44246293  1
  Se  Se162  1  0.40223795  0.92286610  0.94235896  1
  Se  Se163  1  0.74745474  0.25237873  0.44269624  1
  Se  Se164  1  0.76579068  0.23318568  0.94766017  1
  Se  Se165  1  0.75464032  0.58188208  0.44338480  1
  Se  Se166  1  0.75954985  0.58463702  0.94009469  1
  Se  Se167  1  0.75465138  0.91210684  0.44927879  1
  Se  Se168  1  0.74238509  0.92131399  0.94366273  1
  Se  Se169  1  0.24802469  0.08452643  0.44448559  1
  Se  Se170  1  0.25025405  0.09076493  0.94616749  1
  Se  Se171  1  0.24303283  0.42158824  0.45305107  1
  Se  Se172  1  0.25530806  0.41164481  0.93800552  1
  Se  Se173  1  0.24769798  0.75532647  0.45207591  1
  Se  Se174  1  0.24213446  0.74827131  0.94214974  1
  Se  Se175  1  0.59068219  0.07654804  0.44062354  1
  Se  Se176  1  0.58953358  0.07590567  0.93895361  1
  Se  Se177  1  0.58540122  0.41654821  0.43699169  1
  Se  Se178  1  0.59892294  0.41141922  0.94861627  1
  Se  Se179  1  0.59228295  0.74752601  0.43971453  1
  Se  Se180  1  0.59185243  0.74327627  0.94123030  1
  Se  Se181  1  0.91837358  0.08144103  0.44729501  1
  Se  Se182  1  0.91633829  0.08179985  0.95240332  1
  Se  Se183  1  0.91294351  0.41962330  0.44816541  1
  Se  Se184  1  0.92106212  0.42067243  0.95176268  1
  Se  Se185  1  0.91725584  0.75059267  0.44484717  1
  Se  Se186  1  0.91860683  0.74225178  0.93165935  1
  Se  Se187  1  0.24455303  0.24925345  0.30966532  1
  Se  Se188  1  0.23746631  0.24409250  0.80512862  1
  Se  Se189  1  0.24431994  0.58270278  0.31807545  1
  Se  Se190  1  0.25131768  0.57675807  0.79492991  1
  Se  Se191  1  0.25390718  0.92038251  0.30276166  1
  Se  Se192  1  0.24019930  0.91553980  0.80548141  1
  Se  Se193  1  0.58684947  0.25247264  0.29867361  1
  Se  Se194  1  0.57762518  0.24021357  0.79853464  1
  Se  Se195  1  0.58801876  0.58708313  0.29882372  1
  Se  Se196  1  0.59053402  0.58776026  0.80638803  1
  Se  Se197  1  0.58506553  0.91641774  0.30206491  1
  Se  Se198  1  0.57518401  0.91016846  0.81466534  1
  Se  Se199  1  0.91285026  0.24235757  0.31493342  1
  Se  Se200  1  0.90993691  0.25171695  0.81447733  1
  Se  Se201  1  0.91537021  0.58189567  0.30290907  1
  Se  Se202  1  0.91879578  0.58088315  0.79807621  1
  Se  Se203  1  0.91862335  0.91927072  0.30655289  1
  Se  Se204  1  0.90591529  0.90481044  0.80548644  1
  Se  Se205  1  0.08424797  0.08107507  0.30191071  1
  Se  Se206  1  0.08464893  0.08837306  0.81297684  1
  Se  Se207  1  0.08353402  0.42109819  0.31264352  1
  Se  Se208  1  0.09023696  0.42503257  0.80456025  1
  Se  Se209  1  0.08136889  0.75046430  0.30384621  1
  Se  Se210  1  0.08003249  0.74883013  0.80028855  1
  Se  Se211  1  0.41763128  0.08616853  0.29796939  1
  Se  Se212  1  0.41567007  0.08227132  0.79409667  1
  Se  Se213  1  0.42628671  0.42441053  0.30458290  1
  Se  Se214  1  0.42686654  0.42220268  0.81536924  1
  Se  Se215  1  0.42569307  0.75855910  0.31611835  1
  Se  Se216  1  0.41225356  0.74594843  0.80591493  1
  Se  Se217  1  0.75073813  0.07920019  0.30759120  1
  Se  Se218  1  0.75494413  0.08534031  0.81143510  1
  Se  Se219  1  0.74757769  0.41123501  0.29926211  1
  Se  Se220  1  0.75254373  0.41462755  0.80640550  1
  Se  Se221  1  0.75200677  0.74716977  0.30225763  1
  Se  Se222  1  0.75039624  0.75553902  0.78959819  1
  Se  Se223  1  0.25473502  0.08020452  0.19581750  1
  Se  Se224  1  0.25179442  0.06688055  0.69992133  1
  Se  Se225  1  0.24182673  0.42887069  0.19761789  1
  Se  Se226  1  0.24027289  0.41358464  0.69115562  1
  Se  Se227  1  0.24377519  0.75450349  0.19316347  1
  Se  Se228  1  0.24903545  0.74850717  0.69448849  1
  Se  Se229  1  0.59103907  0.07852077  0.19765810  1
  Se  Se230  1  0.57589794  0.09247543  0.68879471  1
  Se  Se231  1  0.59024496  0.41325388  0.19134017  1
  Se  Se232  1  0.58989007  0.41349421  0.70256927  1
  Se  Se233  1  0.58357878  0.74536085  0.19816147  1
  Se  Se234  1  0.58510001  0.75639715  0.69663534  1
  Se  Se235  1  0.92099402  0.07888055  0.20416219  1
  Se  Se236  1  0.90697104  0.08737760  0.69208799  1
  Se  Se237  1  0.90862699  0.42289484  0.18710708  1
  Se  Se238  1  0.90933767  0.42330572  0.68503918  1
  Se  Se239  1  0.91817428  0.75038401  0.19436510  1
  Se  Se240  1  0.91951201  0.74286441  0.69748975  1
  Se  Se241  1  0.09258957  0.24697424  0.19201399  1
  Se  Se242  1  0.08511143  0.23394933  0.69437110  1
  Se  Se243  1  0.07848372  0.59008809  0.20190013  1
  Se  Se244  1  0.08317901  0.58352843  0.69920147  1
  Se  Se245  1  0.08205237  0.91997163  0.19875363  1
  Se  Se246  1  0.08242726  0.90890647  0.68424137  1
  Se  Se247  1  0.42883241  0.24180018  0.17973249  1
  Se  Se248  1  0.42076604  0.24450504  0.68847234  1
  Se  Se249  1  0.42032210  0.57764617  0.18963153  1
  Se  Se250  1  0.42331455  0.58072161  0.70113107  1
  Se  Se251  1  0.41663647  0.91616019  0.19736980  1
  Se  Se252  1  0.41498691  0.91493600  0.70071802  1
  Se  Se253  1  0.75565336  0.24792883  0.19680348  1
  Se  Se254  1  0.74991168  0.25466589  0.69878076  1
  Se  Se255  1  0.74808498  0.58578034  0.19310991  1
  Se  Se256  1  0.74710849  0.58420564  0.69425210  1
  Se  Se257  1  0.75114079  0.91648802  0.20204566  1
  Se  Se258  1  0.76075690  0.91775358  0.68933578  1
