# generated using pymatgen
data_In86Cu29Se144
_symmetry_space_group_name_H-M   'P 1'
_cell_length_a   17.57419388
_cell_length_b   17.57651262
_cell_length_c   23.44017854
_cell_angle_alpha   90.00994667
_cell_angle_beta   89.99086369
_cell_angle_gamma   89.99616927
_symmetry_Int_Tables_number   1
_chemical_formula_structural   In86Cu29Se144
_chemical_formula_sum   'In86 Cu29 Se144'
_cell_volume   7240.50780381
_cell_formula_units_Z   1
loop_
 _symmetry_equiv_pos_site_id
 _symmetry_equiv_pos_as_xyz
  1  'x, y, z'
loop_
 _atom_site_type_symbol
 _atom_site_label
 _atom_site_symmetry_multiplicity
 _atom_site_fract_x
 _atom_site_fract_y
 _atom_site_fract_z
 _atom_site_occupancy
  In  In0  1  0.00502734  0.17263823  0.12057039  1
  In  In1  1  -0.00358588  0.16476665  0.62479865  1
  In  In2  1  -0.00147058  0.50321646  0.12920815  1
  In  In3  1  -0.01563229  0.51179619  0.63078869  1
  In  In4  1  -0.00504798  0.83281244  0.12352607  1
  In  In5  1  -0.00490579  0.84288355  0.64179870  1
  In  In6  1  0.32638051  0.17334734  0.11964654  1
  In  In7  1  0.33291004  0.18085553  0.62829104  1
  In  In8  1  0.34377538  0.50702774  0.12583324  1
  In  In9  1  0.33057258  0.50529593  0.63169946  1
  In  In10  1  0.32406573  0.82605311  0.11654151  1
  In  In11  1  0.32794220  0.82145910  0.62879199  1
  In  In12  1  0.67994266  0.14663995  0.14268314  1
  In  In13  1  0.68120430  0.16061977  0.62305147  1
  In  In14  1  0.66116193  0.49673274  0.12990328  1
  In  In15  1  0.67413598  0.49446079  0.62332610  1
  In  In16  1  0.68263293  0.84764623  0.11831707  1
  In  In17  1  0.65385526  0.83064951  0.60381155  1
  In  In18  1  0.17567611  -0.00084742  0.37735853  1
  In  In19  1  0.15942474  0.01067664  0.88081259  1
  In  In20  1  0.14874412  0.33413889  0.37732041  1
  In  In21  1  0.15233549  0.32275551  0.86464233  1
  In  In22  1  0.16306756  0.66889058  0.36191332  1
  In  In23  1  0.17629073  0.68216364  0.86126041  1
  In  In24  1  0.49858106  -0.01256574  0.37637050  1
  In  In25  1  0.49103372  -0.00423804  0.87680343  1
  In  In26  1  0.51430931  0.31964470  0.37482727  1
  In  In27  1  0.50642593  0.33108932  0.85936254  1
  In  In28  1  0.50574194  0.68306201  0.37584987  1
  In  In29  1  0.50979154  0.67276069  0.86861265  1
  In  In30  1  0.81986836  0.00227722  0.39170280  1
  In  In31  1  0.84629243  -0.01137360  0.87836626  1
  In  In32  1  0.83630394  0.33318042  0.37546119  1
  In  In33  1  0.82757610  0.32678919  0.86798380  1
  In  In34  1  0.83369031  0.65753828  0.38595162  1
  In  In35  1  0.84337107  0.68176130  0.86506818  1
  In  In36  1  -0.01298235  0.16845529  0.38174732  1
  In  In37  1  -0.00256762  0.16241826  0.87273572  1
  In  In38  1  -0.00581868  0.49290994  0.37144522  1
  In  In39  1  0.00358152  0.50502035  0.86473017  1
  In  In40  1  -0.00828523  0.81701048  0.36418362  1
  In  In41  1  0.00138986  0.83428443  0.87219695  1
  In  In42  1  0.33087922  0.15447163  0.37940963  1
  In  In43  1  0.32415373  0.16166015  0.87073159  1
  In  In44  1  0.31941067  0.50196304  0.37608862  1
  In  In45  1  0.33656941  0.50318284  0.86732580  1
  In  In46  1  0.34200821  0.83388025  0.37175360  1
  In  In47  1  0.34069030  0.82557439  0.88138481  1
  In  In48  1  0.67344727  0.17846586  0.36451276  1
  In  In49  1  0.67289588  0.18198709  0.87119394  1
  In  In50  1  0.68937153  0.50236578  0.38030183  1
  In  In51  1  0.66263693  0.49855515  0.86618566  1
  In  In52  1  0.66315437  0.83126324  0.38719600  1
  In  In53  1  0.67636815  0.83033039  0.87925050  1
  In  In54  1  0.16228084  -0.00154429  0.11516950  1
  In  In55  1  0.13840340  -0.00435235  0.63238085  1
  In  In56  1  0.16298117  0.32004795  0.12168475  1
  In  In57  1  0.16782391  0.32737875  0.63234400  1
  In  In58  1  0.14909991  0.68655652  0.13854950  1
  In  In59  1  0.16469836  0.67910836  0.64239785  1
  In  In60  1  0.52196695  -0.00096348  0.12765950  1
  In  In61  1  0.51655250  -0.00790180  0.62085762  1
  In  In62  1  0.50319672  0.33621823  0.12849971  1
  In  In63  1  0.50262588  0.32551847  0.64084987  1
  In  In64  1  0.48760740  0.66880868  0.12884993  1
  In  In65  1  0.49733713  0.67614246  0.62687589  1
  In  In66  1  0.82318565  -0.00838545  0.12223898  1
  In  In67  1  0.83366907  0.00531005  0.61666438  1
  In  In68  1  0.84124594  0.32473312  0.12877640  1
  In  In69  1  0.83554417  0.33155063  0.62488099  1
  In  In70  1  0.83924518  0.69026917  0.12801151  1
  In  In71  1  0.82776491  0.67278602  0.61705764  1
  In  In72  1  -0.00435725  -0.00317147  0.24814994  1
  In  In73  1  0.16019780  0.49971310  0.51296929  1
  In  In74  1  0.83447381  0.50383924  -0.00983254  1
  In  In75  1  0.16034577  0.83594353  0.50278537  1
  In  In76  1  0.16788098  0.50710332  -0.00365511  1
  In  In77  1  0.33291470  0.33389402  0.24379810  1
  In  In78  1  0.49940367  0.50235704  0.51024787  1
  In  In79  1  0.50291911  0.50176984  0.00215541  1
  In  In80  1  0.67121273  0.00360658  0.74226691  1
  In  In81  1  0.33242118  0.00279533  0.75719550  1
  In  In82  1  0.50612120  0.15965411  0.50156412  1
  In  In83  1  0.50218028  0.16316345  0.00024137  1
  In  In84  1  0.66924909  0.66379409  0.25458900  1
  In  In85  1  0.33613484  -0.00491370  0.25168476  1
  Cu  Cu86  1  0.00238710  0.32341527  -0.00371567  1
  Cu  Cu87  1  0.50312965  0.83030052  0.25059815  1
  Cu  Cu88  1  0.82997859  0.82897475  0.74857435  1
  Cu  Cu89  1  0.33748086  0.67407365  0.50076474  1
  Cu  Cu90  1  0.33027264  0.67322153  0.00157333  1
  Cu  Cu91  1  -0.00156864  0.00450615  -0.00096705  1
  Cu  Cu92  1  0.16043874  0.16378989  0.75026560  1
  Cu  Cu93  1  0.84034019  0.16421145  0.74585394  1
  Cu  Cu94  1  0.67334411  0.00149577  0.00113076  1
  Cu  Cu95  1  0.67602141  0.33386128  0.49953637  1
  Cu  Cu96  1  0.50358374  0.83177495  0.74853053  1
  Cu  Cu97  1  0.82729443  0.49987752  0.74534128  1
  Cu  Cu98  1  0.00103710  0.66279127  0.50116325  1
  Cu  Cu99  1  0.83858598  0.49887299  0.25390283  1
  Cu  Cu100  1  0.50170799  0.50759494  0.74507929  1
  Cu  Cu101  1  0.16100390  0.17017986  0.24967623  1
  Cu  Cu102  1  0.32482924  0.32664192  -0.00739425  1
  Cu  Cu103  1  -0.00159909  0.67888079  -0.00245205  1
  Cu  Cu104  1  0.16758866  0.49630557  0.74921210  1
  Cu  Cu105  1  -0.00090807  0.00132990  0.50113759  1
  Cu  Cu106  1  0.67255693  0.32719224  0.00125819  1
  Cu  Cu107  1  -0.00893405  0.32662863  0.50055062  1
  Cu  Cu108  1  0.83582954  0.16977528  0.25546331  1
  Cu  Cu109  1  0.33213578  -0.00525042  -0.00234679  1
  Cu  Cu110  1  0.50222298  0.49295570  0.25265707  1
  Cu  Cu111  1  0.32671274  0.00175471  0.50136022  1
  Cu  Cu112  1  0.16291934  0.50573153  0.25006102  1
  Cu  Cu113  1  0.66807416  0.67844566  -0.00364152  1
  Cu  Cu114  1  0.32750376  0.32524319  0.50884590  1
  Se  Se115  1  0.08414520  0.08833033  0.05060951  1
  Se  Se116  1  0.08291865  0.08316334  0.55476823  1
  Se  Se117  1  0.07638374  0.41278593  0.05454825  1
  Se  Se118  1  0.06713908  0.40683761  0.56538544  1
  Se  Se119  1  0.08452251  0.75552330  0.05402799  1
  Se  Se120  1  0.07557440  0.74372991  0.56405121  1
  Se  Se121  1  0.41199780  0.07285520  0.06191440  1
  Se  Se122  1  0.40926037  0.07720392  0.56362763  1
  Se  Se123  1  0.40588577  0.40445233  0.05406322  1
  Se  Se124  1  0.40944413  0.40576001  0.56529565  1
  Se  Se125  1  0.42174982  0.75142478  0.05209674  1
  Se  Se126  1  0.41732658  0.75843347  0.55434960  1
  Se  Se127  1  0.75056830  0.08872203  0.05628986  1
  Se  Se128  1  0.73662356  0.07062974  0.54885170  1
  Se  Se129  1  0.74797565  0.41678543  0.05758650  1
  Se  Se130  1  0.75817551  0.41734480  0.55262316  1
  Se  Se131  1  0.75630723  0.75457449  0.05064689  1
  Se  Se132  1  0.76800013  0.77418117  0.54720372  1
  Se  Se133  1  0.24242559  0.24527676  0.04659652  1
  Se  Se134  1  0.23902041  0.24361332  0.55637409  1
  Se  Se135  1  0.25293379  0.59208966  0.06290885  1
  Se  Se136  1  0.25268584  0.59934975  0.56143516  1
  Se  Se137  1  0.24527464  0.91330438  0.04931430  1
  Se  Se138  1  0.24931261  0.92410219  0.56576615  1
  Se  Se139  1  0.59078596  0.25096420  0.06264866  1
  Se  Se140  1  0.58925666  0.25946409  0.55978128  1
  Se  Se141  1  0.59421991  0.59586198  0.05934621  1
  Se  Se142  1  0.59244566  0.59496661  0.56074380  1
  Se  Se143  1  0.58667285  0.91694256  0.04999914  1
  Se  Se144  1  0.58257041  0.92601043  0.53831007  1
  Se  Se145  1  0.91433645  0.24828097  0.05164634  1
  Se  Se146  1  0.90956377  0.24192155  0.55454064  1
  Se  Se147  1  0.92087567  0.59222487  0.05569204  1
  Se  Se148  1  0.91154290  0.58246908  0.55097104  1
  Se  Se149  1  0.91793188  0.92097374  0.05540829  1
  Se  Se150  1  0.92624075  0.91485422  0.55996552  1
  Se  Se151  1  0.07950388  0.24672816  0.44843648  1
  Se  Se152  1  0.08633736  0.24211728  0.94250895  1
  Se  Se153  1  0.08367026  0.58662604  0.44052982  1
  Se  Se154  1  0.07691006  0.59571536  0.93773605  1
  Se  Se155  1  0.07231183  0.92009369  0.43633707  1
  Se  Se156  1  0.07909908  0.91895811  0.94421171  1
  Se  Se157  1  0.41097676  0.25450443  0.44465711  1
  Se  Se158  1  0.41683632  0.25491134  0.93628389  1
  Se  Se159  1  0.41017628  0.58606767  0.44223936  1
  Se  Se160  1  0.41150831  0.59050775  0.94276350  1
  Se  Se161  1  0.40853804  0.91778835  0.44772104  1
  Se  Se162  1  0.42083139  0.91234630  0.95016134  1
  Se  Se163  1  0.75208911  0.24826309  0.44287946  1
  Se  Se164  1  0.75750154  0.24805667  0.94725496  1
  Se  Se165  1  0.74351521  0.58887065  0.45698548  1
  Se  Se166  1  0.74149997  0.59415702  0.93431554  1
  Se  Se167  1  0.76637915  0.89107667  0.45446712  1
  Se  Se168  1  0.75480276  0.91613448  0.94736812  1
  Se  Se169  1  0.24270184  0.08630523  0.45174232  1
  Se  Se170  1  0.25306047  0.08534359  0.94807067  1
  Se  Se171  1  0.24988559  0.40824122  0.44870434  1
  Se  Se172  1  0.25065685  0.41233730  0.93418345  1
  Se  Se173  1  0.24995229  0.74604924  0.43978078  1
  Se  Se174  1  0.24408121  0.75027173  0.94589371  1
  Se  Se175  1  0.59099700  0.08145045  0.43268326  1
  Se  Se176  1  0.59435878  0.07805569  0.93672349  1
  Se  Se177  1  0.58754229  0.41277315  0.44445731  1
  Se  Se178  1  0.58916633  0.40636437  0.94205277  1
  Se  Se179  1  0.57756193  0.74988515  0.45480525  1
  Se  Se180  1  0.57908482  0.75604842  0.94407289  1
  Se  Se181  1  0.91125899  0.08570696  0.45328664  1
  Se  Se182  1  0.91337998  0.08591318  0.94547213  1
  Se  Se183  1  0.91638025  0.41761667  0.44665060  1
  Se  Se184  1  0.92740615  0.40967686  0.93658615  1
  Se  Se185  1  0.92229990  0.74814906  0.44628206  1
  Se  Se186  1  0.91184734  0.75829826  0.94429159  1
  Se  Se187  1  0.24619239  0.24589053  0.31067885  1
  Se  Se188  1  0.24797467  0.24699333  0.80078950  1
  Se  Se189  1  0.25337046  0.58405828  0.30006686  1
  Se  Se190  1  0.25091707  0.58289950  0.80045199  1
  Se  Se191  1  0.23999447  0.90407814  0.30445111  1
  Se  Se192  1  0.24740545  0.91423007  0.81879674  1
  Se  Se193  1  0.58157729  0.24899697  0.29528391  1
  Se  Se194  1  0.59386654  0.25093063  0.79581837  1
  Se  Se195  1  0.57925504  0.57294323  0.31625280  1
  Se  Se196  1  0.58729429  0.58834047  0.79890641  1
  Se  Se197  1  0.58482735  0.90720389  0.30951042  1
  Se  Se198  1  0.58164593  0.91548773  0.80765866  1
  Se  Se199  1  0.92248903  0.25306060  0.30513176  1
  Se  Se200  1  0.91917321  0.24910148  0.80272158  1
  Se  Se201  1  0.91521544  0.58625276  0.30865590  1
  Se  Se202  1  0.91012733  0.58128783  0.80117949  1
  Se  Se203  1  0.90449735  0.91956723  0.31395478  1
  Se  Se204  1  0.91605435  0.91342263  0.79942088  1
  Se  Se205  1  0.08689899  0.08679722  0.31108830  1
  Se  Se206  1  0.07882523  0.07770177  0.80237041  1
  Se  Se207  1  0.08304713  0.41711757  0.30145903  1
  Se  Se208  1  0.07869837  0.41397667  0.79785197  1
  Se  Se209  1  0.08702949  0.75595691  0.29543913  1
  Se  Se210  1  0.06254540  0.73336752  0.80482263  1
  Se  Se211  1  0.42536486  0.08895748  0.30849268  1
  Se  Se212  1  0.43158984  0.09598860  0.80634580  1
  Se  Se213  1  0.41915754  0.41672371  0.31476203  1
  Se  Se214  1  0.42100101  0.42183675  0.80012476  1
  Se  Se215  1  0.41697924  0.74691442  0.30121166  1
  Se  Se216  1  0.41860246  0.75220394  0.80385218  1
  Se  Se217  1  0.75738261  0.08098062  0.30856397  1
  Se  Se218  1  0.76061135  0.08538014  0.80930383  1
  Se  Se219  1  0.75269042  0.41616685  0.30477563  1
  Se  Se220  1  0.74799513  0.41476418  0.80159362  1
  Se  Se221  1  0.75479870  0.75155038  0.31596064  1
  Se  Se222  1  0.74175577  0.74893873  0.80059060  1
  Se  Se223  1  0.24276582  0.08846018  0.19200920  1
  Se  Se224  1  0.24223074  0.08429930  0.68965506  1
  Se  Se225  1  0.23951622  0.42582897  0.18528686  1
  Se  Se226  1  0.25260850  0.41433345  0.69658233  1
  Se  Se227  1  0.26540048  0.73860306  0.19282981  1
  Se  Se228  1  0.25559924  0.75319803  0.70811960  1
  Se  Se229  1  0.58243799  0.07867620  0.20622069  1
  Se  Se230  1  0.57427039  0.09517340  0.68976342  1
  Se  Se231  1  0.58688857  0.41163775  0.20074573  1
  Se  Se232  1  0.58633245  0.42167447  0.69553110  1
  Se  Se233  1  0.58561092  0.75311238  0.18828088  1
  Se  Se234  1  0.58978065  0.75932170  0.68903478  1
  Se  Se235  1  0.91085379  0.09155497  0.18856175  1
  Se  Se236  1  0.91720651  0.07498062  0.69279589  1
  Se  Se237  1  0.91775417  0.41628830  0.19499471  1
  Se  Se238  1  0.91452974  0.41483366  0.69651412  1
  Se  Se239  1  0.92153165  0.75781104  0.20157086  1
  Se  Se240  1  0.91197976  0.74294559  0.69441808  1
  Se  Se241  1  0.07853192  0.25407979  0.19720364  1
  Se  Se242  1  0.07685978  0.24744660  0.69651223  1
  Se  Se243  1  0.07546062  0.58748414  0.19919057  1
  Se  Se244  1  0.08332896  0.57967257  0.69665055  1
  Se  Se245  1  0.09346988  0.91303434  0.19113474  1
  Se  Se246  1  0.10512688  0.89286376  0.70466985  1
  Se  Se247  1  0.42348605  0.23644211  0.19128464  1
  Se  Se248  1  0.40885124  0.25226270  0.70409240  1
  Se  Se249  1  0.42045433  0.57998704  0.20238705  1
  Se  Se250  1  0.41585398  0.59130834  0.69493282  1
  Se  Se251  1  0.42419578  0.90898183  0.18714841  1
  Se  Se252  1  0.42323675  0.91623320  0.69161876  1
  Se  Se253  1  0.75215080  0.25218089  0.19910037  1
  Se  Se254  1  0.75325262  0.24651159  0.69488040  1
  Se  Se255  1  0.76198252  0.57908062  0.18862782  1
  Se  Se256  1  0.75028038  0.58680912  0.68928364  1
  Se  Se257  1  0.74782743  0.91932199  0.19953431  1
  Se  Se258  1  0.75327575  0.90753708  0.68395308  1
