# generated using pymatgen
data_In86Cu29Se144
_symmetry_space_group_name_H-M   'P 1'
_cell_length_a   17.57782253
_cell_length_b   17.58428547
_cell_length_c   23.44474556
_cell_angle_alpha   90.00739062
_cell_angle_beta   90.00960708
_cell_angle_gamma   89.97863981
_symmetry_Int_Tables_number   1
_chemical_formula_structural   In86Cu29Se144
_chemical_formula_sum   'In86 Cu29 Se144'
_cell_volume   7246.61660744
_cell_formula_units_Z   1
loop_
 _symmetry_equiv_pos_site_id
 _symmetry_equiv_pos_as_xyz
  1  'x, y, z'
loop_
 _atom_site_type_symbol
 _atom_site_label
 _atom_site_symmetry_multiplicity
 _atom_site_fract_x
 _atom_site_fract_y
 _atom_site_fract_z
 _atom_site_occupancy
  In  In0  1  -0.01083703  0.17848017  0.13837709  1
  In  In1  1  0.00483405  0.15888319  0.63135310  1
  In  In2  1  -0.01139739  0.50065489  0.12099794  1
  In  In3  1  -0.00276759  0.50041794  0.63184961  1
  In  In4  1  0.00933656  0.84531271  0.11206656  1
  In  In5  1  0.00402390  0.83174566  0.62837320  1
  In  In6  1  0.32584851  0.16178634  0.12526877  1
  In  In7  1  0.31986797  0.15466645  0.61725985  1
  In  In8  1  0.34169267  0.49561845  0.12053813  1
  In  In9  1  0.34393298  0.50278072  0.62903586  1
  In  In10  1  0.32778939  0.83058897  0.11671993  1
  In  In11  1  0.33325738  0.83318777  0.62885639  1
  In  In12  1  0.67084206  0.14961647  0.12878771  1
  In  In13  1  0.67474072  0.17734951  0.62235527  1
  In  In14  1  0.67138000  0.50103309  0.11499676  1
  In  In15  1  0.66615948  0.50104328  0.63183929  1
  In  In16  1  0.67158719  0.84034138  0.11547865  1
  In  In17  1  0.65219702  0.83224015  0.62485968  1
  In  In18  1  0.15273850  0.00123629  0.38774800  1
  In  In19  1  0.15553267  -0.01105110  0.86648573  1
  In  In20  1  0.14762759  0.31937462  0.37390324  1
  In  In21  1  0.14518659  0.34209125  0.87016984  1
  In  In22  1  0.17559708  0.67134887  0.38054982  1
  In  In23  1  0.17804125  0.67139049  0.86219831  1
  In  In24  1  0.51216382  -0.00581897  0.38944618  1
  In  In25  1  0.48531840  -0.00069821  0.86869370  1
  In  In26  1  0.49893283  0.33253867  0.38810673  1
  In  In27  1  0.51806654  0.33177593  0.87140629  1
  In  In28  1  0.50109757  0.66965216  0.38845539  1
  In  In29  1  0.49986911  0.66733774  0.87168534  1
  In  In30  1  0.83801080  0.00525182  0.36411002  1
  In  In31  1  0.84289193  -0.01425040  0.88123345  1
  In  In32  1  0.85923645  0.33053757  0.38329683  1
  In  In33  1  0.83885113  0.33792912  0.87799868  1
  In  In34  1  0.82270126  0.66334635  0.38125045  1
  In  In35  1  0.83093102  0.66742522  0.87146848  1
  In  In36  1  0.00609384  0.16342750  0.37184974  1
  In  In37  1  -0.00479468  0.16359410  0.87356248  1
  In  In38  1  0.00254851  0.48339820  0.38307495  1
  In  In39  1  -0.01369980  0.48909473  0.86089090  1
  In  In40  1  0.00685816  0.84521656  0.37479589  1
  In  In41  1  0.00087259  0.83321952  0.87320317  1
  In  In42  1  0.33045479  0.16510469  0.38731185  1
  In  In43  1  0.34396947  0.16171106  0.86695576  1
  In  In44  1  0.33677719  0.50915620  0.38441995  1
  In  In45  1  0.32855831  0.51965724  0.86878136  1
  In  In46  1  0.33005920  0.84166610  0.38788517  1
  In  In47  1  0.33222759  0.83388161  0.87313786  1
  In  In48  1  0.67116904  0.15515425  0.37687748  1
  In  In49  1  0.67272832  0.18132480  0.86903039  1
  In  In50  1  0.66786134  0.50130289  0.38753968  1
  In  In51  1  0.66901970  0.50068337  0.87391326  1
  In  In52  1  0.65876697  0.83291901  0.37635504  1
  In  In53  1  0.67444865  0.82272276  0.87782083  1
  In  In54  1  0.15837373  -0.01375851  0.12760120  1
  In  In55  1  0.16510368  0.00185151  0.62369728  1
  In  In56  1  0.14787717  0.32186839  0.12381130  1
  In  In57  1  0.15889239  0.31817194  0.62263910  1
  In  In58  1  0.15445276  0.67695715  0.12058665  1
  In  In59  1  0.15179824  0.67519114  0.64079504  1
  In  In60  1  0.50939098  0.00056703  0.12509371  1
  In  In61  1  0.49494575  -0.01724223  0.61165161  1
  In  In62  1  0.49431149  0.34106378  0.12002877  1
  In  In63  1  0.50524334  0.34577589  0.62117416  1
  In  In64  1  0.50519804  0.67203213  0.11358674  1
  In  In65  1  0.50074055  0.66732697  0.63270697  1
  In  In66  1  0.83387956  0.00160630  0.12070230  1
  In  In67  1  0.84008186  0.01179689  0.62325143  1
  In  In68  1  0.85131914  0.33998298  0.11120951  1
  In  In69  1  0.82356423  0.33675135  0.63427547  1
  In  In70  1  0.82888011  0.66314449  0.11221128  1
  In  In71  1  0.84469510  0.65590279  0.63762916  1
  In  In72  1  0.17137765  0.49523928  0.51010597  1
  In  In73  1  0.66870314  0.67428279  0.24221761  1
  In  In74  1  0.67513934  0.32676184  0.25494439  1
  In  In75  1  0.16769832  0.51305835  -0.00888080  1
  In  In76  1  0.32967354  0.33145141  0.74578785  1
  In  In77  1  0.16417911  0.16445763  -0.00235364  1
  In  In78  1  0.32625335  0.33070824  0.25810906  1
  In  In79  1  0.83337477  0.16820422  0.49782091  1
  In  In80  1  0.33263912  0.67057887  0.24423956  1
  In  In81  1  0.51301517  0.16829963  0.00093434  1
  In  In82  1  0.66999281  -0.00086996  0.74312331  1
  In  In83  1  0.83610457  0.83386202  0.50051873  1
  In  In84  1  -0.00583979  0.66939941  0.24639813  1
  In  In85  1  0.32070827  0.00224276  0.25631482  1
  Cu  Cu86  1  0.49491127  0.16055035  0.25182016  1
  Cu  Cu87  1  0.83801728  0.16895159  0.75105777  1
  Cu  Cu88  1  0.33532924  -0.00637189  0.50335200  1
  Cu  Cu89  1  0.83980054  0.83168183  0.75309935  1
  Cu  Cu90  1  0.16312615  0.49001023  0.25229648  1
  Cu  Cu91  1  0.83456324  0.16088577  0.24901909  1
  Cu  Cu92  1  -0.00339629  0.00033947  -0.00257830  1
  Cu  Cu93  1  0.16998796  0.84190444  0.74948748  1
  Cu  Cu94  1  0.50977232  0.49969377  0.25415911  1
  Cu  Cu95  1  0.33974946  0.67116409  0.50795249  1
  Cu  Cu96  1  0.33549558  0.67385437  -0.00852686  1
  Cu  Cu97  1  0.33780409  0.34266545  -0.00443799  1
  Cu  Cu98  1  0.66717441  0.66371491  0.51028931  1
  Cu  Cu99  1  0.49291188  0.84333464  0.25650683  1
  Cu  Cu100  1  0.32972156  0.33269970  0.50624058  1
  Cu  Cu101  1  0.84164884  0.49127493  0.25136064  1
  Cu  Cu102  1  0.66462557  0.34009255  0.50616754  1
  Cu  Cu103  1  0.66240689  0.66310400  -0.00814170  1
  Cu  Cu104  1  -0.00354368  0.67114506  -0.00841798  1
  Cu  Cu105  1  0.33131288  -0.00566806  -0.00396784  1
  Cu  Cu106  1  0.50296583  0.50061474  0.75052183  1
  Cu  Cu107  1  0.00319529  0.66594297  0.51053175  1
  Cu  Cu108  1  0.66598860  -0.00132359  -0.00197459  1
  Cu  Cu109  1  0.83533478  0.84271015  0.24099428  1
  Cu  Cu110  1  0.67626068  0.33699208  -0.00532400  1
  Cu  Cu111  1  0.49651988  0.83216951  0.74931125  1
  Cu  Cu112  1  0.16299778  0.16381972  0.74670227  1
  Cu  Cu113  1  0.82788247  0.49905792  0.75330203  1
  Cu  Cu114  1  0.49808920  0.16328299  0.74221720  1
  Se  Se115  1  0.07622849  0.07833206  0.06053325  1
  Se  Se116  1  0.09114416  0.09424484  0.55664283  1
  Se  Se117  1  0.08356383  0.41958852  0.05380904  1
  Se  Se118  1  0.07060359  0.40723960  0.55770827  1
  Se  Se119  1  0.08340772  0.75276776  0.04376027  1
  Se  Se120  1  0.08787228  0.75072198  0.55810379  1
  Se  Se121  1  0.41046127  0.07944531  0.05479243  1
  Se  Se122  1  0.41725162  0.08275473  0.55289240  1
  Se  Se123  1  0.42439356  0.42474106  0.04564841  1
  Se  Se124  1  0.41355957  0.42066076  0.55319764  1
  Se  Se125  1  0.41739600  0.75474420  0.04985289  1
  Se  Se126  1  0.42342640  0.75331569  0.56165776  1
  Se  Se127  1  0.74892680  0.08379737  0.05006405  1
  Se  Se128  1  0.74020345  0.07476881  0.55378058  1
  Se  Se129  1  0.75852865  0.42111359  0.04940552  1
  Se  Se130  1  0.74927960  0.41944359  0.56061159  1
  Se  Se131  1  0.74343867  0.74711162  0.04846912  1
  Se  Se132  1  0.75299962  0.74390321  0.56658064  1
  Se  Se133  1  0.25822185  0.26191212  0.05561748  1
  Se  Se134  1  0.24307313  0.24545669  0.55007033  1
  Se  Se135  1  0.25941249  0.59656186  0.05983765  1
  Se  Se136  1  0.25371161  0.59455990  0.56646993  1
  Se  Se137  1  0.24533511  0.91882525  0.05271956  1
  Se  Se138  1  0.25056929  0.91401738  0.55862016  1
  Se  Se139  1  0.59927435  0.26086405  0.06285325  1
  Se  Se140  1  0.58304057  0.25282762  0.55596661  1
  Se  Se141  1  0.58199107  0.57993407  0.04971164  1
  Se  Se142  1  0.58101544  0.58204005  0.56258893  1
  Se  Se143  1  0.57815634  0.91809148  0.05000663  1
  Se  Se144  1  0.59582265  0.91784142  0.54753657  1
  Se  Se145  1  0.92176089  0.23842119  0.05260067  1
  Se  Se146  1  0.91427433  0.25104035  0.56750266  1
  Se  Se147  1  0.91845295  0.58423477  0.04685056  1
  Se  Se148  1  0.91819154  0.58174393  0.55884143  1
  Se  Se149  1  0.91053669  0.91546900  0.04923075  1
  Se  Se150  1  0.92707377  0.92566062  0.55687731  1
  Se  Se151  1  0.06833639  0.25037693  0.44845802  1
  Se  Se152  1  0.07226494  0.25904347  0.94545225  1
  Se  Se153  1  0.08247683  0.58723375  0.44534416  1
  Se  Se154  1  0.07590435  0.59374311  0.92857572  1
  Se  Se155  1  0.09061378  0.90006443  0.45377989  1
  Se  Se156  1  0.08193567  0.91706242  0.94537546  1
  Se  Se157  1  0.41462662  0.24916247  0.45320711  1
  Se  Se158  1  0.41569890  0.25380263  0.94080179  1
  Se  Se159  1  0.42025236  0.58343072  0.45534840  1
  Se  Se160  1  0.41607279  0.58439812  0.94285011  1
  Se  Se161  1  0.42500633  0.91074221  0.45401957  1
  Se  Se162  1  0.41855126  0.91500339  0.94379270  1
  Se  Se163  1  0.74211289  0.26349939  0.43938747  1
  Se  Se164  1  0.75537273  0.24795701  0.94477063  1
  Se  Se165  1  0.75183632  0.58264994  0.45597799  1
  Se  Se166  1  0.75257932  0.58274398  0.94301911  1
  Se  Se167  1  0.75064879  0.92276830  0.43655451  1
  Se  Se168  1  0.74894984  0.91256936  0.94663755  1
  Se  Se169  1  0.24964961  0.07612626  0.45090874  1
  Se  Se170  1  0.25629985  0.07824070  0.93571021  1
  Se  Se171  1  0.25147293  0.40711509  0.43778681  1
  Se  Se172  1  0.25388523  0.41301710  0.93357425  1
  Se  Se173  1  0.25290412  0.74907663  0.45312230  1
  Se  Se174  1  0.24548718  0.75175905  0.94120713  1
  Se  Se175  1  0.57591744  0.10064894  0.44812734  1
  Se  Se176  1  0.59056702  0.07775673  0.93240374  1
  Se  Se177  1  0.57836823  0.42244696  0.45249294  1
  Se  Se178  1  0.58599668  0.41651875  0.94524738  1
  Se  Se179  1  0.59096858  0.74947829  0.45238817  1
  Se  Se180  1  0.57890238  0.75110995  0.94357721  1
  Se  Se181  1  0.92181232  0.07314239  0.44233309  1
  Se  Se182  1  0.91374200  0.08436362  0.94520176  1
  Se  Se183  1  0.90586427  0.43070430  0.45436068  1
  Se  Se184  1  0.92374537  0.42089011  0.94473935  1
  Se  Se185  1  0.92633554  0.74012743  0.44136566  1
  Se  Se186  1  0.91092159  0.75489730  0.94050723  1
  Se  Se187  1  0.24007563  0.23224085  0.30976444  1
  Se  Se188  1  0.23981850  0.24421703  0.81120146  1
  Se  Se189  1  0.24509425  0.57367907  0.30611005  1
  Se  Se190  1  0.24838869  0.58139043  0.79146998  1
  Se  Se191  1  0.23929151  0.90643927  0.31423363  1
  Se  Se192  1  0.25660734  0.92274195  0.80277335  1
  Se  Se193  1  0.57229612  0.24578052  0.31041961  1
  Se  Se194  1  0.58156490  0.24520552  0.79578308  1
  Se  Se195  1  0.58435001  0.58598303  0.31161572  1
  Se  Se196  1  0.58553493  0.58381923  0.80523360  1
  Se  Se197  1  0.58235981  0.92085662  0.30744037  1
  Se  Se198  1  0.58163310  0.91263736  0.80807316  1
  Se  Se199  1  0.91519487  0.24405066  0.30515404  1
  Se  Se200  1  0.91879301  0.25374629  0.80597913  1
  Se  Se201  1  0.91233675  0.57877116  0.31255171  1
  Se  Se202  1  0.91335759  0.58833997  0.79977273  1
  Se  Se203  1  0.92000951  0.91453660  0.30134215  1
  Se  Se204  1  0.92154577  0.91974893  0.80213761  1
  Se  Se205  1  0.07871574  0.06814338  0.30764433  1
  Se  Se206  1  0.07937301  0.08355342  0.80388804  1
  Se  Se207  1  0.07680243  0.41115701  0.30419862  1
  Se  Se208  1  0.09251500  0.43319979  0.79549263  1
  Se  Se209  1  0.08941349  0.74912179  0.30842181  1
  Se  Se210  1  0.08650643  0.75680874  0.80195698  1
  Se  Se211  1  0.41875026  0.08392933  0.31535364  1
  Se  Se212  1  0.41365569  0.07931869  0.79212082  1
  Se  Se213  1  0.42342630  0.42461530  0.31111036  1
  Se  Se214  1  0.42094441  0.41722695  0.80983835  1
  Se  Se215  1  0.41991930  0.75449144  0.31323104  1
  Se  Se216  1  0.41385605  0.74952395  0.80418563  1
  Se  Se217  1  0.74430732  0.08124576  0.29852598  1
  Se  Se218  1  0.75806766  0.08294018  0.80978495  1
  Se  Se219  1  0.75797971  0.42161421  0.31547758  1
  Se  Se220  1  0.74878541  0.41178578  0.80723418  1
  Se  Se221  1  0.76036453  0.76043883  0.30500545  1
  Se  Se222  1  0.74892794  0.75017092  0.79980482  1
  Se  Se223  1  0.23302634  0.09068409  0.19274192  1
  Se  Se224  1  0.24951977  0.08112229  0.69695741  1
  Se  Se225  1  0.24550100  0.41883703  0.18754932  1
  Se  Se226  1  0.24160010  0.41813640  0.68416774  1
  Se  Se227  1  0.23665580  0.76132548  0.19304108  1
  Se  Se228  1  0.25117671  0.75234384  0.69971380  1
  Se  Se229  1  0.58174110  0.08021264  0.20048708  1
  Se  Se230  1  0.57921961  0.08475140  0.68154382  1
  Se  Se231  1  0.58549439  0.41982211  0.19231172  1
  Se  Se232  1  0.58448300  0.41284268  0.70000692  1
  Se  Se233  1  0.57054366  0.76477771  0.19080486  1
  Se  Se234  1  0.58587547  0.74988401  0.70170098  1
  Se  Se235  1  0.91677691  0.07517880  0.19566181  1
  Se  Se236  1  0.91804119  0.08018640  0.70115413  1
  Se  Se237  1  0.92166246  0.41134260  0.19409425  1
  Se  Se238  1  0.91286542  0.41661462  0.69996468  1
  Se  Se239  1  0.90708048  0.75515930  0.18143461  1
  Se  Se240  1  0.92508873  0.74874527  0.69959809  1
  Se  Se241  1  0.08588962  0.24751338  0.20367565  1
  Se  Se242  1  0.07817320  0.25171704  0.70082137  1
  Se  Se243  1  0.08977127  0.57501709  0.19028935  1
  Se  Se244  1  0.08406243  0.57510192  0.70199834  1
  Se  Se245  1  0.07635364  0.90709145  0.19685690  1
  Se  Se246  1  0.08276599  0.92068902  0.69538443  1
  Se  Se247  1  0.42107476  0.24463127  0.19167135  1
  Se  Se248  1  0.41755856  0.24458742  0.68233527  1
  Se  Se249  1  0.43030181  0.57764505  0.19184622  1
  Se  Se250  1  0.41645674  0.58534356  0.70283329  1
  Se  Se251  1  0.41305866  0.91613593  0.19097942  1
  Se  Se252  1  0.41996457  0.91980038  0.69446421  1
  Se  Se253  1  0.76072585  0.24590572  0.18664927  1
  Se  Se254  1  0.74599511  0.24800529  0.70314790  1
  Se  Se255  1  0.76047489  0.57276399  0.19285335  1
  Se  Se256  1  0.74595228  0.58592633  0.70163400  1
  Se  Se257  1  0.74500949  0.92091324  0.18995142  1
  Se  Se258  1  0.76252675  0.90721494  0.68594593  1
