# generated using pymatgen
data_In86Cu29Se144
_symmetry_space_group_name_H-M   'P 1'
_cell_length_a   17.57566244
_cell_length_b   17.57596352
_cell_length_c   23.42896323
_cell_angle_alpha   90.00053900
_cell_angle_beta   89.98783044
_cell_angle_gamma   90.00824727
_symmetry_Int_Tables_number   1
_chemical_formula_structural   In86Cu29Se144
_chemical_formula_sum   'In86 Cu29 Se144'
_cell_volume   7237.42209506
_cell_formula_units_Z   1
loop_
 _symmetry_equiv_pos_site_id
 _symmetry_equiv_pos_as_xyz
  1  'x, y, z'
loop_
 _atom_site_type_symbol
 _atom_site_label
 _atom_site_symmetry_multiplicity
 _atom_site_fract_x
 _atom_site_fract_y
 _atom_site_fract_z
 _atom_site_occupancy
  In  In0  1  0.00078112  0.16534875  0.11293286  1
  In  In1  1  0.00241135  0.16246686  0.63596061  1
  In  In2  1  -0.00492845  0.51469571  0.12361314  1
  In  In3  1  -0.01849856  0.51604827  0.64577940  1
  In  In4  1  -0.00897871  0.81868515  0.11442728  1
  In  In5  1  -0.00983612  0.84440025  0.63594698  1
  In  In6  1  0.33517961  0.16369953  0.10844978  1
  In  In7  1  0.33813856  0.18194242  0.62785239  1
  In  In8  1  0.34345645  0.50614806  0.12821080  1
  In  In9  1  0.34573693  0.49436644  0.63181309  1
  In  In10  1  0.32797651  0.82966655  0.11561819  1
  In  In11  1  0.32904826  0.82566015  0.62612408  1
  In  In12  1  0.66748050  0.16892311  0.11830900  1
  In  In13  1  0.67135254  0.16135183  0.63474800  1
  In  In14  1  0.67070387  0.48737645  0.12653929  1
  In  In15  1  0.66093577  0.50138097  0.61478834  1
  In  In16  1  0.67524826  0.83748753  0.11915232  1
  In  In17  1  0.67580353  0.83921695  0.60673425  1
  In  In18  1  0.18263609  0.00501296  0.38356893  1
  In  In19  1  0.16099644  0.00924481  0.88541190  1
  In  In20  1  0.15749473  0.32197260  0.38249769  1
  In  In21  1  0.15729734  0.32477887  0.86770017  1
  In  In22  1  0.16641427  0.67531064  0.36497958  1
  In  In23  1  0.16767450  0.66917832  0.86895721  1
  In  In24  1  0.49849628  -0.01016964  0.37816325  1
  In  In25  1  0.50531996  -0.01129230  0.88308533  1
  In  In26  1  0.52128420  0.32621144  0.37370944  1
  In  In27  1  0.49407986  0.32753479  0.86599138  1
  In  In28  1  0.49350048  0.67436339  0.38355842  1
  In  In29  1  0.50065309  0.68153332  0.87436932  1
  In  In30  1  0.82158006  -0.01027357  0.37640489  1
  In  In31  1  0.83311989  -0.00147448  0.87400478  1
  In  In32  1  0.82855561  0.34641962  0.37863509  1
  In  In33  1  0.82933203  0.32993716  0.86937287  1
  In  In34  1  0.83599048  0.66322070  0.38047020  1
  In  In35  1  0.84334372  0.65669061  0.87584155  1
  In  In36  1  0.00519468  0.17829880  0.38158217  1
  In  In37  1  -0.00104305  0.16266882  0.87490216  1
  In  In38  1  -0.01666835  0.50552242  0.38183264  1
  In  In39  1  -0.02231627  0.48712341  0.85503359  1
  In  In40  1  -0.00161481  0.82214481  0.37360640  1
  In  In41  1  -0.00418221  0.83321646  0.87323719  1
  In  In42  1  0.33304944  0.15195287  0.37818804  1
  In  In43  1  0.32684841  0.16908880  0.88422513  1
  In  In44  1  0.32972906  0.51452777  0.37428129  1
  In  In45  1  0.33605420  0.50155572  0.86507493  1
  In  In46  1  0.34267910  0.83350176  0.37527147  1
  In  In47  1  0.34095494  0.82736112  0.88238004  1
  In  In48  1  0.65474217  0.17828904  0.37031063  1
  In  In49  1  0.66820553  0.16495608  0.87277849  1
  In  In50  1  0.67893072  0.49457376  0.38701856  1
  In  In51  1  0.68813456  0.49719476  0.86792187  1
  In  In52  1  0.67771823  0.81626514  0.39889245  1
  In  In53  1  0.66072538  0.84292242  0.87994593  1
  In  In54  1  0.17568943  -0.00144588  0.10548451  1
  In  In55  1  0.15478623  -0.00190574  0.62827074  1
  In  In56  1  0.17080953  0.32584211  0.11890562  1
  In  In57  1  0.17042659  0.33105518  0.63361276  1
  In  In58  1  0.15724138  0.67530460  0.12772423  1
  In  In59  1  0.16553127  0.67003555  0.63387504  1
  In  In60  1  0.49759535  -0.00100759  0.11126342  1
  In  In61  1  0.51260906  -0.00306694  0.62403708  1
  In  In62  1  0.51032291  0.32769838  0.12441677  1
  In  In63  1  0.49812415  0.33885395  0.63162805  1
  In  In64  1  0.49040008  0.66525360  0.12774770  1
  In  In65  1  0.50169469  0.66425842  0.61561457  1
  In  In66  1  0.83158182  -0.00196077  0.11734593  1
  In  In67  1  0.83116857  -0.00477056  0.63152006  1
  In  In68  1  0.82680312  0.32579370  0.11403604  1
  In  In69  1  0.81655022  0.35165319  0.64783346  1
  In  In70  1  0.84792514  0.67718555  0.11636787  1
  In  In71  1  0.83237728  0.67257915  0.61827534  1
  In  In72  1  0.33903353  -0.00152368  0.25245147  1
  In  In73  1  0.16541470  0.84035569  0.50646542  1
  In  In74  1  0.33106465  0.00227076  0.76146420  1
  In  In75  1  -0.00243954  0.34218815  0.25404191  1
  In  In76  1  0.15872458  0.49953381  -0.00299606  1
  In  In77  1  0.50053171  0.16209259  0.49707930  1
  In  In78  1  0.33682922  0.33616187  0.24130002  1
  In  In79  1  0.50739944  0.49651791  0.00475457  1
  In  In80  1  0.66938896  0.66426033  0.26034952  1
  In  In81  1  0.83989195  0.16141753  0.51358516  1
  In  In82  1  0.66463588  0.66966600  0.74318717  1
  In  In83  1  0.00521237  -0.00210578  0.24374009  1
  In  In84  1  0.66550935  -0.00449247  0.24364707  1
  In  In85  1  0.16449608  0.49575388  0.50500693  1
  Cu  Cu86  1  0.66926875  0.33093109  -0.00429122  1
  Cu  Cu87  1  0.83598267  0.16128118  0.75490706  1
  Cu  Cu88  1  0.82855295  0.50356698  0.25523497  1
  Cu  Cu89  1  0.50027318  0.50185895  0.25244852  1
  Cu  Cu90  1  0.50522484  0.50474549  0.74283243  1
  Cu  Cu91  1  0.67075680  0.33193753  0.50484965  1
  Cu  Cu92  1  -0.00604816  -0.00182767  0.50839961  1
  Cu  Cu93  1  0.16514008  0.82840787  0.23991771  1
  Cu  Cu94  1  -0.00031415  0.33297952  0.50967064  1
  Cu  Cu95  1  0.17189292  0.50228183  0.74898419  1
  Cu  Cu96  1  0.16941664  0.16612698  0.75866374  1
  Cu  Cu97  1  0.67006185  0.67026317  -0.00651390  1
  Cu  Cu98  1  0.49816813  0.83402957  0.75413674  1
  Cu  Cu99  1  0.16136176  0.51112552  0.25135653  1
  Cu  Cu100  1  0.82825413  0.83113222  0.74992822  1
  Cu  Cu101  1  0.33956594  0.33748000  0.50785185  1
  Cu  Cu102  1  0.33494739  0.66878774  -0.00035748  1
  Cu  Cu103  1  0.50607189  0.16722727  0.75025849  1
  Cu  Cu104  1  -0.00031167  0.66465192  -0.00645023  1
  Cu  Cu105  1  -0.00203401  -0.00157588  -0.00539204  1
  Cu  Cu106  1  0.33789235  0.66559207  0.50215908  1
  Cu  Cu107  1  0.82457327  0.17421231  0.24314793  1
  Cu  Cu108  1  -0.00540465  0.66588121  0.50295051  1
  Cu  Cu109  1  0.67222406  0.00341207  -0.00234905  1
  Cu  Cu110  1  0.16080061  0.83250263  0.75247191  1
  Cu  Cu111  1  0.33016675  0.32552034  -0.00698601  1
  Cu  Cu112  1  -0.00431422  0.33034191  -0.01176362  1
  Cu  Cu113  1  0.17062974  0.16348709  0.24758926  1
  Cu  Cu114  1  0.50316945  0.82992155  0.25322763  1
  Se  Se115  1  0.08396466  0.08338316  0.04625208  1
  Se  Se116  1  0.07735452  0.08354748  0.55840120  1
  Se  Se117  1  0.06892006  0.40697738  0.05857211  1
  Se  Se118  1  0.07437373  0.41774814  0.57076803  1
  Se  Se119  1  0.08561299  0.74624248  0.04698400  1
  Se  Se120  1  0.07401018  0.74743237  0.56273733  1
  Se  Se121  1  0.41805127  0.08149331  0.04345946  1
  Se  Se122  1  0.41223983  0.08129627  0.56386942  1
  Se  Se123  1  0.40647655  0.40538017  0.05748121  1
  Se  Se124  1  0.42553228  0.42076030  0.55569909  1
  Se  Se125  1  0.42239838  0.74826007  0.05282255  1
  Se  Se126  1  0.41504310  0.75548235  0.55370531  1
  Se  Se127  1  0.75440478  0.08781459  0.05181022  1
  Se  Se128  1  0.73813233  0.07167553  0.55865121  1
  Se  Se129  1  0.74977991  0.41878956  0.04857651  1
  Se  Se130  1  0.75651658  0.41302848  0.55755430  1
  Se  Se131  1  0.75360836  0.75114201  0.05080627  1
  Se  Se132  1  0.73821018  0.73326098  0.54713147  1
  Se  Se133  1  0.24275714  0.24501997  0.04551686  1
  Se  Se134  1  0.25144357  0.25638765  0.55730214  1
  Se  Se135  1  0.25459172  0.58543888  0.05825524  1
  Se  Se136  1  0.25466947  0.58876941  0.56242771  1
  Se  Se137  1  0.25948925  0.91452164  0.04222894  1
  Se  Se138  1  0.25819563  0.93034186  0.56220449  1
  Se  Se139  1  0.58230953  0.24958124  0.04815984  1
  Se  Se140  1  0.58899576  0.24978751  0.56212495  1
  Se  Se141  1  0.59528505  0.59270297  0.06189930  1
  Se  Se142  1  0.58723892  0.58854890  0.54635053  1
  Se  Se143  1  0.59032944  0.91651792  0.05094877  1
  Se  Se144  1  0.57282918  0.91122431  0.54800009  1
  Se  Se145  1  0.91539331  0.24814179  0.04749737  1
  Se  Se146  1  0.91731569  0.25947805  0.57317418  1
  Se  Se147  1  0.91419053  0.58095239  0.04634605  1
  Se  Se148  1  0.91792067  0.57823334  0.55729000  1
  Se  Se149  1  0.91707162  0.91579270  0.05147824  1
  Se  Se150  1  0.91081790  0.91373301  0.55805937  1
  Se  Se151  1  0.08312324  0.24742470  0.45988387  1
  Se  Se152  1  0.08539372  0.24605656  0.94393761  1
  Se  Se153  1  0.08221993  0.59383811  0.44214990  1
  Se  Se154  1  0.07122570  0.57993472  0.93033836  1
  Se  Se155  1  0.07473391  0.92538291  0.44051478  1
  Se  Se156  1  0.08076929  0.91192118  0.94444951  1
  Se  Se157  1  0.41169249  0.25845257  0.43866021  1
  Se  Se158  1  0.42434650  0.25013668  0.94434850  1
  Se  Se159  1  0.41658792  0.57882382  0.44843889  1
  Se  Se160  1  0.41537183  0.58430916  0.94263353  1
  Se  Se161  1  0.38901057  0.94051397  0.44078344  1
  Se  Se162  1  0.41546475  0.91478002  0.95010407  1
  Se  Se163  1  0.74942536  0.24809075  0.44546858  1
  Se  Se164  1  0.75258533  0.24705927  0.94243112  1
  Se  Se165  1  0.75096505  0.58856460  0.45056224  1
  Se  Se166  1  0.75144583  0.58231563  0.94480032  1
  Se  Se167  1  0.75406223  0.91701083  0.45499767  1
  Se  Se168  1  0.75424407  0.91549001  0.94683138  1
  Se  Se169  1  0.24096187  0.10048809  0.45318288  1
  Se  Se170  1  0.25957438  0.07427826  0.95089647  1
  Se  Se171  1  0.25675281  0.40915502  0.44146577  1
  Se  Se172  1  0.25424561  0.41406472  0.93738736  1
  Se  Se173  1  0.25115142  0.74481881  0.44474611  1
  Se  Se174  1  0.24763072  0.74404147  0.94403073  1
  Se  Se175  1  0.59623894  0.07501437  0.43925910  1
  Se  Se176  1  0.58636459  0.08338760  0.94401163  1
  Se  Se177  1  0.58632596  0.41134944  0.44899657  1
  Se  Se178  1  0.59070769  0.41384310  0.93538275  1
  Se  Se179  1  0.56417442  0.76308615  0.45309519  1
  Se  Se180  1  0.58108329  0.75416593  0.94849564  1
  Se  Se181  1  0.92145443  0.07703598  0.43924847  1
  Se  Se182  1  0.91352321  0.08342529  0.94425689  1
  Se  Se183  1  0.91774209  0.41239881  0.45200418  1
  Se  Se184  1  0.91236147  0.41660045  0.93912625  1
  Se  Se185  1  0.91631728  0.75273156  0.44853732  1
  Se  Se186  1  0.91354320  0.75036872  0.94424060  1
  Se  Se187  1  0.24710893  0.24785426  0.30723564  1
  Se  Se188  1  0.25742050  0.24991040  0.80683283  1
  Se  Se189  1  0.25207551  0.59057166  0.30014577  1
  Se  Se190  1  0.25420507  0.58868959  0.80084298  1
  Se  Se191  1  0.23896779  0.90834651  0.30607299  1
  Se  Se192  1  0.24073049  0.90853609  0.81636938  1
  Se  Se193  1  0.58358620  0.25133133  0.29242161  1
  Se  Se194  1  0.58964755  0.25243559  0.80253483  1
  Se  Se195  1  0.57728488  0.57567352  0.31847736  1
  Se  Se196  1  0.57945242  0.57986934  0.81180638  1
  Se  Se197  1  0.58719051  0.90497547  0.31249381  1
  Se  Se198  1  0.58305804  0.91856267  0.80374812  1
  Se  Se199  1  0.90654786  0.24520743  0.30957800  1
  Se  Se200  1  0.92027771  0.24700893  0.80467014  1
  Se  Se201  1  0.91582863  0.58619263  0.30488148  1
  Se  Se202  1  0.91107939  0.58875669  0.79325580  1
  Se  Se203  1  0.91412743  0.91424260  0.30649037  1
  Se  Se204  1  0.91309319  0.91475639  0.80269027  1
  Se  Se205  1  0.09002074  0.08876070  0.31086597  1
  Se  Se206  1  0.08464683  0.07921257  0.80641214  1
  Se  Se207  1  0.09099257  0.42842679  0.31603010  1
  Se  Se208  1  0.08737603  0.41839347  0.80081639  1
  Se  Se209  1  0.07921374  0.75206684  0.29686334  1
  Se  Se210  1  0.07635197  0.74736036  0.80343988  1
  Se  Se211  1  0.43243310  0.09183829  0.30657856  1
  Se  Se212  1  0.42701917  0.09125958  0.81517926  1
  Se  Se213  1  0.41942648  0.41929684  0.31225672  1
  Se  Se214  1  0.42210893  0.42108686  0.79859756  1
  Se  Se215  1  0.41654053  0.74787965  0.30442689  1
  Se  Se216  1  0.41195020  0.74971807  0.80243513  1
  Se  Se217  1  0.75347840  0.09029686  0.30677915  1
  Se  Se218  1  0.74773687  0.07759329  0.80379521  1
  Se  Se219  1  0.74500265  0.41733198  0.30485051  1
  Se  Se220  1  0.75757817  0.41504411  0.79486523  1
  Se  Se221  1  0.75832674  0.76103004  0.31249512  1
  Se  Se222  1  0.74920155  0.75286714  0.81265038  1
  Se  Se223  1  0.24829782  0.08431070  0.18703974  1
  Se  Se224  1  0.24738390  0.08908278  0.69297039  1
  Se  Se225  1  0.23566773  0.42793898  0.18907598  1
  Se  Se226  1  0.25602471  0.41693463  0.69804928  1
  Se  Se227  1  0.25601374  0.74790174  0.19113142  1
  Se  Se228  1  0.24969188  0.75305483  0.70121654  1
  Se  Se229  1  0.57531558  0.08492888  0.18607559  1
  Se  Se230  1  0.58425445  0.07746564  0.69945894  1
  Se  Se231  1  0.57820025  0.41869469  0.19590179  1
  Se  Se232  1  0.59074990  0.42070522  0.69312656  1
  Se  Se233  1  0.58532037  0.75320118  0.19145622  1
  Se  Se234  1  0.57627978  0.76221910  0.68609402  1
  Se  Se235  1  0.91051463  0.09361440  0.18975617  1
  Se  Se236  1  0.91603737  0.07638448  0.69929673  1
  Se  Se237  1  0.90658200  0.42409168  0.19010698  1
  Se  Se238  1  0.93430958  0.39964326  0.70199549  1
  Se  Se239  1  0.92157316  0.74761108  0.19493141  1
  Se  Se240  1  0.91073506  0.74764235  0.69507782  1
  Se  Se241  1  0.08474229  0.24519987  0.19299857  1
  Se  Se242  1  0.08718536  0.24776714  0.70169956  1
  Se  Se243  1  0.07671490  0.58933912  0.19622410  1
  Se  Se244  1  0.08437951  0.58911441  0.70329688  1
  Se  Se245  1  0.09323198  0.91330273  0.17897414  1
  Se  Se246  1  0.07947844  0.92147707  0.70351551  1
  Se  Se247  1  0.41965271  0.23658596  0.18692761  1
  Se  Se248  1  0.42001086  0.25313608  0.70191236  1
  Se  Se249  1  0.41531032  0.58653551  0.20331679  1
  Se  Se250  1  0.42216139  0.59203266  0.69322459  1
  Se  Se251  1  0.42539602  0.90847517  0.18956472  1
  Se  Se252  1  0.41660995  0.91579369  0.69415971  1
  Se  Se253  1  0.74343855  0.25671115  0.18993498  1
  Se  Se254  1  0.74873640  0.24476034  0.70459176  1
  Se  Se255  1  0.75458038  0.58334570  0.18942669  1
  Se  Se256  1  0.75396342  0.57763880  0.68744806  1
  Se  Se257  1  0.76660315  0.90651713  0.19428140  1
  Se  Se258  1  0.74191601  0.90724684  0.69248858  1
