# generated using pymatgen
data_In86Cu29Se144
_symmetry_space_group_name_H-M   'P 1'
_cell_length_a   17.58320988
_cell_length_b   17.59003268
_cell_length_c   23.44586206
_cell_angle_alpha   90.01150330
_cell_angle_beta   89.99847237
_cell_angle_gamma   89.98442049
_symmetry_Int_Tables_number   1
_chemical_formula_structural   In86Cu29Se144
_chemical_formula_sum   'In86 Cu29 Se144'
_cell_volume   7251.55235656
_cell_formula_units_Z   1
loop_
 _symmetry_equiv_pos_site_id
 _symmetry_equiv_pos_as_xyz
  1  'x, y, z'
loop_
 _atom_site_type_symbol
 _atom_site_label
 _atom_site_symmetry_multiplicity
 _atom_site_fract_x
 _atom_site_fract_y
 _atom_site_fract_z
 _atom_site_occupancy
  In  In0  1  0.02521360  0.16972857  0.12912853  1
  In  In1  1  0.01210657  0.18110801  0.61201086  1
  In  In2  1  0.00429359  0.49772709  0.12564675  1
  In  In3  1  -0.00457293  0.49317019  0.62706084  1
  In  In4  1  0.00369246  0.81791799  0.12980581  1
  In  In5  1  0.01989747  0.82786311  0.61903841  1
  In  In6  1  0.33056424  0.16711081  0.13277187  1
  In  In7  1  0.33313495  0.16899931  0.61587783  1
  In  In8  1  0.33289340  0.49898212  0.12687602  1
  In  In9  1  0.34136935  0.49441825  0.63468375  1
  In  In10  1  0.32577735  0.84714571  0.13754054  1
  In  In11  1  0.31988728  0.83279130  0.62153108  1
  In  In12  1  0.66214761  0.17259253  0.12871932  1
  In  In13  1  0.65790232  0.15988147  0.61882602  1
  In  In14  1  0.65447824  0.48610166  0.11710054  1
  In  In15  1  0.66007804  0.50396345  0.62481777  1
  In  In16  1  0.66071074  0.84605788  0.13222956  1
  In  In17  1  0.67329197  0.84166765  0.62601804  1
  In  In18  1  0.17418572  -0.00104257  0.37605402  1
  In  In19  1  0.16605027  0.00240726  0.88551276  1
  In  In20  1  0.15856525  0.32035072  0.35863245  1
  In  In21  1  0.17569558  0.33255246  0.87615513  1
  In  In22  1  0.17365005  0.67279404  0.36990767  1
  In  In23  1  0.17910352  0.65168212  0.88514093  1
  In  In24  1  0.50845960  0.00573843  0.36301550  1
  In  In25  1  0.50903085  0.00843303  0.87363343  1
  In  In26  1  0.49448287  0.33132041  0.37577658  1
  In  In27  1  0.47900691  0.34741041  0.88889507  1
  In  In28  1  0.45492636  0.66204909  0.37589936  1
  In  In29  1  0.48537912  0.66374799  0.87393528  1
  In  In30  1  0.83065132  0.01533472  0.37442599  1
  In  In31  1  0.82345639  0.01134553  0.87660742  1
  In  In32  1  0.82196967  0.32854734  0.36755361  1
  In  In33  1  0.84765393  0.33257798  0.87768415  1
  In  In34  1  0.83836525  0.65816911  0.37263017  1
  In  In35  1  0.82468587  0.65896263  0.87697463  1
  In  In36  1  -0.00646971  0.17039208  0.37809616  1
  In  In37  1  0.00723710  0.18086001  0.87449681  1
  In  In38  1  0.00794235  0.50201524  0.36405229  1
  In  In39  1  0.01457418  0.48604880  0.88632149  1
  In  In40  1  0.01530478  0.83052146  0.37643935  1
  In  In41  1  0.01192859  0.83997583  0.87824329  1
  In  In42  1  0.33164442  0.17195387  0.37266846  1
  In  In43  1  0.32045082  0.18606826  0.88803498  1
  In  In44  1  0.33427840  0.50298043  0.37108737  1
  In  In45  1  0.33576590  0.49362898  0.87608386  1
  In  In46  1  0.32201277  0.82286788  0.36056626  1
  In  In47  1  0.33428351  0.81990858  0.87498344  1
  In  In48  1  0.66206227  0.16771612  0.37296752  1
  In  In49  1  0.65625945  0.15606484  0.87572955  1
  In  In50  1  0.65941411  0.48229070  0.37082873  1
  In  In51  1  0.66242021  0.50361612  0.88785625  1
  In  In52  1  0.64508019  0.83779747  0.36752145  1
  In  In53  1  0.65593727  0.84318556  0.87512728  1
  In  In54  1  0.18832854  0.01641695  0.11424911  1
  In  In55  1  0.17065273  0.00371169  0.61463366  1
  In  In56  1  0.16644867  0.33174584  0.13122505  1
  In  In57  1  0.17527339  0.32234469  0.63580145  1
  In  In58  1  0.17010568  0.66395109  0.12529681  1
  In  In59  1  0.17119095  0.67876259  0.62060995  1
  In  In60  1  0.48941590  0.00720353  0.13540894  1
  In  In61  1  0.49912208  0.01754959  0.62241847  1
  In  In62  1  0.49798532  0.33344245  0.12778218  1
  In  In63  1  0.49517724  0.32808296  0.61893013  1
  In  In64  1  0.49577193  0.65111252  0.12328360  1
  In  In65  1  0.49036354  0.64904634  0.61808204  1
  In  In66  1  0.82708733  0.00344753  0.12813176  1
  In  In67  1  0.81996513  0.00364608  0.62390865  1
  In  In68  1  0.82761729  0.34006301  0.12996674  1
  In  In69  1  0.85108470  0.33339758  0.62462496  1
  In  In70  1  0.84801680  0.66648273  0.12601272  1
  In  In71  1  0.83658128  0.65576607  0.62337107  1
  In  In72  1  0.00203615  0.66435688  0.74519226  1
  In  In73  1  0.49779377  0.83181883  0.00340017  1
  In  In74  1  0.00271092  -0.00109400  0.25404327  1
  In  In75  1  0.66473229  0.65986913  0.24948547  1
  In  In76  1  0.66210099  0.33021881  0.74889134  1
  In  In77  1  0.65421176  0.66882194  0.75835176  1
  In  In78  1  0.49257696  0.83485270  0.49006594  1
  In  In79  1  0.17118855  0.50158389  0.49699349  1
  In  In80  1  0.83465568  0.49554492  0.50534877  1
  In  In81  1  0.83633231  0.83795636  0.49906652  1
  In  In82  1  0.83957820  0.17006501  0.00020746  1
  In  In83  1  -0.00070329  0.01007764  0.75565727  1
  In  In84  1  0.33469678  0.00544577  0.74360744  1
  In  In85  1  0.83766922  0.82823131  -0.00406721  1
  Cu  Cu86  1  0.33152484  0.33445264  0.00900607  1
  Cu  Cu87  1  0.83200559  0.83411040  0.24701234  1
  Cu  Cu88  1  0.83206291  0.16551696  0.75083034  1
  Cu  Cu89  1  0.33794155  0.00111368  0.00666421  1
  Cu  Cu90  1  0.00689157  0.65985862  0.00696134  1
  Cu  Cu91  1  0.66469746  0.33042498  0.00496939  1
  Cu  Cu92  1  0.32822817  0.66276163  0.00060071  1
  Cu  Cu93  1  0.00783062  0.33634899  0.00254766  1
  Cu  Cu94  1  0.16805531  0.50138780  0.24594945  1
  Cu  Cu95  1  0.83127932  0.17093121  0.25161995  1
  Cu  Cu96  1  0.00785824  -0.00566393  0.00519983  1
  Cu  Cu97  1  0.00226850  0.33464387  0.49450910  1
  Cu  Cu98  1  0.49584687  0.17120473  0.74676565  1
  Cu  Cu99  1  0.17013059  0.83167654  0.75018612  1
  Cu  Cu100  1  0.83570652  0.49416697  0.75425995  1
  Cu  Cu101  1  0.17155383  0.49616535  0.75817118  1
  Cu  Cu102  1  0.50229100  0.83414187  0.74995712  1
  Cu  Cu103  1  0.83177919  0.84186538  0.74478993  1
  Cu  Cu104  1  0.49925635  0.17305366  0.25100019  1
  Cu  Cu105  1  0.66366949  0.00817070  0.49526071  1
  Cu  Cu106  1  0.49622434  0.49682296  0.24925855  1
  Cu  Cu107  1  0.83730001  0.49836904  0.24700803  1
  Cu  Cu108  1  0.00278116  0.00207452  0.49412471  1
  Cu  Cu109  1  0.16208709  0.83146770  0.24719768  1
  Cu  Cu110  1  0.33247739  0.00395146  0.49405813  1
  Cu  Cu111  1  0.67168565  0.66341021  0.00586194  1
  Cu  Cu112  1  0.65989272  0.66212639  0.49873662  1
  Cu  Cu113  1  0.32977142  0.33254948  0.49884503  1
  Cu  Cu114  1  0.66390856  0.32496548  0.49417558  1
  Se  Se115  1  0.08854738  0.08672982  0.05091777  1
  Se  Se116  1  0.08607486  0.08603673  0.54822562  1
  Se  Se117  1  0.09095140  0.41735613  0.05782991  1
  Se  Se118  1  0.08136790  0.41060970  0.55844179  1
  Se  Se119  1  0.08712433  0.74955149  0.05514540  1
  Se  Se120  1  0.08812227  0.74664626  0.54576326  1
  Se  Se121  1  0.41588683  0.08686849  0.06062977  1
  Se  Se122  1  0.41686349  0.08575397  0.54762422  1
  Se  Se123  1  0.41887715  0.41892028  0.05759603  1
  Se  Se124  1  0.41021203  0.41532936  0.55507296  1
  Se  Se125  1  0.40622266  0.74445242  0.06226654  1
  Se  Se126  1  0.40897645  0.74662922  0.55519787  1
  Se  Se127  1  0.74467429  0.08195396  0.05564753  1
  Se  Se128  1  0.75014406  0.08682068  0.54942613  1
  Se  Se129  1  0.75272720  0.41492452  0.05223708  1
  Se  Se130  1  0.74012931  0.40333066  0.56144098  1
  Se  Se131  1  0.74464682  0.74986852  0.06450217  1
  Se  Se132  1  0.74257895  0.73997770  0.55675824  1
  Se  Se133  1  0.24895329  0.24873488  0.06074368  1
  Se  Se134  1  0.24277635  0.25201938  0.55223913  1
  Se  Se135  1  0.24819894  0.57807797  0.05549869  1
  Se  Se136  1  0.25889591  0.58433783  0.56227880  1
  Se  Se137  1  0.25430325  0.91114403  0.05313681  1
  Se  Se138  1  0.25086924  0.91763768  0.54753619  1
  Se  Se139  1  0.57998021  0.24943385  0.05699711  1
  Se  Se140  1  0.57918649  0.24561320  0.55107514  1
  Se  Se141  1  0.58084436  0.57981832  0.05060898  1
  Se  Se142  1  0.57965941  0.57477533  0.54928813  1
  Se  Se143  1  0.58368783  0.92784012  0.05915306  1
  Se  Se144  1  0.58617323  0.92222896  0.55430486  1
  Se  Se145  1  0.92834692  0.25484792  0.06393616  1
  Se  Se146  1  0.91458230  0.25202084  0.54595961  1
  Se  Se147  1  0.91753035  0.57886095  0.05490002  1
  Se  Se148  1  0.93350369  0.59184842  0.55302390  1
  Se  Se149  1  0.92106817  0.91959510  0.06219336  1
  Se  Se150  1  0.92677246  0.92617540  0.56230991  1
  Se  Se151  1  0.08603077  0.25172292  0.44128820  1
  Se  Se152  1  0.08936990  0.25223052  0.94791525  1
  Se  Se153  1  0.07887183  0.58944921  0.43796986  1
  Se  Se154  1  0.08983868  0.57663006  0.95251081  1
  Se  Se155  1  0.08833187  0.91769113  0.44561037  1
  Se  Se156  1  0.09195134  0.91041618  0.95340957  1
  Se  Se157  1  0.41510330  0.24844042  0.44693864  1
  Se  Se158  1  0.41726668  0.24872830  0.95760849  1
  Se  Se159  1  0.41433729  0.56728898  0.45137002  1
  Se  Se160  1  0.41450033  0.58146712  0.94756142  1
  Se  Se161  1  0.40753041  0.92573100  0.42944965  1
  Se  Se162  1  0.41103430  0.92240915  0.93857683  1
  Se  Se163  1  0.75153178  0.24602249  0.44266002  1
  Se  Se164  1  0.74372047  0.25533596  0.93918073  1
  Se  Se165  1  0.74339184  0.58172409  0.44070116  1
  Se  Se166  1  0.75577099  0.57973394  0.95344616  1
  Se  Se167  1  0.73864378  0.91913383  0.43791407  1
  Se  Se168  1  0.74145193  0.92410762  0.94721067  1
  Se  Se169  1  0.24836780  0.09005163  0.44384135  1
  Se  Se170  1  0.25401401  0.08275547  0.95052427  1
  Se  Se171  1  0.24923796  0.40555269  0.43442597  1
  Se  Se172  1  0.25254622  0.41601576  0.94835123  1
  Se  Se173  1  0.26233020  0.74352082  0.44047596  1
  Se  Se174  1  0.24860423  0.75223015  0.94884065  1
  Se  Se175  1  0.57651609  0.08567571  0.44176977  1
  Se  Se176  1  0.57867603  0.08431394  0.95085389  1
  Se  Se177  1  0.58009006  0.41291303  0.44711653  1
  Se  Se178  1  0.58115659  0.41534995  0.95180101  1
  Se  Se179  1  0.58100608  0.73589227  0.43497233  1
  Se  Se180  1  0.59076002  0.74019033  0.94196542  1
  Se  Se181  1  0.91372131  0.08519445  0.44819727  1
  Se  Se182  1  0.93019107  0.07424772  0.94113581  1
  Se  Se183  1  0.92113669  0.41511766  0.43574414  1
  Se  Se184  1  0.91672460  0.41615250  0.95222870  1
  Se  Se185  1  0.92255675  0.74335201  0.44216666  1
  Se  Se186  1  0.93093591  0.73583701  0.93843436  1
  Se  Se187  1  0.26730132  0.26359754  0.29956078  1
  Se  Se188  1  0.25842315  0.25450592  0.80434105  1
  Se  Se189  1  0.25053120  0.58391177  0.30185028  1
  Se  Se190  1  0.25519245  0.58305429  0.80667242  1
  Se  Se191  1  0.24395232  0.91810334  0.29902557  1
  Se  Se192  1  0.24757487  0.91581582  0.80962787  1
  Se  Se193  1  0.58363888  0.25568706  0.30514872  1
  Se  Se194  1  0.57101599  0.24876899  0.81282567  1
  Se  Se195  1  0.57132373  0.57939758  0.31333733  1
  Se  Se196  1  0.57110189  0.56781013  0.81051192  1
  Se  Se197  1  0.58726981  0.92328800  0.29180198  1
  Se  Se198  1  0.58208276  0.92169957  0.80048187  1
  Se  Se199  1  0.91704686  0.25150229  0.30452523  1
  Se  Se200  1  0.91609452  0.24814173  0.80298685  1
  Se  Se201  1  0.91812197  0.58425538  0.29927841  1
  Se  Se202  1  0.91743017  0.57620995  0.81226807  1
  Se  Se203  1  0.90957114  0.90952243  0.31420073  1
  Se  Se204  1  0.90915466  0.91201434  0.81248073  1
  Se  Se205  1  0.08944457  0.09189337  0.31037669  1
  Se  Se206  1  0.09889459  0.09379806  0.80941082  1
  Se  Se207  1  0.08201071  0.41538081  0.29509501  1
  Se  Se208  1  0.08502184  0.41265243  0.80727754  1
  Se  Se209  1  0.08089689  0.74636782  0.30050873  1
  Se  Se210  1  0.09161511  0.74942284  0.81017523  1
  Se  Se211  1  0.41524377  0.08807632  0.30286679  1
  Se  Se212  1  0.41604147  0.09323593  0.81028781  1
  Se  Se213  1  0.41419505  0.41443650  0.30470847  1
  Se  Se214  1  0.40948429  0.40627044  0.80470257  1
  Se  Se215  1  0.43485704  0.76652507  0.30242151  1
  Se  Se216  1  0.41749264  0.75031908  0.79985188  1
  Se  Se217  1  0.74654474  0.08572474  0.30163640  1
  Se  Se218  1  0.74507618  0.08592660  0.80239345  1
  Se  Se219  1  0.74872258  0.41792712  0.29773021  1
  Se  Se220  1  0.75046785  0.41987188  0.81387757  1
  Se  Se221  1  0.75276541  0.75515024  0.31094318  1
  Se  Se222  1  0.75627340  0.76094639  0.80889003  1
  Se  Se223  1  0.25560470  0.07387655  0.19951484  1
  Se  Se224  1  0.23872348  0.09313336  0.68906328  1
  Se  Se225  1  0.25327139  0.41600257  0.19729886  1
  Se  Se226  1  0.25214630  0.41422714  0.69995493  1
  Se  Se227  1  0.24962926  0.74774511  0.19687542  1
  Se  Se228  1  0.25276700  0.74823149  0.69764361  1
  Se  Se229  1  0.58279305  0.08798348  0.19792775  1
  Se  Se230  1  0.58268680  0.08642189  0.69780774  1
  Se  Se231  1  0.58393187  0.41558226  0.19794197  1
  Se  Se232  1  0.57297342  0.42251453  0.69192404  1
  Se  Se233  1  0.57639540  0.74848730  0.18860267  1
  Se  Se234  1  0.57774645  0.75411508  0.68476884  1
  Se  Se235  1  0.91476997  0.09266786  0.19090851  1
  Se  Se236  1  0.91323715  0.09071607  0.68676739  1
  Se  Se237  1  0.92128865  0.41404552  0.19533207  1
  Se  Se238  1  0.92091640  0.41364083  0.70170245  1
  Se  Se239  1  0.91795581  0.74705163  0.20256653  1
  Se  Se240  1  0.91035911  0.76070119  0.68686678  1
  Se  Se241  1  0.08917792  0.25051190  0.20498992  1
  Se  Se242  1  0.06965022  0.25608294  0.69486763  1
  Se  Se243  1  0.08257287  0.58560383  0.19452589  1
  Se  Se244  1  0.09624883  0.57335387  0.68979960  1
  Se  Se245  1  0.08875591  0.91742645  0.18552297  1
  Se  Se246  1  0.09007124  0.91637265  0.69430808  1
  Se  Se247  1  0.41431135  0.25464771  0.19813764  1
  Se  Se248  1  0.41270821  0.24782810  0.68945125  1
  Se  Se249  1  0.41319547  0.58328462  0.19906724  1
  Se  Se250  1  0.41658895  0.58879767  0.69960074  1
  Se  Se251  1  0.42735891  0.90730659  0.20156415  1
  Se  Se252  1  0.42439762  0.91118235  0.68462394  1
  Se  Se253  1  0.74794085  0.25300951  0.19660282  1
  Se  Se254  1  0.75544690  0.24564365  0.68696264  1
  Se  Se255  1  0.75348171  0.57482823  0.18496668  1
  Se  Se256  1  0.75380022  0.57809566  0.69920116  1
  Se  Se257  1  0.74978265  0.92210036  0.19995226  1
  Se  Se258  1  0.74364276  0.92601371  0.69950331  1
