# generated using pymatgen
data_In86Cu29Se144
_symmetry_space_group_name_H-M   'P 1'
_cell_length_a   17.58492314
_cell_length_b   17.58542965
_cell_length_c   23.45547568
_cell_angle_alpha   90.02244898
_cell_angle_beta   89.99938947
_cell_angle_gamma   89.99547621
_symmetry_Int_Tables_number   1
_chemical_formula_structural   In86Cu29Se144
_chemical_formula_sum   'In86 Cu29 Se144'
_cell_volume   7253.33386591
_cell_formula_units_Z   1
loop_
 _symmetry_equiv_pos_site_id
 _symmetry_equiv_pos_as_xyz
  1  'x, y, z'
loop_
 _atom_site_type_symbol
 _atom_site_label
 _atom_site_symmetry_multiplicity
 _atom_site_fract_x
 _atom_site_fract_y
 _atom_site_fract_z
 _atom_site_occupancy
  In  In0  1  -0.00059652  0.16483000  0.12701380  1
  In  In1  1  0.00506963  0.17879064  0.61971806  1
  In  In2  1  -0.01204690  0.49665491  0.12696591  1
  In  In3  1  0.00500318  0.49399745  0.62976569  1
  In  In4  1  0.00549128  0.84243172  0.11939241  1
  In  In5  1  -0.00579076  0.82373650  0.61377774  1
  In  In6  1  0.32916291  0.18005476  0.12042087  1
  In  In7  1  0.33033536  0.16287586  0.61900805  1
  In  In8  1  0.34414784  0.48378227  0.11626037  1
  In  In9  1  0.33092215  0.51469237  0.63108231  1
  In  In10  1  0.33150530  0.83574736  0.11724341  1
  In  In11  1  0.32846843  0.82988518  0.62107077  1
  In  In12  1  0.67351059  0.14694776  0.13828893  1
  In  In13  1  0.67128803  0.16886196  0.61896088  1
  In  In14  1  0.65305481  0.50182765  0.12135719  1
  In  In15  1  0.67032607  0.50189830  0.63317581  1
  In  In16  1  0.67024211  0.83741257  0.11903662  1
  In  In17  1  0.66123074  0.82932623  0.61849176  1
  In  In18  1  0.16093833  0.01174158  0.37964352  1
  In  In19  1  0.16434807  0.00421460  0.88264041  1
  In  In20  1  0.15915586  0.33720056  0.38342920  1
  In  In21  1  0.15851237  0.33317859  0.87399594  1
  In  In22  1  0.14190942  0.68030004  0.40483871  1
  In  In23  1  0.17787855  0.67353750  0.86271449  1
  In  In24  1  0.51047545  -0.00511241  0.37217557  1
  In  In25  1  0.48994799  -0.00638976  0.87607496  1
  In  In26  1  0.49867039  0.32061898  0.37344788  1
  In  In27  1  0.52342844  0.32267100  0.87533493  1
  In  In28  1  0.50900946  0.67683798  0.37736968  1
  In  In29  1  0.49663080  0.67024543  0.87131482  1
  In  In30  1  0.83474525  -0.00187748  0.37355512  1
  In  In31  1  0.83422134  0.00222593  0.88522598  1
  In  In32  1  0.82209388  0.31497738  0.36797072  1
  In  In33  1  0.82755417  0.32945043  0.87203931  1
  In  In34  1  0.83754130  0.68133055  0.38195775  1
  In  In35  1  0.84381319  0.67747406  0.86524255  1
  In  In36  1  -0.00081854  0.16282737  0.37297442  1
  In  In37  1  -0.00366932  0.17132617  0.87968401  1
  In  In38  1  0.01079020  0.50142113  0.37985742  1
  In  In39  1  -0.00292297  0.50008351  0.86528343  1
  In  In40  1  -0.00941989  0.84440634  0.38419134  1
  In  In41  1  0.00941484  0.82999481  0.87774651  1
  In  In42  1  0.33407360  0.16488034  0.38425519  1
  In  In43  1  0.33353423  0.15882428  0.87574285  1
  In  In44  1  0.32226145  0.49222620  0.38018776  1
  In  In45  1  0.33279057  0.51301882  0.87171876  1
  In  In46  1  0.33920603  0.82884764  0.37906303  1
  In  In47  1  0.33893180  0.82544445  0.88081038  1
  In  In48  1  0.66651043  0.16384396  0.37275991  1
  In  In49  1  0.66578733  0.18222726  0.87330354  1
  In  In50  1  0.67593527  0.49179986  0.37498396  1
  In  In51  1  0.65984520  0.49432439  0.87006732  1
  In  In52  1  0.65075950  0.85362328  0.38382645  1
  In  In53  1  0.66864922  0.83368910  0.87618102  1
  In  In54  1  0.15971924  -0.00379986  0.12340981  1
  In  In55  1  0.16877252  0.00210782  0.61653536  1
  In  In56  1  0.16982044  0.31900136  0.12442908  1
  In  In57  1  0.14855523  0.31689205  0.61951451  1
  In  In58  1  0.15573449  0.67241125  0.12191759  1
  In  In59  1  0.16537319  0.66935737  0.62417684  1
  In  In60  1  0.51368641  -0.00489717  0.12928546  1
  In  In61  1  0.49928146  -0.00005729  0.61640648  1
  In  In62  1  0.49766923  0.33793863  0.12254212  1
  In  In63  1  0.51292147  0.32784853  0.62809712  1
  In  In64  1  0.50170384  0.66668323  0.11213716  1
  In  In65  1  0.49274776  0.68404010  0.64049224  1
  In  In66  1  0.83388729  0.00056578  0.12556519  1
  In  In67  1  0.83650002  0.00139322  0.61357118  1
  In  In68  1  0.84288929  0.31635274  0.13391123  1
  In  In69  1  0.84056777  0.32853559  0.62814067  1
  In  In70  1  0.82092829  0.67018086  0.12062954  1
  In  In71  1  0.82679828  0.67450793  0.63313472  1
  In  In72  1  0.33293672  -0.00060634  0.74469386  1
  In  In73  1  0.33819018  0.00079313  0.25366672  1
  In  In74  1  0.33038217  0.66013273  0.25996870  1
  In  In75  1  0.17180608  0.50407704  -0.00836043  1
  In  In76  1  -0.00510795  0.66636186  0.25804843  1
  In  In77  1  0.00452465  0.00270481  0.74981875  1
  In  In78  1  0.49495130  0.50581542  0.51139856  1
  In  In79  1  0.83705895  0.50118684  0.50310258  1
  In  In80  1  0.82870670  0.50184256  -0.00190899  1
  In  In81  1  0.66840743  0.66519609  0.24599624  1
  In  In82  1  0.66241755  -0.00194513  0.75201291  1
  In  In83  1  0.50242315  0.16306458  0.00191329  1
  In  In84  1  0.33549083  0.33701304  0.75005356  1
  In  In85  1  0.33592874  0.32639380  0.24313886  1
  Cu  Cu86  1  0.00066646  0.68017876  -0.00678269  1
  Cu  Cu87  1  0.16908270  0.83088814  0.74781049  1
  Cu  Cu88  1  0.66246036  0.32678293  0.49722065  1
  Cu  Cu89  1  0.00020076  0.00171280  0.49723259  1
  Cu  Cu90  1  0.50566360  0.50202189  0.75114716  1
  Cu  Cu91  1  0.16286907  0.49880253  0.74735375  1
  Cu  Cu92  1  0.16211617  0.16607464  0.25166287  1
  Cu  Cu93  1  0.83176547  0.83792318  0.24859582  1
  Cu  Cu94  1  0.83564151  0.48305264  0.25273669  1
  Cu  Cu95  1  0.83561796  0.15989337  0.25180714  1
  Cu  Cu96  1  0.33173736  0.66969427  -0.00720531  1
  Cu  Cu97  1  0.50046899  0.49667837  0.24354690  1
  Cu  Cu98  1  0.00588520  0.33020810  0.00268569  1
  Cu  Cu99  1  0.66312527  0.67088562  -0.00549570  1
  Cu  Cu100  1  0.83288352  0.50232577  0.75015290  1
  Cu  Cu101  1  0.83357900  0.83406146  0.74852323  1
  Cu  Cu102  1  -0.00175821  0.00538968  0.00423781  1
  Cu  Cu103  1  0.66796717  0.67949138  0.50673013  1
  Cu  Cu104  1  0.66954747  -0.00070068  0.00525436  1
  Cu  Cu105  1  0.16399402  0.83709259  0.24809290  1
  Cu  Cu106  1  0.33377412  0.66860423  0.50728989  1
  Cu  Cu107  1  0.83472045  0.17433804  0.74906490  1
  Cu  Cu108  1  0.67509168  0.32695550  0.00119800  1
  Cu  Cu109  1  0.33605620  -0.00026013  0.49621299  1
  Cu  Cu110  1  0.67064029  0.00163149  0.49573743  1
  Cu  Cu111  1  0.16466498  0.49567104  0.25878031  1
  Cu  Cu112  1  0.32626531  0.33348756  0.50316711  1
  Cu  Cu113  1  0.32763393  -0.00241911  0.00057789  1
  Cu  Cu114  1  -0.00804251  0.32573734  0.49798355  1
  Se  Se115  1  0.08547794  0.08737692  0.05613022  1
  Se  Se116  1  0.07991431  0.08534394  0.55359594  1
  Se  Se117  1  0.08111166  0.41945601  0.05893044  1
  Se  Se118  1  0.07305722  0.40963317  0.55326267  1
  Se  Se119  1  0.08596648  0.75729447  0.04976959  1
  Se  Se120  1  0.09951073  0.76194296  0.55324761  1
  Se  Se121  1  0.41032542  0.07382389  0.06349793  1
  Se  Se122  1  0.41685139  0.08525610  0.55017428  1
  Se  Se123  1  0.42716087  0.41293078  0.04494439  1
  Se  Se124  1  0.40698799  0.40894495  0.56717275  1
  Se  Se125  1  0.41388701  0.75158653  0.05001776  1
  Se  Se126  1  0.42241088  0.75014316  0.55646617  1
  Se  Se127  1  0.75101229  0.08565458  0.05617585  1
  Se  Se128  1  0.75212516  0.08628058  0.54914216  1
  Se  Se129  1  0.75010872  0.40951365  0.06425206  1
  Se  Se130  1  0.74072757  0.41031338  0.55740134  1
  Se  Se131  1  0.74887073  0.75187728  0.04796515  1
  Se  Se132  1  0.76066149  0.75710439  0.55479523  1
  Se  Se133  1  0.25714845  0.26187146  0.04858205  1
  Se  Se134  1  0.24424511  0.24583965  0.55353587  1
  Se  Se135  1  0.25796469  0.59078790  0.06110432  1
  Se  Se136  1  0.24950389  0.58268660  0.55518378  1
  Se  Se137  1  0.24190191  0.91488406  0.05310360  1
  Se  Se138  1  0.25333179  0.91761271  0.55157824  1
  Se  Se139  1  0.59515308  0.24759807  0.06354931  1
  Se  Se140  1  0.57844688  0.24500444  0.55092881  1
  Se  Se141  1  0.58298474  0.58102481  0.04492689  1
  Se  Se142  1  0.58970047  0.59565472  0.56533834  1
  Se  Se143  1  0.58027576  0.91519180  0.05092162  1
  Se  Se144  1  0.58645775  0.91906942  0.55051717  1
  Se  Se145  1  0.91936244  0.24874489  0.05476188  1
  Se  Se146  1  0.90701310  0.24485147  0.55131289  1
  Se  Se147  1  0.92488454  0.59583401  0.05416313  1
  Se  Se148  1  0.91972653  0.58950635  0.56626881  1
  Se  Se149  1  0.91389172  0.91777821  0.05369674  1
  Se  Se150  1  0.91701228  0.91470755  0.54773821  1
  Se  Se151  1  0.08016273  0.24445489  0.44559522  1
  Se  Se152  1  0.08766232  0.24829756  0.94776602  1
  Se  Se153  1  0.08032706  0.57112716  0.45968473  1
  Se  Se154  1  0.07689215  0.59282112  0.93518710  1
  Se  Se155  1  0.08762884  0.91885874  0.44678154  1
  Se  Se156  1  0.07930261  0.92136921  0.94783230  1
  Se  Se157  1  0.41378273  0.25578271  0.44912513  1
  Se  Se158  1  0.41768755  0.25314321  0.93881983  1
  Se  Se159  1  0.41049004  0.59110509  0.43999423  1
  Se  Se160  1  0.41750052  0.58518009  0.94402840  1
  Se  Se161  1  0.42067699  0.91869790  0.44183139  1
  Se  Se162  1  0.41432826  0.91533784  0.94985344  1
  Se  Se163  1  0.74850199  0.24417061  0.44671168  1
  Se  Se164  1  0.75693744  0.24494226  0.94707428  1
  Se  Se165  1  0.74057091  0.59395334  0.44446388  1
  Se  Se166  1  0.74666494  0.59248178  0.93424929  1
  Se  Se167  1  0.75590939  0.91411050  0.44614463  1
  Se  Se168  1  0.74901927  0.91566614  0.94749244  1
  Se  Se169  1  0.24725645  0.08609939  0.45070892  1
  Se  Se170  1  0.25012959  0.08695379  0.94917581  1
  Se  Se171  1  0.24227643  0.41881134  0.45366054  1
  Se  Se172  1  0.26074381  0.41025632  0.93649111  1
  Se  Se173  1  0.25461434  0.75318834  0.45024155  1
  Se  Se174  1  0.24134765  0.75055493  0.94463167  1
  Se  Se175  1  0.58302955  0.08279948  0.44345711  1
  Se  Se176  1  0.59228946  0.07519387  0.93769576  1
  Se  Se177  1  0.58254576  0.41729050  0.44541265  1
  Se  Se178  1  0.59285652  0.41084577  0.94778052  1
  Se  Se179  1  0.58092132  0.75689981  0.45138598  1
  Se  Se180  1  0.57872662  0.75387882  0.94200202  1
  Se  Se181  1  0.91525208  0.08301268  0.44300000  1
  Se  Se182  1  0.91591932  0.08886939  0.95005365  1
  Se  Se183  1  0.91369909  0.40702801  0.43656239  1
  Se  Se184  1  0.92529700  0.41229128  0.94314233  1
  Se  Se185  1  0.94204949  0.73211471  0.44644570  1
  Se  Se186  1  0.91084476  0.75910283  0.94316401  1
  Se  Se187  1  0.24527161  0.24583803  0.31033476  1
  Se  Se188  1  0.24666172  0.24398110  0.80783550  1
  Se  Se189  1  0.23064694  0.58361209  0.32070011  1
  Se  Se190  1  0.25160460  0.58145173  0.79563856  1
  Se  Se191  1  0.24474789  0.91109117  0.31174968  1
  Se  Se192  1  0.24327562  0.91455077  0.80995401  1
  Se  Se193  1  0.59214602  0.25778576  0.30619416  1
  Se  Se194  1  0.58735433  0.24733913  0.79518215  1
  Se  Se195  1  0.57700747  0.57411902  0.30882791  1
  Se  Se196  1  0.58587302  0.58797067  0.80496861  1
  Se  Se197  1  0.58584583  0.91451193  0.29814423  1
  Se  Se198  1  0.56943141  0.90612335  0.80605203  1
  Se  Se199  1  0.91935767  0.24686735  0.30211073  1
  Se  Se200  1  0.91899206  0.25203965  0.80604469  1
  Se  Se201  1  0.90256903  0.57255821  0.31472234  1
  Se  Se202  1  0.92005541  0.58781979  0.79803470  1
  Se  Se203  1  0.91897316  0.91474425  0.30357555  1
  Se  Se204  1  0.91123909  0.91565160  0.80969895  1
  Se  Se205  1  0.08070829  0.07858850  0.30184034  1
  Se  Se206  1  0.09136596  0.09328332  0.80948521  1
  Se  Se207  1  0.07917349  0.41166381  0.30759528  1
  Se  Se208  1  0.08246786  0.41457049  0.80153058  1
  Se  Se209  1  0.08939166  0.75576735  0.31283450  1
  Se  Se210  1  0.08098920  0.75090023  0.80092262  1
  Se  Se211  1  0.42405106  0.09524380  0.31092296  1
  Se  Se212  1  0.42721314  0.09060610  0.80352877  1
  Se  Se213  1  0.41684356  0.42445068  0.30707946  1
  Se  Se214  1  0.42867006  0.42019103  0.81319056  1
  Se  Se215  1  0.42874370  0.75698562  0.30271136  1
  Se  Se216  1  0.40464265  0.74541087  0.80447100  1
  Se  Se217  1  0.74998268  0.07860204  0.30498790  1
  Se  Se218  1  0.75851427  0.08848484  0.80848736  1
  Se  Se219  1  0.74314804  0.40665333  0.30172708  1
  Se  Se220  1  0.75081706  0.41697005  0.80401143  1
  Se  Se221  1  0.75264318  0.75661843  0.30877974  1
  Se  Se222  1  0.74809367  0.75465021  0.80278548  1
  Se  Se223  1  0.24764509  0.09058487  0.19159279  1
  Se  Se224  1  0.23773284  0.09208837  0.69302563  1
  Se  Se225  1  0.24389834  0.42605371  0.19095271  1
  Se  Se226  1  0.24066269  0.41685341  0.68624023  1
  Se  Se227  1  0.24411231  0.75182186  0.19379051  1
  Se  Se228  1  0.25320761  0.74798057  0.69467114  1
  Se  Se229  1  0.57982825  0.07636946  0.20460544  1
  Se  Se230  1  0.57881934  0.08731222  0.68793491  1
  Se  Se231  1  0.58488149  0.41312133  0.19363805  1
  Se  Se232  1  0.58559846  0.41616656  0.69767057  1
  Se  Se233  1  0.57703524  0.75176329  0.18675248  1
  Se  Se234  1  0.60006251  0.74825975  0.69759407  1
  Se  Se235  1  0.91907049  0.07923634  0.19564067  1
  Se  Se236  1  0.91008595  0.08817206  0.68989075  1
  Se  Se237  1  0.92385388  0.40749169  0.19917351  1
  Se  Se238  1  0.91526850  0.41672087  0.69702830  1
  Se  Se239  1  0.90985896  0.75223884  0.18996655  1
  Se  Se240  1  0.92159097  0.75508131  0.69581618  1
  Se  Se241  1  0.08263273  0.25098481  0.19637830  1
  Se  Se242  1  0.07269742  0.25219992  0.69967642  1
  Se  Se243  1  0.08733551  0.57633183  0.19503722  1
  Se  Se244  1  0.08311809  0.58622862  0.69447080  1
  Se  Se245  1  0.07903648  0.91879342  0.19696293  1
  Se  Se246  1  0.08947993  0.91126244  0.68757217  1
  Se  Se247  1  0.43194352  0.23499498  0.19177016  1
  Se  Se248  1  0.41967075  0.24151467  0.69052263  1
  Se  Se249  1  0.41875676  0.57912870  0.18792825  1
  Se  Se250  1  0.41859261  0.58474690  0.70151251  1
  Se  Se251  1  0.41942689  0.90558928  0.19198418  1
  Se  Se252  1  0.42497269  0.90920984  0.68911343  1
  Se  Se253  1  0.74991679  0.24430995  0.20026492  1
  Se  Se254  1  0.74767439  0.25050006  0.69298355  1
  Se  Se255  1  0.76046970  0.56760005  0.19118981  1
  Se  Se256  1  0.74808931  0.58807466  0.70130803  1
  Se  Se257  1  0.74731264  0.91656410  0.19280675  1
  Se  Se258  1  0.75761531  0.91732013  0.68867446  1
