# generated using pymatgen
data_In86Cu29Se144
_symmetry_space_group_name_H-M   'P 1'
_cell_length_a   17.54932918
_cell_length_b   17.54945933
_cell_length_c   23.39447837
_cell_angle_alpha   89.99735807
_cell_angle_beta   89.99498732
_cell_angle_gamma   90.00741316
_symmetry_Int_Tables_number   1
_chemical_formula_structural   In86Cu29Se144
_chemical_formula_sum   'In86 Cu29 Se144'
_cell_volume   7205.06033082
_cell_formula_units_Z   1
loop_
 _symmetry_equiv_pos_site_id
 _symmetry_equiv_pos_as_xyz
  1  'x, y, z'
loop_
 _atom_site_type_symbol
 _atom_site_label
 _atom_site_symmetry_multiplicity
 _atom_site_fract_x
 _atom_site_fract_y
 _atom_site_fract_z
 _atom_site_occupancy
  In  In0  1  -0.00933762  0.16298754  0.12066621  1
  In  In1  1  -0.01093288  0.18437426  0.63596090  1
  In  In2  1  -0.00754313  0.50304753  0.10968570  1
  In  In3  1  -0.01067684  0.49539666  0.63701937  1
  In  In4  1  0.00923952  0.83838857  0.12513713  1
  In  In5  1  -0.01317444  0.83944402  0.62323859  1
  In  In6  1  0.33088033  0.15694927  0.11462520  1
  In  In7  1  0.33601253  0.16126219  0.63974521  1
  In  In8  1  0.33158631  0.49900094  0.10094293  1
  In  In9  1  0.33180905  0.50824924  0.64061704  1
  In  In10  1  0.33519544  0.83126480  0.12132270  1
  In  In11  1  0.35126817  0.81556867  0.64057739  1
  In  In12  1  0.67041986  0.16618755  0.11258018  1
  In  In13  1  0.68439868  0.16232345  0.64854067  1
  In  In14  1  0.67097393  0.50429017  0.11372278  1
  In  In15  1  0.68029280  0.48289583  0.66488311  1
  In  In16  1  0.65187624  0.83053178  0.12141339  1
  In  In17  1  0.66624753  0.83558068  0.62761886  1
  In  In18  1  0.16992709  -0.00615999  0.36293596  1
  In  In19  1  0.18780021  -0.00762496  0.87286826  1
  In  In20  1  0.17009117  0.34789276  0.38345478  1
  In  In21  1  0.18840944  0.34884486  0.86833179  1
  In  In22  1  0.15638751  0.66433800  0.38164304  1
  In  In23  1  0.15327581  0.65868687  0.86034889  1
  In  In24  1  0.48683097  -0.00625344  0.37397960  1
  In  In25  1  0.49924143  -0.00115543  0.87926890  1
  In  In26  1  0.49748620  0.32739818  0.37824095  1
  In  In27  1  0.49373884  0.33581670  0.87491824  1
  In  In28  1  0.51567427  0.66185684  0.37714870  1
  In  In29  1  0.50228292  0.65983136  0.86986932  1
  In  In30  1  0.84039929  -0.00683679  0.38437778  1
  In  In31  1  0.82735543  0.02191560  0.87283733  1
  In  In32  1  0.83146075  0.33174157  0.39048211  1
  In  In33  1  0.83362974  0.33364724  0.86104776  1
  In  In34  1  0.83026213  0.67249409  0.38672223  1
  In  In35  1  0.80718476  0.63078175  0.83447137  1
  In  In36  1  0.00186467  0.15720936  0.37919513  1
  In  In37  1  -0.02304593  0.17802427  0.86815269  1
  In  In38  1  -0.00545625  0.50391821  0.38922662  1
  In  In39  1  -0.00240892  0.49957010  0.86502064  1
  In  In40  1  -0.00347360  0.83277832  0.37820434  1
  In  In41  1  0.01244679  0.82088988  0.86963511  1
  In  In42  1  0.34643203  0.15314046  0.37588106  1
  In  In43  1  0.34840370  0.17220925  0.87723776  1
  In  In44  1  0.32480921  0.49119883  0.38254564  1
  In  In45  1  0.33347460  0.49432343  0.87336955  1
  In  In46  1  0.33005841  0.84416237  0.37872665  1
  In  In47  1  0.34903884  0.84488826  0.86375494  1
  In  In48  1  0.67290980  0.17756792  0.38001388  1
  In  In49  1  0.67118052  0.16580286  0.86568818  1
  In  In50  1  0.66289553  0.51407113  0.37877341  1
  In  In51  1  0.66485038  0.49595687  0.86352137  1
  In  In52  1  0.67424495  0.82064521  0.38505946  1
  In  In53  1  0.64760369  0.82410902  0.86890059  1
  In  In54  1  0.16936122  -0.00599635  0.13456917  1
  In  In55  1  0.17393781  0.00727807  0.62782621  1
  In  In56  1  0.15870423  0.34171255  0.11704573  1
  In  In57  1  0.15041578  0.34962727  0.64066157  1
  In  In58  1  0.17057789  0.66930339  0.11770353  1
  In  In59  1  0.18341417  0.65926309  0.63934506  1
  In  In60  1  0.48210742  -0.01617527  0.09639553  1
  In  In61  1  0.51170469  -0.00627105  0.63155846  1
  In  In62  1  0.49402293  0.33028564  0.09715438  1
  In  In63  1  0.50710033  0.33690673  0.64719257  1
  In  In64  1  0.50347870  0.67532608  0.11329297  1
  In  In65  1  0.49870571  0.66197538  0.63905123  1
  In  In66  1  0.83266582  0.00918136  0.12224719  1
  In  In67  1  0.82323086  -0.00747683  0.62018808  1
  In  In68  1  0.82927820  0.33070270  0.10914041  1
  In  In69  1  0.83178252  0.33894452  0.63520931  1
  In  In70  1  0.83041361  0.65211444  0.11956032  1
  In  In71  1  0.82964374  0.66979555  0.63600222  1
  In  In72  1  0.66526831  0.33333629  0.24545967  1
  In  In73  1  0.33001165  0.32890011  0.25027010  1
  In  In74  1  0.00292724  0.00001861  0.75239679  1
  In  In75  1  -0.00068677  0.33494675  0.24065943  1
  In  In76  1  0.16879916  0.17397875  -0.01141890  1
  In  In77  1  0.50881713  0.50655549  0.51521581  1
  In  In78  1  0.50721800  0.16735047  0.50122669  1
  In  In79  1  0.16314396  0.82824762  0.50225007  1
  In  In80  1  0.16117429  0.17122394  0.50379301  1
  In  In81  1  0.66551256  -0.00340895  0.24642733  1
  In  In82  1  0.33702598  0.67456172  0.23992435  1
  In  In83  1  -0.00107969  0.67550505  0.25712583  1
  In  In84  1  0.16962066  0.82707122  -0.00243137  1
  In  In85  1  0.83463594  0.82530201  -0.00996006  1
  Cu  Cu86  1  0.33397756  -0.00788408  0.50441632  1
  Cu  Cu87  1  0.83223165  0.84242846  0.74980381  1
  Cu  Cu88  1  -0.00843413  0.00801355  0.50144297  1
  Cu  Cu89  1  0.50057093  0.83789627  0.75134245  1
  Cu  Cu90  1  -0.00954214  0.65433615  -0.01581526  1
  Cu  Cu91  1  0.33890908  0.66146173  0.51352978  1
  Cu  Cu92  1  0.67507367  0.33617257  -0.01629518  1
  Cu  Cu93  1  0.66992864  0.33824417  0.51674048  1
  Cu  Cu94  1  0.82124167  0.50555055  0.24725836  1
  Cu  Cu95  1  0.84253087  0.15895198  0.25080658  1
  Cu  Cu96  1  0.49582516  0.16409907  0.75886663  1
  Cu  Cu97  1  0.49968779  0.83193165  0.24352724  1
  Cu  Cu98  1  0.16477133  0.50811370  0.24821493  1
  Cu  Cu99  1  0.49664238  0.15505188  0.23737008  1
  Cu  Cu100  1  -0.00369979  0.34113258  -0.01054827  1
  Cu  Cu101  1  0.32985069  0.66493176  -0.01293781  1
  Cu  Cu102  1  0.17506676  0.15923149  0.75964989  1
  Cu  Cu103  1  0.50402546  0.50353905  0.24292976  1
  Cu  Cu104  1  0.17407340  0.15840103  0.24971708  1
  Cu  Cu105  1  0.16905711  0.49203532  0.75129556  1
  Cu  Cu106  1  0.83056979  0.82832314  0.25760520  1
  Cu  Cu107  1  0.66946857  0.00003714  0.50914874  1
  Cu  Cu108  1  -0.00035782  0.00695099  -0.00477686  1
  Cu  Cu109  1  0.66589978  0.65783887  -0.01448568  1
  Cu  Cu110  1  -0.00006796  0.65682837  0.51197435  1
  Cu  Cu111  1  0.32102037  0.34115813  0.51497264  1
  Cu  Cu112  1  -0.01028018  0.34248568  0.51429912  1
  Cu  Cu113  1  0.66935112  0.00372310  -0.00637962  1
  Cu  Cu114  1  0.67025048  0.66309373  0.51014461  1
  Se  Se115  1  0.08643844  0.07944689  0.05576746  1
  Se  Se116  1  0.07021150  0.08284477  0.56534717  1
  Se  Se117  1  0.08089091  0.42181600  0.04540210  1
  Se  Se118  1  0.07878868  0.42419128  0.56212911  1
  Se  Se119  1  0.06469649  0.73771784  0.04938480  1
  Se  Se120  1  0.08213425  0.73945698  0.56906467  1
  Se  Se121  1  0.43414680  0.10456622  0.04734320  1
  Se  Se122  1  0.41320071  0.07951737  0.56064849  1
  Se  Se123  1  0.42033557  0.42487459  0.03487645  1
  Se  Se124  1  0.41725712  0.41043721  0.56943043  1
  Se  Se125  1  0.40775713  0.74782752  0.04789594  1
  Se  Se126  1  0.42615707  0.74356223  0.56174528  1
  Se  Se127  1  0.75746938  0.08391400  0.04616905  1
  Se  Se128  1  0.74408648  0.09188232  0.56051317  1
  Se  Se129  1  0.75192478  0.42024632  0.04437935  1
  Se  Se130  1  0.74366435  0.42709022  0.57241796  1
  Se  Se131  1  0.74013632  0.74063134  0.05240922  1
  Se  Se132  1  0.75328933  0.75197304  0.56104159  1
  Se  Se133  1  0.25489780  0.26296779  0.05433884  1
  Se  Se134  1  0.24774977  0.25212074  0.57291068  1
  Se  Se135  1  0.24068717  0.58776022  0.04333711  1
  Se  Se136  1  0.25315195  0.57804562  0.56190522  1
  Se  Se137  1  0.25352325  0.92580379  0.05442866  1
  Se  Se138  1  0.25639044  0.91114756  0.56507845  1
  Se  Se139  1  0.59558422  0.25243157  0.04238895  1
  Se  Se140  1  0.58608281  0.25387027  0.57126765  1
  Se  Se141  1  0.58137089  0.58354140  0.04838794  1
  Se  Se142  1  0.60437672  0.58184563  0.57884775  1
  Se  Se143  1  0.58907605  0.91148894  0.04249659  1
  Se  Se144  1  0.58174986  0.91459712  0.55460209  1
  Se  Se145  1  0.92303477  0.25098654  0.04768762  1
  Se  Se146  1  0.90620934  0.25367623  0.56036687  1
  Se  Se147  1  0.90379592  0.57847397  0.04115221  1
  Se  Se148  1  0.91110951  0.58230723  0.56726661  1
  Se  Se149  1  0.92188592  0.92002997  0.05285639  1
  Se  Se150  1  0.91005073  0.91716011  0.54877558  1
  Se  Se151  1  0.06928371  0.26653662  0.44640108  1
  Se  Se152  1  0.07640052  0.26154551  0.92927187  1
  Se  Se153  1  0.08706827  0.57972904  0.45521811  1
  Se  Se154  1  0.08511550  0.57682930  0.93782851  1
  Se  Se155  1  0.08034146  0.93047015  0.44469287  1
  Se  Se156  1  0.07899171  0.92391335  0.93944415  1
  Se  Se157  1  0.40031551  0.25845759  0.45141469  1
  Se  Se158  1  0.41923380  0.25541500  0.95045228  1
  Se  Se159  1  0.41442672  0.58382683  0.44499286  1
  Se  Se160  1  0.41806290  0.58097487  0.94047335  1
  Se  Se161  1  0.42039515  0.91103088  0.45169643  1
  Se  Se162  1  0.41367876  0.91535838  0.94630380  1
  Se  Se163  1  0.74542087  0.25104517  0.45850663  1
  Se  Se164  1  0.75749997  0.24898776  0.93375080  1
  Se  Se165  1  0.75074242  0.58018951  0.45151304  1
  Se  Se166  1  0.75345989  0.58040289  0.93186913  1
  Se  Se167  1  0.74854927  0.91620546  0.44913768  1
  Se  Se168  1  0.74532120  0.91956694  0.93305686  1
  Se  Se169  1  0.25240172  0.07478001  0.44617995  1
  Se  Se170  1  0.26530315  0.07545517  0.94508379  1
  Se  Se171  1  0.24215154  0.42619386  0.46045104  1
  Se  Se172  1  0.25397647  0.42011384  0.94967207  1
  Se  Se173  1  0.26152750  0.73795550  0.44603780  1
  Se  Se174  1  0.25060358  0.74502545  0.92740948  1
  Se  Se175  1  0.59214266  0.07226684  0.43792943  1
  Se  Se176  1  0.58802748  0.08829772  0.93944206  1
  Se  Se177  1  0.58763780  0.40804685  0.44756057  1
  Se  Se178  1  0.58588246  0.41947941  0.93831255  1
  Se  Se179  1  0.58477119  0.74286839  0.45352904  1
  Se  Se180  1  0.57588043  0.74672509  0.94568985  1
  Se  Se181  1  0.90860232  0.09315983  0.44979430  1
  Se  Se182  1  0.91506675  0.09117583  0.94592920  1
  Se  Se183  1  0.90731527  0.42407559  0.45543849  1
  Se  Se184  1  0.91089915  0.41945156  0.93364827  1
  Se  Se185  1  0.92796304  0.74442445  0.45074570  1
  Se  Se186  1  0.91354820  0.73587580  0.92457988  1
  Se  Se187  1  0.24131111  0.24145627  0.31840410  1
  Se  Se188  1  0.25944744  0.24749502  0.80750206  1
  Se  Se189  1  0.24881973  0.58405976  0.30791031  1
  Se  Se190  1  0.25166624  0.57817093  0.80295408  1
  Se  Se191  1  0.26598316  0.92206241  0.30053692  1
  Se  Se192  1  0.23888495  0.89781423  0.79987494  1
  Se  Se193  1  0.57210074  0.23593832  0.30346414  1
  Se  Se194  1  0.57827662  0.25246020  0.80675488  1
  Se  Se195  1  0.58620140  0.58314074  0.29929685  1
  Se  Se196  1  0.60672825  0.60588229  0.80228967  1
  Se  Se197  1  0.58070514  0.90559849  0.31010402  1
  Se  Se198  1  0.58296488  0.92450265  0.80361281  1
  Se  Se199  1  0.91198255  0.25101587  0.31043581  1
  Se  Se200  1  0.92072901  0.25965785  0.78697536  1
  Se  Se201  1  0.90955122  0.57641532  0.30994467  1
  Se  Se202  1  0.93914746  0.59791179  0.79435471  1
  Se  Se203  1  0.91392544  0.91397170  0.30803374  1
  Se  Se204  1  0.91151434  0.91495370  0.81591137  1
  Se  Se205  1  0.08228039  0.08495301  0.30451517  1
  Se  Se206  1  0.08811796  0.08711426  0.81980495  1
  Se  Se207  1  0.08361273  0.42672992  0.30789497  1
  Se  Se208  1  0.08417262  0.40837241  0.80345498  1
  Se  Se209  1  0.09893895  0.76431698  0.30942382  1
  Se  Se210  1  0.08422801  0.75131422  0.79055406  1
  Se  Se211  1  0.41658758  0.07601138  0.29738807  1
  Se  Se212  1  0.41264090  0.07604478  0.80746404  1
  Se  Se213  1  0.42455663  0.42603812  0.30788412  1
  Se  Se214  1  0.42899330  0.42956105  0.80159269  1
  Se  Se215  1  0.42475176  0.75281308  0.31089091  1
  Se  Se216  1  0.42075206  0.74654404  0.80067272  1
  Se  Se217  1  0.75357176  0.08682902  0.30978550  1
  Se  Se218  1  0.75377484  0.08853514  0.79280790  1
  Se  Se219  1  0.75323647  0.41888199  0.31192138  1
  Se  Se220  1  0.74248060  0.40787357  0.79161257  1
  Se  Se221  1  0.74965738  0.74226029  0.30862946  1
  Se  Se222  1  0.74648139  0.75935313  0.80108873  1
  Se  Se223  1  0.25956872  0.08218013  0.19388552  1
  Se  Se224  1  0.25493667  0.07310083  0.70595349  1
  Se  Se225  1  0.24649418  0.42753462  0.18830800  1
  Se  Se226  1  0.25885658  0.40802347  0.70184855  1
  Se  Se227  1  0.23403108  0.76339326  0.19178598  1
  Se  Se228  1  0.25088674  0.75499042  0.70585178  1
  Se  Se229  1  0.58049478  0.07991216  0.17807419  1
  Se  Se230  1  0.58057312  0.08558784  0.70151607  1
  Se  Se231  1  0.57324450  0.41499304  0.18088091  1
  Se  Se232  1  0.54897988  0.45011513  0.71263856  1
  Se  Se233  1  0.58155130  0.74382143  0.19408538  1
  Se  Se234  1  0.58465032  0.75418489  0.69835746  1
  Se  Se235  1  0.92267529  0.07616191  0.19550913  1
  Se  Se236  1  0.90819524  0.08254455  0.69162998  1
  Se  Se237  1  0.90275340  0.42609038  0.18624321  1
  Se  Se238  1  0.93256170  0.39273378  0.70677920  1
  Se  Se239  1  0.90727385  0.75354033  0.18770235  1
  Se  Se240  1  0.91770800  0.75845965  0.69940849  1
  Se  Se241  1  0.09533977  0.23992398  0.18852356  1
  Se  Se242  1  0.09376246  0.23926023  0.70157648  1
  Se  Se243  1  0.08008005  0.58285909  0.18770906  1
  Se  Se244  1  0.08748784  0.57679622  0.69694698  1
  Se  Se245  1  0.07387263  0.92273471  0.19902200  1
  Se  Se246  1  0.08875418  0.91214116  0.68822091  1
  Se  Se247  1  0.42327912  0.25027399  0.18390897  1
  Se  Se248  1  0.41458436  0.25059892  0.70519729  1
  Se  Se249  1  0.41709189  0.57396649  0.18138669  1
  Se  Se250  1  0.42639763  0.57388676  0.70988026  1
  Se  Se251  1  0.42366437  0.91566249  0.18535236  1
  Se  Se252  1  0.41627239  0.92388113  0.69867285  1
  Se  Se253  1  0.76153487  0.24062759  0.19020145  1
  Se  Se254  1  0.72441091  0.28468106  0.70421870  1
  Se  Se255  1  0.73908077  0.58699575  0.19243461  1
  Se  Se256  1  0.76340048  0.58582445  0.71439469  1
  Se  Se257  1  0.75732866  0.90472700  0.18752099  1
  Se  Se258  1  0.74508172  0.92270808  0.69805724  1
