# generated using pymatgen
data_In86Cu29Se144
_symmetry_space_group_name_H-M   'P 1'
_cell_length_a   17.58074346
_cell_length_b   17.58491605
_cell_length_c   23.44811032
_cell_angle_alpha   89.94903550
_cell_angle_beta   89.98169345
_cell_angle_gamma   90.01121791
_symmetry_Int_Tables_number   1
_chemical_formula_structural   In86Cu29Se144
_chemical_formula_sum   'In86 Cu29 Se144'
_cell_volume   7249.11822039
_cell_formula_units_Z   1
loop_
 _symmetry_equiv_pos_site_id
 _symmetry_equiv_pos_as_xyz
  1  'x, y, z'
loop_
 _atom_site_type_symbol
 _atom_site_label
 _atom_site_symmetry_multiplicity
 _atom_site_fract_x
 _atom_site_fract_y
 _atom_site_fract_z
 _atom_site_occupancy
  In  In0  1  -0.02475418  0.15943011  0.12702603  1
  In  In1  1  -0.00435236  0.16415092  0.62152625  1
  In  In2  1  0.00193952  0.51638109  0.12025830  1
  In  In3  1  0.01384400  0.48848226  0.64103176  1
  In  In4  1  -0.00077543  0.83317845  0.12624386  1
  In  In5  1  -0.00144288  0.83516583  0.62956500  1
  In  In6  1  0.34950957  0.16739578  0.12519216  1
  In  In7  1  0.33681583  0.17169730  0.61716969  1
  In  In8  1  0.33426113  0.48727436  0.12892514  1
  In  In9  1  0.31873573  0.52038063  0.63194554  1
  In  In10  1  0.31235697  0.84555090  0.11986967  1
  In  In11  1  0.32103172  0.82371310  0.62256693  1
  In  In12  1  0.68919116  0.17904195  0.11211714  1
  In  In13  1  0.66138815  0.15920095  0.61993654  1
  In  In14  1  0.66509159  0.49873427  0.11742857  1
  In  In15  1  0.67792547  0.50580117  0.63033108  1
  In  In16  1  0.67992731  0.83440525  0.11974353  1
  In  In17  1  0.68178630  0.82513370  0.63557661  1
  In  In18  1  0.15277435  0.00733608  0.38305004  1
  In  In19  1  0.14604906  -0.00226109  0.86956332  1
  In  In20  1  0.17428461  0.32268030  0.37924259  1
  In  In21  1  0.15867719  0.34726148  0.86904607  1
  In  In22  1  0.15182144  0.68765448  0.39917152  1
  In  In23  1  0.16937615  0.66489624  0.86724338  1
  In  In24  1  0.51393649  0.00450034  0.37660270  1
  In  In25  1  0.51565274  -0.00504081  0.88026408  1
  In  In26  1  0.48988568  0.32680441  0.36737661  1
  In  In27  1  0.50746110  0.32011177  0.88340665  1
  In  In28  1  0.49519854  0.66352611  0.37738764  1
  In  In29  1  0.49060980  0.65983808  0.87216175  1
  In  In30  1  0.84716506  -0.01189317  0.38298332  1
  In  In31  1  0.83681208  -0.00380914  0.87875688  1
  In  In32  1  0.81928960  0.32947990  0.36840314  1
  In  In33  1  0.83912638  0.32366432  0.87770955  1
  In  In34  1  0.84857441  0.66843578  0.37457658  1
  In  In35  1  0.83606219  0.67210941  0.87791309  1
  In  In36  1  0.00276508  0.15712364  0.37893690  1
  In  In37  1  -0.01064291  0.15480030  0.86474655  1
  In  In38  1  -0.00180209  0.51567777  0.37419359  1
  In  In39  1  0.00102693  0.49904686  0.86753604  1
  In  In40  1  -0.00171133  0.83492348  0.37936484  1
  In  In41  1  -0.00544601  0.82927050  0.87878583  1
  In  In42  1  0.32648293  0.17310333  0.37948407  1
  In  In43  1  0.33880144  0.17297457  0.87536815  1
  In  In44  1  0.33219555  0.49171056  0.37577269  1
  In  In45  1  0.32876138  0.51248624  0.87580435  1
  In  In46  1  0.31135381  0.82590013  0.37846734  1
  In  In47  1  0.33073408  0.81477631  0.87401310  1
  In  In48  1  0.65808151  0.16912748  0.38071636  1
  In  In49  1  0.69090840  0.13616938  0.89994735  1
  In  In50  1  0.68348337  0.49298915  0.36964990  1
  In  In51  1  0.65986669  0.50459003  0.88027172  1
  In  In52  1  0.67539391  0.84649842  0.37473579  1
  In  In53  1  0.68082529  0.84680950  0.87198354  1
  In  In54  1  0.16438387  -0.02259370  0.12074528  1
  In  In55  1  0.15624113  -0.01089496  0.61875826  1
  In  In56  1  0.16953637  0.34478050  0.13324179  1
  In  In57  1  0.15722565  0.32558702  0.61493440  1
  In  In58  1  0.14907361  0.67235380  0.12663385  1
  In  In59  1  0.16025222  0.66478306  0.62717916  1
  In  In60  1  0.49830739  0.02006870  0.11391153  1
  In  In61  1  0.50307621  0.00952535  0.62733996  1
  In  In62  1  0.50555795  0.33342126  0.12653479  1
  In  In63  1  0.50456989  0.32886444  0.62252787  1
  In  In64  1  0.51609319  0.66688524  0.11693216  1
  In  In65  1  0.50064107  0.67059253  0.63800953  1
  In  In66  1  0.84121009  0.00891063  0.12037878  1
  In  In67  1  0.83451309  -0.00000553  0.62707900  1
  In  In68  1  0.82278902  0.32439680  0.11773182  1
  In  In69  1  0.84628714  0.33462477  0.62199189  1
  In  In70  1  0.86899681  0.69048115  0.09227125  1
  In  In71  1  0.83401220  0.67361866  0.63313973  1
  In  In72  1  0.33200605  0.65783173  0.25594689  1
  In  In73  1  0.68192901  0.66216909  0.24824859  1
  In  In74  1  0.16265386  0.50568216  -0.00585938  1
  In  In75  1  0.16799151  0.16282295  -0.00285908  1
  In  In76  1  0.33178822  0.33557350  0.74645784  1
  In  In77  1  0.66902018  0.33074309  0.75023606  1
  In  In78  1  0.83765519  0.50108909  0.49862644  1
  In  In79  1  0.33337297  0.00486279  0.24431894  1
  In  In80  1  0.49769799  0.84264646  0.50490429  1
  In  In81  1  -0.00041598  0.32935431  0.25019776  1
  In  In82  1  0.68414948  0.01049424  0.23828635  1
  In  In83  1  0.49354575  0.49622822  0.50021465  1
  In  In84  1  0.33267181  -0.00454547  0.74081901  1
  In  In85  1  0.49796810  0.82936117  -0.00334823  1
  Cu  Cu86  1  0.15483743  0.83221642  0.25401840  1
  Cu  Cu87  1  0.32883905  0.66313713  -0.00115410  1
  Cu  Cu88  1  0.49804030  0.83695032  0.24608201  1
  Cu  Cu89  1  0.66302142  0.33550632  0.00022225  1
  Cu  Cu90  1  0.00021757  0.66945690  0.50801198  1
  Cu  Cu91  1  0.66479570  0.67446741  0.50625392  1
  Cu  Cu92  1  0.34288410  0.33199325  0.00459201  1
  Cu  Cu93  1  0.51387900  0.15834003  0.75467864  1
  Cu  Cu94  1  0.16275831  0.83096642  0.74673658  1
  Cu  Cu95  1  0.83417086  0.50896946  0.75289043  1
  Cu  Cu96  1  0.66934226  0.66074301  -0.00652907  1
  Cu  Cu97  1  0.15722609  0.17025925  0.74236658  1
  Cu  Cu98  1  -0.00053643  -0.00364789  0.50391800  1
  Cu  Cu99  1  0.33005096  0.33416678  0.49849757  1
  Cu  Cu100  1  0.16626283  0.50516563  0.25197303  1
  Cu  Cu101  1  0.83573111  0.16273562  0.75255231  1
  Cu  Cu102  1  0.67592354  0.00285444  0.50028722  1
  Cu  Cu103  1  -0.00306877  -0.00275682  -0.00189023  1
  Cu  Cu104  1  0.50284786  0.17865216  0.25117169  1
  Cu  Cu105  1  -0.00424410  0.32860912  -0.00376055  1
  Cu  Cu106  1  0.00209961  0.33069230  0.49873793  1
  Cu  Cu107  1  0.83793404  0.83825258  0.75419710  1
  Cu  Cu108  1  0.16807464  0.16494989  0.25500135  1
  Cu  Cu109  1  0.83418310  0.49968240  0.23989777  1
  Cu  Cu110  1  0.66140988  0.32557346  0.49678724  1
  Cu  Cu111  1  0.33487475  0.00367611  0.50001909  1
  Cu  Cu112  1  0.50646850  0.49412246  0.24658314  1
  Cu  Cu113  1  0.49635656  0.50274340  0.75801226  1
  Cu  Cu114  1  0.50571804  0.83101922  0.75731539  1
  Se  Se115  1  0.07540273  0.07920831  0.06073065  1
  Se  Se116  1  0.08373960  0.08400412  0.55330947  1
  Se  Se117  1  0.07890795  0.40725927  0.05596548  1
  Se  Se118  1  0.07632817  0.42079895  0.55353642  1
  Se  Se119  1  0.09206103  0.76406302  0.05519290  1
  Se  Se120  1  0.08303826  0.75625108  0.55885552  1
  Se  Se121  1  0.38973161  0.06857213  0.05107239  1
  Se  Se122  1  0.42057633  0.08284692  0.55387042  1
  Se  Se123  1  0.42181372  0.41898268  0.05731293  1
  Se  Se124  1  0.40364176  0.41210751  0.56571082  1
  Se  Se125  1  0.40544692  0.74434644  0.06261847  1
  Se  Se126  1  0.41663742  0.73987674  0.55863321  1
  Se  Se127  1  0.73927960  0.06707023  0.05298153  1
  Se  Se128  1  0.75678856  0.08668541  0.55531849  1
  Se  Se129  1  0.75162504  0.41752554  0.05000598  1
  Se  Se130  1  0.74040698  0.40933342  0.55595684  1
  Se  Se131  1  0.74736252  0.74903205  0.04599594  1
  Se  Se132  1  0.75503455  0.75050877  0.55709330  1
  Se  Se133  1  0.25164996  0.25855281  0.06110130  1
  Se  Se134  1  0.24781654  0.24675446  0.54964272  1
  Se  Se135  1  0.25209913  0.58588955  0.06531405  1
  Se  Se136  1  0.24209803  0.58590646  0.55447427  1
  Se  Se137  1  0.24943759  0.92354450  0.04084706  1
  Se  Se138  1  0.25505211  0.91904006  0.55452447  1
  Se  Se139  1  0.58294328  0.24915545  0.05521077  1
  Se  Se140  1  0.57835883  0.24491156  0.55199130  1
  Se  Se141  1  0.58249190  0.57943997  0.04493709  1
  Se  Se142  1  0.58715730  0.58707688  0.56051112  1
  Se  Se143  1  0.58455283  0.91969792  0.05837454  1
  Se  Se144  1  0.59701216  0.92172430  0.56365261  1
  Se  Se145  1  0.91361373  0.24589409  0.05044316  1
  Se  Se146  1  0.91509820  0.24859393  0.54934976  1
  Se  Se147  1  0.91805277  0.57111378  0.04114802  1
  Se  Se148  1  0.92123669  0.58411463  0.56594112  1
  Se  Se149  1  0.91615863  0.91558085  0.05513845  1
  Se  Se150  1  0.91497359  0.91446667  0.55814966  1
  Se  Se151  1  0.08402574  0.24571204  0.44508545  1
  Se  Se152  1  0.07889373  0.25236581  0.93543805  1
  Se  Se153  1  0.07758753  0.58085685  0.45303884  1
  Se  Se154  1  0.07135146  0.59607076  0.93998407  1
  Se  Se155  1  0.08438710  0.91256346  0.45065985  1
  Se  Se156  1  0.08134338  0.91462959  0.94614230  1
  Se  Se157  1  0.41702079  0.25244206  0.44591496  1
  Se  Se158  1  0.41868270  0.24253729  0.95165054  1
  Se  Se159  1  0.40271569  0.59190558  0.44601582  1
  Se  Se160  1  0.41574852  0.58121904  0.94898817  1
  Se  Se161  1  0.40874616  0.92339291  0.43458239  1
  Se  Se162  1  0.40800864  0.91656470  0.93527186  1
  Se  Se163  1  0.75168685  0.24837676  0.44566530  1
  Se  Se164  1  0.75124280  0.25284543  0.94978825  1
  Se  Se165  1  0.74180376  0.59363584  0.44221935  1
  Se  Se166  1  0.75613527  0.57859570  0.94335772  1
  Se  Se167  1  0.75525210  0.91221729  0.45192803  1
  Se  Se168  1  0.73556831  0.93710456  0.94780447  1
  Se  Se169  1  0.24913029  0.08379699  0.44549728  1
  Se  Se170  1  0.25046840  0.07546761  0.93057300  1
  Se  Se171  1  0.24614291  0.41747191  0.44648219  1
  Se  Se172  1  0.25837719  0.40720264  0.94332774  1
  Se  Se173  1  0.25484821  0.75137638  0.46088372  1
  Se  Se174  1  0.24425135  0.74310763  0.94545724  1
  Se  Se175  1  0.58298463  0.08286053  0.45326437  1
  Se  Se176  1  0.56435040  0.09853361  0.94743768  1
  Se  Se177  1  0.58875256  0.41372895  0.43742454  1
  Se  Se178  1  0.57858292  0.41737615  0.94687846  1
  Se  Se179  1  0.58771888  0.75000054  0.44044909  1
  Se  Se180  1  0.58947340  0.74494589  0.93390061  1
  Se  Se181  1  0.91759198  0.08232690  0.45112497  1
  Se  Se182  1  0.91773634  0.08673556  0.94647574  1
  Se  Se183  1  0.92151819  0.40817860  0.43481432  1
  Se  Se184  1  0.92147218  0.41594350  0.93948765  1
  Se  Se185  1  0.91715233  0.74928428  0.45046408  1
  Se  Se186  1  0.90041129  0.76478445  0.94979406  1
  Se  Se187  1  0.25350678  0.25053380  0.30183769  1
  Se  Se188  1  0.23974589  0.24255811  0.80587847  1
  Se  Se189  1  0.23540009  0.58470768  0.32027960  1
  Se  Se190  1  0.24187320  0.57079643  0.80134741  1
  Se  Se191  1  0.24101492  0.91716697  0.30682605  1
  Se  Se192  1  0.24567654  0.91039109  0.80718269  1
  Se  Se193  1  0.59039371  0.25551635  0.30558830  1
  Se  Se194  1  0.59299700  0.23660126  0.81509412  1
  Se  Se195  1  0.58074882  0.57758611  0.30882434  1
  Se  Se196  1  0.58503502  0.58526142  0.80573017  1
  Se  Se197  1  0.58340422  0.91737559  0.30012390  1
  Se  Se198  1  0.58823745  0.92045559  0.80258322  1
  Se  Se199  1  0.91142106  0.23973537  0.30933991  1
  Se  Se200  1  0.91795770  0.25299315  0.80005509  1
  Se  Se201  1  0.91269707  0.58155814  0.29875400  1
  Se  Se202  1  0.91752295  0.59105424  0.80593035  1
  Se  Se203  1  0.92445302  0.91909853  0.30666723  1
  Se  Se204  1  0.92209186  0.92033452  0.80770654  1
  Se  Se205  1  0.08225055  0.08123987  0.30318760  1
  Se  Se206  1  0.07866280  0.08188587  0.79449021  1
  Se  Se207  1  0.08690934  0.42052732  0.31204002  1
  Se  Se208  1  0.07970981  0.41769808  0.79572312  1
  Se  Se209  1  0.08177894  0.74555920  0.31245054  1
  Se  Se210  1  0.08126537  0.75311392  0.80683337  1
  Se  Se211  1  0.42543883  0.09004488  0.30863465  1
  Se  Se212  1  0.42062709  0.08210768  0.80690138  1
  Se  Se213  1  0.41616756  0.42110265  0.30173219  1
  Se  Se214  1  0.42283638  0.41399529  0.81460435  1
  Se  Se215  1  0.42042410  0.76181684  0.30942237  1
  Se  Se216  1  0.41513514  0.74579166  0.80020900  1
  Se  Se217  1  0.75363890  0.08169093  0.32057327  1
  Se  Se218  1  0.75286350  0.08189864  0.80859270  1
  Se  Se219  1  0.75168167  0.41489332  0.29228784  1
  Se  Se220  1  0.75489994  0.42260005  0.81097669  1
  Se  Se221  1  0.76174424  0.75948255  0.30870340  1
  Se  Se222  1  0.75315207  0.75316402  0.80586693  1
  Se  Se223  1  0.23955223  0.08919380  0.18419828  1
  Se  Se224  1  0.24377098  0.09168056  0.68536420  1
  Se  Se225  1  0.25261179  0.41902139  0.20596207  1
  Se  Se226  1  0.23743159  0.41764615  0.68796785  1
  Se  Se227  1  0.24525752  0.75581656  0.19765019  1
  Se  Se228  1  0.24852139  0.74576145  0.69783561  1
  Se  Se229  1  0.57760661  0.09512847  0.19046768  1
  Se  Se230  1  0.59420979  0.07714571  0.69831980  1
  Se  Se231  1  0.59254680  0.41624925  0.19290339  1
  Se  Se232  1  0.57432588  0.42558930  0.69330309  1
  Se  Se233  1  0.58403641  0.75676451  0.19262858  1
  Se  Se234  1  0.59040799  0.74843134  0.70240806  1
  Se  Se235  1  0.90805295  0.08007060  0.20287080  1
  Se  Se236  1  0.91911182  0.08246675  0.69553991  1
  Se  Se237  1  0.91771683  0.41819984  0.18289540  1
  Se  Se238  1  0.90874242  0.41792351  0.69921629  1
  Se  Se239  1  0.92005328  0.73742127  0.18783789  1
  Se  Se240  1  0.91967978  0.75248735  0.70154306  1
  Se  Se241  1  0.08796732  0.23909559  0.18741875  1
  Se  Se242  1  0.07484305  0.25399677  0.68989962  1
  Se  Se243  1  0.08009863  0.58495631  0.19952766  1
  Se  Se244  1  0.06572128  0.60109459  0.69818243  1
  Se  Se245  1  0.07876950  0.91875246  0.19851646  1
  Se  Se246  1  0.08158357  0.92075233  0.69874374  1
  Se  Se247  1  0.41553413  0.25683828  0.19712922  1
  Se  Se248  1  0.42951739  0.23809021  0.69649865  1
  Se  Se249  1  0.43036698  0.58258717  0.18949534  1
  Se  Se250  1  0.41506253  0.58354714  0.70095233  1
  Se  Se251  1  0.42234790  0.91375205  0.18281766  1
  Se  Se252  1  0.42717950  0.90187675  0.68709918  1
  Se  Se253  1  0.75816798  0.24252016  0.19540789  1
  Se  Se254  1  0.75818738  0.24277655  0.68831424  1
  Se  Se255  1  0.76260040  0.58357285  0.17717000  1
  Se  Se256  1  0.74778368  0.59086040  0.70173180  1
  Se  Se257  1  0.76789876  0.90430404  0.19227690  1
  Se  Se258  1  0.75269991  0.92093652  0.70065094  1
