# generated using pymatgen
data_In86Cu29Se144
_symmetry_space_group_name_H-M   'P 1'
_cell_length_a   17.70926212
_cell_length_b   17.71017419
_cell_length_c   23.57275774
_cell_angle_alpha   89.98131609
_cell_angle_beta   90.07033928
_cell_angle_gamma   89.97413128
_symmetry_Int_Tables_number   1
_chemical_formula_structural   In86Cu29Se144
_chemical_formula_sum   'In86 Cu29 Se144'
_cell_volume   7393.21433915
_cell_formula_units_Z   1
loop_
 _symmetry_equiv_pos_site_id
 _symmetry_equiv_pos_as_xyz
  1  'x, y, z'
loop_
 _atom_site_type_symbol
 _atom_site_label
 _atom_site_symmetry_multiplicity
 _atom_site_fract_x
 _atom_site_fract_y
 _atom_site_fract_z
 _atom_site_occupancy
  In  In0  1  -0.01143990  0.16850766  0.13600285  1
  In  In1  1  -0.00263299  0.16336462  0.61718483  1
  In  In2  1  -0.01482599  0.49169965  0.12954243  1
  In  In3  1  0.01723721  0.49503052  0.63047860  1
  In  In4  1  0.00216050  0.84515805  0.12784772  1
  In  In5  1  0.00594198  0.82017008  0.63101303  1
  In  In6  1  0.34062894  0.16646317  0.12048861  1
  In  In7  1  0.33829828  0.16630110  0.62751903  1
  In  In8  1  0.33888721  0.49337083  0.11820531  1
  In  In9  1  0.33134609  0.49783373  0.63428329  1
  In  In10  1  0.33363983  0.83067752  0.11830631  1
  In  In11  1  0.34349166  0.84224928  0.62026972  1
  In  In12  1  0.65806052  0.16534474  0.11405846  1
  In  In13  1  0.65685023  0.15937765  0.62730728  1
  In  In14  1  0.66347976  0.51155037  0.12289246  1
  In  In15  1  0.65896780  0.50359788  0.63061741  1
  In  In16  1  0.65678179  0.81816178  0.11357550  1
  In  In17  1  0.65742682  0.84952210  0.63466196  1
  In  In18  1  0.16184331  0.00769814  0.38541444  1
  In  In19  1  0.19175639  0.00447395  0.86394956  1
  In  In20  1  0.16270928  0.33954790  0.38298881  1
  In  In21  1  0.18839826  0.32402995  0.86427458  1
  In  In22  1  0.17818018  0.65843828  0.39148484  1
  In  In23  1  0.20428221  0.71979736  0.78902224  1
  In  In24  1  0.50023881  0.00198542  0.37854376  1
  In  In25  1  0.49693673  -0.00167349  0.87385310  1
  In  In26  1  0.50586724  0.33479769  0.38768024  1
  In  In27  1  0.49691939  0.35108464  0.88405863  1
  In  In28  1  0.49983191  0.66758589  0.37990711  1
  In  In29  1  0.50721738  0.66823323  0.87215377  1
  In  In30  1  0.84241350  -0.00173731  0.37343467  1
  In  In31  1  0.82324565  0.01678446  0.88770016  1
  In  In32  1  0.83019464  0.31706608  0.37627136  1
  In  In33  1  0.81611827  0.33527088  0.88010758  1
  In  In34  1  0.82618874  0.67860446  0.37524938  1
  In  In35  1  0.84534522  0.67829064  0.87338867  1
  In  In36  1  -0.00223267  0.16507112  0.37771728  1
  In  In37  1  0.00033491  0.16202028  0.88106263  1
  In  In38  1  0.01294907  0.49825489  0.37985038  1
  In  In39  1  0.00373634  0.50821019  0.87232484  1
  In  In40  1  -0.00172835  0.84203475  0.37651659  1
  In  In41  1  0.01484241  0.82365584  0.87442319  1
  In  In42  1  0.33727569  0.16420240  0.38409488  1
  In  In43  1  0.41601720  0.19706831  0.81623978  1
  In  In44  1  0.33919193  0.49701977  0.38850272  1
  In  In45  1  0.34285246  0.53749689  0.84686448  1
  In  In46  1  0.33897193  0.82689063  0.38669755  1
  In  In47  1  0.34912642  0.84104567  0.87106989  1
  In  In48  1  0.66141706  0.17503876  0.38680033  1
  In  In49  1  0.65920966  0.17068971  0.87646448  1
  In  In50  1  0.64574402  0.50226727  0.37918074  1
  In  In51  1  0.65967403  0.49067139  0.86284892  1
  In  In52  1  0.66370743  0.82921735  0.37086780  1
  In  In53  1  0.66604342  0.83728463  0.87627666  1
  In  In54  1  0.16408103  -0.00936749  0.13309625  1
  In  In55  1  0.17217986  0.00978765  0.61754571  1
  In  In56  1  0.16233084  0.31770212  0.12712132  1
  In  In57  1  0.18291446  0.34255385  0.62084641  1
  In  In58  1  0.17358911  0.66386418  0.12416435  1
  In  In59  1  0.16686643  0.66044746  0.62819417  1
  In  In60  1  0.50312854  0.00054869  0.11738708  1
  In  In61  1  0.50129908  0.00118167  0.62774089  1
  In  In62  1  0.50031172  0.33237707  0.11111435  1
  In  In63  1  0.50009606  0.32796324  0.62611419  1
  In  In64  1  0.50852556  0.68084842  0.10669109  1
  In  In65  1  0.50059797  0.66893451  0.62830250  1
  In  In66  1  0.83578977  0.00504908  0.11971043  1
  In  In67  1  0.82192985  0.00040332  0.62611361  1
  In  In68  1  0.83701571  0.33215833  0.12997138  1
  In  In69  1  0.82353565  0.31542410  0.62450074  1
  In  In70  1  0.81558257  0.65608578  0.12242309  1
  In  In71  1  0.82748492  0.66926092  0.63500724  1
  In  In72  1  0.82993913  0.49748466  0.00143848  1
  In  In73  1  0.83124078  0.49974024  0.50842644  1
  In  In74  1  -0.00684083  0.32542894  0.74381458  1
  In  In75  1  0.17040224  0.16179923  -0.00144205  1
  In  In76  1  0.66527047  0.33611486  0.25380788  1
  In  In77  1  0.17747006  0.83193644  -0.01664271  1
  In  In78  1  0.32951176  0.33340206  0.25095684  1
  In  In79  1  -0.00450183  0.66989968  0.25542429  1
  In  In80  1  0.83154116  0.83758712  0.50003758  1
  In  In81  1  0.33663437  0.66228308  0.25844245  1
  In  In82  1  0.33413273  -0.00123645  0.25139738  1
  In  In83  1  0.66651232  0.00019155  0.24258967  1
  In  In84  1  0.16349228  0.50041906  -0.01260653  1
  In  In85  1  -0.00142125  -0.00856386  0.75290571  1
  Cu  Cu86  1  -0.00056976  0.33039895  0.50224161  1
  Cu  Cu87  1  0.82934076  0.49777397  0.75068704  1
  Cu  Cu88  1  0.17622200  0.16531257  0.74287474  1
  Cu  Cu89  1  0.82535355  0.82953173  0.24739728  1
  Cu  Cu90  1  0.50428126  0.50467970  0.74619943  1
  Cu  Cu91  1  0.00062557  -0.00116215  0.49825213  1
  Cu  Cu92  1  -0.00139607  0.32996888  0.00546371  1
  Cu  Cu93  1  0.00509314  0.67413239  -0.00160861  1
  Cu  Cu94  1  0.34346326  0.33697647  -0.01290963  1
  Cu  Cu95  1  0.16521704  0.83499953  0.25731199  1
  Cu  Cu96  1  0.15722224  0.16233791  0.25671526  1
  Cu  Cu97  1  0.33538245  0.66669488  0.51165661  1
  Cu  Cu98  1  0.83285393  0.16009015  0.25252770  1
  Cu  Cu99  1  0.00184134  -0.00208164  0.00258744  1
  Cu  Cu100  1  0.83089580  0.83969926  0.75831580  1
  Cu  Cu101  1  0.66334226  -0.00248369  -0.00331173  1
  Cu  Cu102  1  0.33577732  0.33180256  0.50900996  1
  Cu  Cu103  1  0.49809738  0.50570092  0.25015963  1
  Cu  Cu104  1  0.50541466  0.83473420  0.74912615  1
  Cu  Cu105  1  0.82374967  0.16358891  0.75301336  1
  Cu  Cu106  1  0.00830128  0.66241014  0.50645376  1
  Cu  Cu107  1  0.66116327  0.67155498  0.50341078  1
  Cu  Cu108  1  0.66814110  0.66351711  -0.00726883  1
  Cu  Cu109  1  0.83117801  0.49700211  0.25021576  1
  Cu  Cu110  1  0.33648193  0.66949686  -0.01508124  1
  Cu  Cu111  1  0.66143777  0.00395983  0.50713289  1
  Cu  Cu112  1  0.33747809  -0.00305957  0.50345218  1
  Cu  Cu113  1  0.15695701  0.49254630  0.25406843  1
  Cu  Cu114  1  0.33882615  0.00525927  -0.00536387  1
  Se  Se115  1  0.08091226  0.07791279  0.06455200  1
  Se  Se116  1  0.08253838  0.08477301  0.54966068  1
  Se  Se117  1  0.07990778  0.41350116  0.06108711  1
  Se  Se118  1  0.08360357  0.41195882  0.55526231  1
  Se  Se119  1  0.08884757  0.75188334  0.05841794  1
  Se  Se120  1  0.08836972  0.74863140  0.55774955  1
  Se  Se121  1  0.41983803  0.08617831  0.05178078  1
  Se  Se122  1  0.41746853  0.08104795  0.55787502  1
  Se  Se123  1  0.41921561  0.42023214  0.04577741  1
  Se  Se124  1  0.41371335  0.41695190  0.56369650  1
  Se  Se125  1  0.41012043  0.75353098  0.04499062  1
  Se  Se126  1  0.42339219  0.75224318  0.55598904  1
  Se  Se127  1  0.74508602  0.07915607  0.05358676  1
  Se  Se128  1  0.74925039  0.08492249  0.55593484  1
  Se  Se129  1  0.74264825  0.40903402  0.06324721  1
  Se  Se130  1  0.73995579  0.41020648  0.56258797  1
  Se  Se131  1  0.75215393  0.74345723  0.04879685  1
  Se  Se132  1  0.74310515  0.75107256  0.56204848  1
  Se  Se133  1  0.26233253  0.26322900  0.05292517  1
  Se  Se134  1  0.25176915  0.24490216  0.55716715  1
  Se  Se135  1  0.25971481  0.59101432  0.05025566  1
  Se  Se136  1  0.25277000  0.58022368  0.56061449  1
  Se  Se137  1  0.25292844  0.92828336  0.05327942  1
  Se  Se138  1  0.25014194  0.91656974  0.55397430  1
  Se  Se139  1  0.57702110  0.24537573  0.04678646  1
  Se  Se140  1  0.57466887  0.23919013  0.55819445  1
  Se  Se141  1  0.58340743  0.58203404  0.04698323  1
  Se  Se142  1  0.58365913  0.58667741  0.55825096  1
  Se  Se143  1  0.58195865  0.91401704  0.05130370  1
  Se  Se144  1  0.58037334  0.91585433  0.55557209  1
  Se  Se145  1  0.91736479  0.24966665  0.06053985  1
  Se  Se146  1  0.91373356  0.24912769  0.55307806  1
  Se  Se147  1  0.92687269  0.59144203  0.05723171  1
  Se  Se148  1  0.92218170  0.59064931  0.56590760  1
  Se  Se149  1  0.91911970  0.91542684  0.05515717  1
  Se  Se150  1  0.92380308  0.92074903  0.56296693  1
  Se  Se151  1  0.08081242  0.24932677  0.44525022  1
  Se  Se152  1  0.08399547  0.26049738  0.94182546  1
  Se  Se153  1  0.08779548  0.57669721  0.45330038  1
  Se  Se154  1  0.08338617  0.60159530  0.93517434  1
  Se  Se155  1  0.08309481  0.91277125  0.44792297  1
  Se  Se156  1  0.08594381  0.93297949  0.93596064  1
  Se  Se157  1  0.41565389  0.25282590  0.44909376  1
  Se  Se158  1  0.40528337  0.24852711  0.92478333  1
  Se  Se159  1  0.41672087  0.58929391  0.45002538  1
  Se  Se160  1  0.41771897  0.58234055  0.93553559  1
  Se  Se161  1  0.42118746  0.91760711  0.44722499  1
  Se  Se162  1  0.42106312  0.91451722  0.94938493  1
  Se  Se163  1  0.74297958  0.26026238  0.45040272  1
  Se  Se164  1  0.75657424  0.23689462  0.94428181  1
  Se  Se165  1  0.74501942  0.59279030  0.44502585  1
  Se  Se166  1  0.75139990  0.58570703  0.93437480  1
  Se  Se167  1  0.73950034  0.92685843  0.44092152  1
  Se  Se168  1  0.75080664  0.91603372  0.94729433  1
  Se  Se169  1  0.25440206  0.08147146  0.45005421  1
  Se  Se170  1  0.26569750  0.08910247  0.93535951  1
  Se  Se171  1  0.25364970  0.41232200  0.45059840  1
  Se  Se172  1  0.26049253  0.41762855  0.93207757  1
  Se  Se173  1  0.25352035  0.74952585  0.45512795  1
  Se  Se174  1  0.25426831  0.73878061  0.92267177  1
  Se  Se175  1  0.58046361  0.08360605  0.44782231  1
  Se  Se176  1  0.58101100  0.07989497  0.94252606  1
  Se  Se177  1  0.57969715  0.42302885  0.45394116  1
  Se  Se178  1  0.59969038  0.41660688  0.94479092  1
  Se  Se179  1  0.58486955  0.75392497  0.44443121  1
  Se  Se180  1  0.58452632  0.75056281  0.94394465  1
  Se  Se181  1  0.91459059  0.08026050  0.44609119  1
  Se  Se182  1  0.92078564  0.08724237  0.95361445  1
  Se  Se183  1  0.91936418  0.41331040  0.44324332  1
  Se  Se184  1  0.92518014  0.41154825  0.94170549  1
  Se  Se185  1  0.92618288  0.74120733  0.44640393  1
  Se  Se186  1  0.92332761  0.75857172  0.94688274  1
  Se  Se187  1  0.24291568  0.24167400  0.31216059  1
  Se  Se188  1  0.26313248  0.23906014  0.79750158  1
  Se  Se189  1  0.24233591  0.56883460  0.31198425  1
  Se  Se190  1  0.20985839  0.57706946  0.81886740  1
  Se  Se191  1  0.24855675  0.91139812  0.31631482  1
  Se  Se192  1  0.23107277  0.88465562  0.80923751  1
  Se  Se193  1  0.57371430  0.24661490  0.31008479  1
  Se  Se194  1  0.56119355  0.24786281  0.81330606  1
  Se  Se195  1  0.57819559  0.58750990  0.30586032  1
  Se  Se196  1  0.58786618  0.58738007  0.80053461  1
  Se  Se197  1  0.57583587  0.91455704  0.30412158  1
  Se  Se198  1  0.58412589  0.91820133  0.80617742  1
  Se  Se199  1  0.91467191  0.24460961  0.30536121  1
  Se  Se200  1  0.90943280  0.23999206  0.81136207  1
  Se  Se201  1  0.90847864  0.57629732  0.31491893  1
  Se  Se202  1  0.91015496  0.57882203  0.80649843  1
  Se  Se203  1  0.90988578  0.90696030  0.30312719  1
  Se  Se204  1  0.90906171  0.91688767  0.82140370  1
  Se  Se205  1  0.07916927  0.07709790  0.31028017  1
  Se  Se206  1  0.09101221  0.09215477  0.80563416  1
  Se  Se207  1  0.07794223  0.40893567  0.30708181  1
  Se  Se208  1  0.08072532  0.40551256  0.81129125  1
  Se  Se209  1  0.09386380  0.74782664  0.31715881  1
  Se  Se210  1  0.05900791  0.74631225  0.78951816  1
  Se  Se211  1  0.42220342  0.09262688  0.30693967  1
  Se  Se212  1  0.38670251  0.05341359  0.81294114  1
  Se  Se213  1  0.42176655  0.42300120  0.30985711  1
  Se  Se214  1  0.42151066  0.42733857  0.80473427  1
  Se  Se215  1  0.42415575  0.76118634  0.30742063  1
  Se  Se216  1  0.42386321  0.75148154  0.80311952  1
  Se  Se217  1  0.74806861  0.08699912  0.31238442  1
  Se  Se218  1  0.74371532  0.08368024  0.81001076  1
  Se  Se219  1  0.75227306  0.42543798  0.31672663  1
  Se  Se220  1  0.74943452  0.40829881  0.79926060  1
  Se  Se221  1  0.74406939  0.74740674  0.30075999  1
  Se  Se222  1  0.75047335  0.75249602  0.80930580  1
  Se  Se223  1  0.24291637  0.09418946  0.19213645  1
  Se  Se224  1  0.25548829  0.07671830  0.69284607  1
  Se  Se225  1  0.23895100  0.42410449  0.18839488  1
  Se  Se226  1  0.24300942  0.41894771  0.70063026  1
  Se  Se227  1  0.24488688  0.75703984  0.19601065  1
  Se  Se228  1  0.26100517  0.74632847  0.68748508  1
  Se  Se229  1  0.57289563  0.09329761  0.19099289  1
  Se  Se230  1  0.59458757  0.06534660  0.69800545  1
  Se  Se231  1  0.57390028  0.42190971  0.18977062  1
  Se  Se232  1  0.58101079  0.41375170  0.69579355  1
  Se  Se233  1  0.58267507  0.74117428  0.18820602  1
  Se  Se234  1  0.58712857  0.75016538  0.69647994  1
  Se  Se235  1  0.91314222  0.07409831  0.19926267  1
  Se  Se236  1  0.91178575  0.08859950  0.69506044  1
  Se  Se237  1  0.91524557  0.41068801  0.20376493  1
  Se  Se238  1  0.90495282  0.42012255  0.68570722  1
  Se  Se239  1  0.90857714  0.75057397  0.18706010  1
  Se  Se240  1  0.90785439  0.75891638  0.69850891  1
  Se  Se241  1  0.07996399  0.24806895  0.20016345  1
  Se  Se242  1  0.08934324  0.24109363  0.68585237  1
  Se  Se243  1  0.08559123  0.57893110  0.19239713  1
  Se  Se244  1  0.07444035  0.59233704  0.69780998  1
  Se  Se245  1  0.08125554  0.91594936  0.20454662  1
  Se  Se246  1  0.09214691  0.91621094  0.68871954  1
  Se  Se247  1  0.42250636  0.25078081  0.19015488  1
  Se  Se248  1  0.41376956  0.25259457  0.69760719  1
  Se  Se249  1  0.41858944  0.58108393  0.18694896  1
  Se  Se250  1  0.41676282  0.58728719  0.69708735  1
  Se  Se251  1  0.41996937  0.91074129  0.18751910  1
  Se  Se252  1  0.41874867  0.91632604  0.69708348  1
  Se  Se253  1  0.74982412  0.23934153  0.19377913  1
  Se  Se254  1  0.74165478  0.24353558  0.69735246  1
  Se  Se255  1  0.74613764  0.57884377  0.19953555  1
  Se  Se256  1  0.74616482  0.58229587  0.69873077  1
  Se  Se257  1  0.75131125  0.90679701  0.18282684  1
  Se  Se258  1  0.75148927  0.92107654  0.70135700  1
