# generated using pymatgen
data_In86Cu29Se144
_symmetry_space_group_name_H-M   'P 1'
_cell_length_a   17.57197665
_cell_length_b   17.57218725
_cell_length_c   23.42773457
_cell_angle_alpha   89.97171818
_cell_angle_beta   90.01032852
_cell_angle_gamma   89.97664832
_symmetry_Int_Tables_number   1
_chemical_formula_structural   In86Cu29Se144
_chemical_formula_sum   'In86 Cu29 Se144'
_cell_volume   7233.96892747
_cell_formula_units_Z   1
loop_
 _symmetry_equiv_pos_site_id
 _symmetry_equiv_pos_as_xyz
  1  'x, y, z'
loop_
 _atom_site_type_symbol
 _atom_site_label
 _atom_site_symmetry_multiplicity
 _atom_site_fract_x
 _atom_site_fract_y
 _atom_site_fract_z
 _atom_site_occupancy
  In  In0  1  0.00179102  0.16013794  0.11579384  1
  In  In1  1  0.00578268  0.15661409  0.63857661  1
  In  In2  1  -0.00057776  0.49572101  0.11475442  1
  In  In3  1  -0.01425552  0.51265504  0.63766262  1
  In  In4  1  0.01494181  0.84431391  0.13130471  1
  In  In5  1  -0.00683517  0.83663196  0.62667184  1
  In  In6  1  0.33220067  0.18502353  0.12271197  1
  In  In7  1  0.32665055  0.16522797  0.62875653  1
  In  In8  1  0.33110217  0.50097072  0.12003058  1
  In  In9  1  0.33086973  0.49244269  0.63114637  1
  In  In10  1  0.33317419  0.81114933  0.12888897  1
  In  In11  1  0.34915870  0.83120815  0.61973464  1
  In  In12  1  0.67560195  0.15766587  0.11381169  1
  In  In13  1  0.67972638  0.15931576  0.65061758  1
  In  In14  1  0.67460257  0.51123623  0.11073676  1
  In  In15  1  0.67815047  0.48740139  0.64175847  1
  In  In16  1  0.65184937  0.82957600  0.11654943  1
  In  In17  1  0.66782698  0.82704811  0.62866608  1
  In  In18  1  0.17169223  0.01798129  0.37841887  1
  In  In19  1  0.17419309  0.01031349  0.86758703  1
  In  In20  1  0.16445255  0.32754539  0.37655758  1
  In  In21  1  0.16555370  0.33381911  0.87497695  1
  In  In22  1  0.16634801  0.65792112  0.36824017  1
  In  In23  1  0.15313501  0.66586589  0.87517631  1
  In  In24  1  0.48478734  -0.01892410  0.37890169  1
  In  In25  1  0.49966499  -0.00175451  0.87243156  1
  In  In26  1  0.49786623  0.35016888  0.37526948  1
  In  In27  1  0.51526656  0.36204424  0.85410386  1
  In  In28  1  0.50364444  0.67382807  0.36634475  1
  In  In29  1  0.53036034  0.64818614  0.89804577  1
  In  In30  1  0.82801925  -0.01363032  0.37820101  1
  In  In31  1  0.84395856  0.01572816  0.85647376  1
  In  In32  1  0.84811416  0.33565287  0.38156731  1
  In  In33  1  0.83850032  0.33058043  0.87323330  1
  In  In34  1  0.82765555  0.67876535  0.38411706  1
  In  In35  1  0.81758072  0.65051768  0.86943391  1
  In  In36  1  0.01450058  0.17339615  0.38071575  1
  In  In37  1  -0.00306684  0.17077505  0.86947552  1
  In  In38  1  -0.00179686  0.49490524  0.37851808  1
  In  In39  1  -0.00069300  0.49676367  0.87740828  1
  In  In40  1  -0.01985792  0.83341727  0.37603736  1
  In  In41  1  -0.00185697  0.83448876  0.86217364  1
  In  In42  1  0.31626899  0.16033696  0.37715633  1
  In  In43  1  0.32939367  0.16594661  0.87404943  1
  In  In44  1  0.32434165  0.50295251  0.35752229  1
  In  In45  1  0.34297687  0.49132880  0.87880492  1
  In  In46  1  0.34641703  0.83852678  0.37697081  1
  In  In47  1  0.34077209  0.84592372  0.87165978  1
  In  In48  1  0.67086474  0.16410146  0.38190406  1
  In  In49  1  0.68724899  0.18499816  0.85493646  1
  In  In50  1  0.65776000  0.51463398  0.37740676  1
  In  In51  1  0.66968371  0.50735857  0.88085655  1
  In  In52  1  0.67520906  0.82283460  0.38280992  1
  In  In53  1  0.65892181  0.82337772  0.86868775  1
  In  In54  1  0.15156430  -0.00977094  0.12411484  1
  In  In55  1  0.15930186  0.00868547  0.62826449  1
  In  In56  1  0.18284051  0.34448329  0.11024196  1
  In  In57  1  0.17334423  0.32204388  0.63144330  1
  In  In58  1  0.17571983  0.66296355  0.12942130  1
  In  In59  1  0.16115851  0.65623032  0.62684384  1
  In  In60  1  0.51113023  -0.00326332  0.11767373  1
  In  In61  1  0.50474607  -0.01186972  0.63292163  1
  In  In62  1  0.48134897  0.33816268  0.12285365  1
  In  In63  1  0.50942523  0.32812834  0.64281883  1
  In  In64  1  0.50154731  0.66304027  0.11976527  1
  In  In65  1  0.50077498  0.67483149  0.62584188  1
  In  In66  1  0.84064957  0.00621373  0.11675412  1
  In  In67  1  0.84006610  -0.00691891  0.63580137  1
  In  In68  1  0.83822427  0.33227298  0.11218228  1
  In  In69  1  0.82880057  0.33839108  0.64191908  1
  In  In70  1  0.83169453  0.65298334  0.12238385  1
  In  In71  1  0.83629597  0.66338577  0.62593131  1
  In  In72  1  0.66693673  -0.00336488  0.24222722  1
  In  In73  1  0.50112989  0.17414836  -0.00733804  1
  In  In74  1  0.00755344  0.33756195  0.24901178  1
  In  In75  1  0.66640375  0.34018569  0.24372462  1
  In  In76  1  0.33688454  0.66626977  0.74960906  1
  In  In77  1  0.82840145  0.82884916  -0.00722266  1
  In  In78  1  0.16979967  0.83041415  0.00598831  1
  In  In79  1  -0.00006760  0.66828765  0.24702200  1
  In  In80  1  0.50345082  0.16654488  0.51160102  1
  In  In81  1  0.32788703  0.00092127  0.25173582  1
  In  In82  1  0.83933997  0.16147233  0.52114677  1
  In  In83  1  0.50105065  0.50369477  0.50435496  1
  In  In84  1  0.16264548  0.49937421  0.49461054  1
  In  In85  1  0.16040923  0.83756848  0.50238966  1
  Cu  Cu86  1  0.50089627  0.82753947  0.75146835  1
  Cu  Cu87  1  0.33463103  0.00141923  -0.00563994  1
  Cu  Cu88  1  0.49943056  0.82795619  0.24775033  1
  Cu  Cu89  1  0.66603984  0.33424596  -0.01097471  1
  Cu  Cu90  1  0.48474293  0.16049978  0.75214888  1
  Cu  Cu91  1  -0.00607805  0.65926769  -0.00289578  1
  Cu  Cu92  1  0.33540824  0.32450269  0.50364424  1
  Cu  Cu93  1  0.84187009  0.15937675  0.24216397  1
  Cu  Cu94  1  0.16522099  0.17255293  0.24991709  1
  Cu  Cu95  1  0.49137853  0.50799317  0.24379699  1
  Cu  Cu96  1  0.33635228  0.66776746  0.49479206  1
  Cu  Cu97  1  0.00285914  0.34325335  0.50726812  1
  Cu  Cu98  1  0.33539342  0.66871167  0.00196694  1
  Cu  Cu99  1  0.82537945  0.50414735  0.24961376  1
  Cu  Cu100  1  0.33248124  0.33593118  -0.00701228  1
  Cu  Cu101  1  0.83255452  0.83087165  0.74956272  1
  Cu  Cu102  1  0.16255716  0.49481501  0.75190143  1
  Cu  Cu103  1  -0.00495941  0.00353746  0.50731980  1
  Cu  Cu104  1  0.16653696  0.16716595  0.75395472  1
  Cu  Cu105  1  -0.00026215  0.32506620  -0.00728380  1
  Cu  Cu106  1  0.49648445  0.17715197  0.25087783  1
  Cu  Cu107  1  0.16447820  0.83830890  0.74650827  1
  Cu  Cu108  1  0.68079518  0.33498516  0.51473846  1
  Cu  Cu109  1  0.00508593  0.00330006  -0.00930255  1
  Cu  Cu110  1  0.82724883  0.82937313  0.25388128  1
  Cu  Cu111  1  0.67330909  0.66562551  0.50298420  1
  Cu  Cu112  1  0.65716309  -0.01184271  0.50577808  1
  Cu  Cu113  1  0.67381052  0.00297280  -0.01237915  1
  Cu  Cu114  1  0.83706059  0.50335863  0.75791089  1
  Se  Se115  1  0.09022679  0.07912127  0.04865386  1
  Se  Se116  1  0.07901946  0.08932432  0.55587137  1
  Se  Se117  1  0.08030963  0.41094129  0.04776900  1
  Se  Se118  1  0.08514756  0.41931337  0.56883404  1
  Se  Se119  1  0.07150339  0.73992121  0.05998866  1
  Se  Se120  1  0.07534752  0.74105009  0.55946047  1
  Se  Se121  1  0.41363207  0.08282557  0.05813133  1
  Se  Se122  1  0.41348340  0.07314750  0.56423302  1
  Se  Se123  1  0.41416675  0.42038026  0.04735562  1
  Se  Se124  1  0.41719754  0.40340008  0.56253894  1
  Se  Se125  1  0.41997030  0.75391159  0.05204973  1
  Se  Se126  1  0.42316903  0.74596747  0.54782696  1
  Se  Se127  1  0.75879855  0.08187591  0.04316053  1
  Se  Se128  1  0.73522035  0.07194997  0.56576669  1
  Se  Se129  1  0.74939889  0.41334799  0.04862153  1
  Se  Se130  1  0.76144247  0.42177670  0.56389424  1
  Se  Se131  1  0.74259462  0.73991438  0.05537425  1
  Se  Se132  1  0.75337532  0.75018250  0.55771225  1
  Se  Se133  1  0.25098926  0.24661680  0.04298488  1
  Se  Se134  1  0.24794687  0.24502014  0.55428460  1
  Se  Se135  1  0.24673998  0.58667399  0.05162386  1
  Se  Se136  1  0.26048827  0.58614811  0.55573417  1
  Se  Se137  1  0.26261608  0.92264979  0.06271555  1
  Se  Se138  1  0.25214928  0.92120260  0.56330268  1
  Se  Se139  1  0.59021769  0.26099492  0.05993400  1
  Se  Se140  1  0.60072019  0.25086022  0.57001931  1
  Se  Se141  1  0.57323066  0.57576405  0.04846964  1
  Se  Se142  1  0.59603120  0.58442462  0.56520057  1
  Se  Se143  1  0.58967868  0.92285684  0.04326986  1
  Se  Se144  1  0.57672392  0.90401402  0.55905003  1
  Se  Se145  1  0.91665302  0.24178719  0.04824886  1
  Se  Se146  1  0.92696665  0.26220562  0.57018018  1
  Se  Se147  1  0.91030502  0.57539709  0.04923538  1
  Se  Se148  1  0.91714302  0.57960352  0.55624413  1
  Se  Se149  1  0.92955256  0.91575400  0.05070302  1
  Se  Se150  1  0.91089598  0.91836897  0.55585180  1
  Se  Se151  1  0.08500920  0.25788490  0.45414260  1
  Se  Se152  1  0.08544949  0.24324449  0.94120800  1
  Se  Se153  1  0.07131316  0.59670042  0.44332403  1
  Se  Se154  1  0.08442599  0.57918296  0.94811080  1
  Se  Se155  1  0.07234064  0.92856362  0.43988540  1
  Se  Se156  1  0.08458120  0.91525969  0.93644687  1
  Se  Se157  1  0.41968009  0.25236011  0.44033420  1
  Se  Se158  1  0.41875303  0.26535864  0.93012944  1
  Se  Se159  1  0.41114920  0.58231690  0.43495383  1
  Se  Se160  1  0.41506039  0.58307645  0.94781051  1
  Se  Se161  1  0.41178951  0.91282427  0.45765237  1
  Se  Se162  1  0.42159785  0.91787241  0.94756283  1
  Se  Se163  1  0.75367131  0.25223530  0.45063359  1
  Se  Se164  1  0.75136071  0.24718133  0.94277527  1
  Se  Se165  1  0.75091295  0.58034389  0.44621315  1
  Se  Se166  1  0.75113080  0.58616585  0.95331504  1
  Se  Se167  1  0.74818475  0.91319042  0.45227854  1
  Se  Se168  1  0.75216250  0.92234181  0.92741660  1
  Se  Se169  1  0.25420316  0.08092428  0.45529431  1
  Se  Se170  1  0.24855408  0.08459046  0.94611632  1
  Se  Se171  1  0.26363255  0.41120867  0.44072000  1
  Se  Se172  1  0.24533782  0.42121478  0.94420456  1
  Se  Se173  1  0.24904972  0.74516037  0.43985220  1
  Se  Se174  1  0.25645603  0.74711612  0.93788410  1
  Se  Se175  1  0.58500950  0.07112431  0.44259488  1
  Se  Se176  1  0.59359361  0.08957952  0.93236630  1
  Se  Se177  1  0.59708914  0.40764537  0.45008700  1
  Se  Se178  1  0.57859725  0.41943744  0.94371104  1
  Se  Se179  1  0.58411501  0.74052070  0.44551608  1
  Se  Se180  1  0.58138466  0.76508723  0.95162939  1
  Se  Se181  1  0.91688914  0.08341436  0.44157364  1
  Se  Se182  1  0.91656153  0.08224935  0.93946433  1
  Se  Se183  1  0.91683724  0.42220698  0.45388449  1
  Se  Se184  1  0.91540313  0.41399815  0.94602908  1
  Se  Se185  1  0.91297691  0.75563249  0.45251986  1
  Se  Se186  1  0.92339035  0.74317118  0.93426855  1
  Se  Se187  1  0.25014633  0.25164806  0.30541401  1
  Se  Se188  1  0.25032582  0.25213329  0.80518846  1
  Se  Se189  1  0.25017920  0.59416788  0.29298753  1
  Se  Se190  1  0.24394050  0.57895845  0.81001702  1
  Se  Se191  1  0.24228468  0.91266015  0.31491555  1
  Se  Se192  1  0.24975240  0.91601068  0.80224771  1
  Se  Se193  1  0.58309842  0.24797671  0.31207898  1
  Se  Se194  1  0.57118202  0.24447175  0.80226930  1
  Se  Se195  1  0.58080432  0.58300426  0.29910985  1
  Se  Se196  1  0.58812730  0.58863929  0.80919944  1
  Se  Se197  1  0.58040599  0.90938873  0.30787799  1
  Se  Se198  1  0.58171569  0.91552954  0.80288741  1
  Se  Se199  1  0.91374130  0.24254621  0.30625669  1
  Se  Se200  1  0.90384695  0.23961086  0.80015686  1
  Se  Se201  1  0.90976351  0.57978613  0.31000874  1
  Se  Se202  1  0.92378797  0.58786521  0.80809681  1
  Se  Se203  1  0.90940941  0.91884217  0.30129288  1
  Se  Se204  1  0.92034046  0.91987305  0.79349550  1
  Se  Se205  1  0.08419278  0.09022165  0.30589576  1
  Se  Se206  1  0.07919151  0.08157435  0.80179230  1
  Se  Se207  1  0.09646543  0.42990734  0.30785563  1
  Se  Se208  1  0.07814739  0.41277753  0.80589379  1
  Se  Se209  1  0.08148731  0.75963359  0.31140439  1
  Se  Se210  1  0.08615032  0.74975360  0.79891667  1
  Se  Se211  1  0.42496654  0.08930774  0.31132050  1
  Se  Se212  1  0.40652610  0.07521017  0.80705642  1
  Se  Se213  1  0.41736109  0.41753606  0.29894418  1
  Se  Se214  1  0.40457165  0.41891198  0.79559263  1
  Se  Se215  1  0.41044914  0.75094150  0.30121064  1
  Se  Se216  1  0.42571001  0.74712617  0.81528496  1
  Se  Se217  1  0.75504119  0.08919566  0.30528836  1
  Se  Se218  1  0.73072174  0.06747809  0.79821594  1
  Se  Se219  1  0.75549414  0.41948028  0.31392244  1
  Se  Se220  1  0.75231246  0.42217621  0.81205069  1
  Se  Se221  1  0.74566649  0.74403710  0.30476111  1
  Se  Se222  1  0.74933541  0.74660371  0.80213978  1
  Se  Se223  1  0.24433651  0.09199589  0.18708169  1
  Se  Se224  1  0.24771438  0.08119121  0.69955704  1
  Se  Se225  1  0.25513672  0.41206534  0.18948475  1
  Se  Se226  1  0.24886415  0.41316520  0.69995347  1
  Se  Se227  1  0.22101344  0.77442063  0.19228839  1
  Se  Se228  1  0.24534910  0.75598703  0.68659523  1
  Se  Se229  1  0.57536005  0.09815475  0.18972979  1
  Se  Se230  1  0.57498568  0.08050789  0.70171181  1
  Se  Se231  1  0.57480596  0.42700839  0.18477537  1
  Se  Se232  1  0.58210395  0.41980715  0.70730231  1
  Se  Se233  1  0.58258508  0.74789000  0.19195209  1
  Se  Se234  1  0.58560121  0.74368858  0.69978201  1
  Se  Se235  1  0.92518933  0.07745266  0.19040185  1
  Se  Se236  1  0.89291751  0.10364048  0.69628281  1
  Se  Se237  1  0.90639412  0.42204259  0.19171973  1
  Se  Se238  1  0.92099635  0.41696938  0.70665052  1
  Se  Se239  1  0.90788351  0.75821274  0.18567794  1
  Se  Se240  1  0.91787160  0.74847812  0.69607791  1
  Se  Se241  1  0.09034295  0.24957418  0.18338288  1
  Se  Se242  1  0.08249066  0.25157821  0.70171780  1
  Se  Se243  1  0.08479785  0.57036099  0.19009501  1
  Se  Se244  1  0.08267506  0.58576862  0.70316034  1
  Se  Se245  1  0.08090500  0.92641602  0.20681115  1
  Se  Se246  1  0.07842728  0.91967336  0.69361491  1
  Se  Se247  1  0.41073589  0.25727545  0.19952057  1
  Se  Se248  1  0.40864652  0.24888435  0.69759003  1
  Se  Se249  1  0.40940268  0.59032934  0.18900009  1
  Se  Se250  1  0.42728727  0.57379891  0.69155486  1
  Se  Se251  1  0.42393113  0.91563325  0.18936359  1
  Se  Se252  1  0.41336267  0.90940009  0.70007291  1
  Se  Se253  1  0.75800388  0.24207119  0.18815008  1
  Se  Se254  1  0.74296100  0.26189345  0.71116087  1
  Se  Se255  1  0.74240322  0.58379093  0.19444347  1
  Se  Se256  1  0.75543568  0.58556769  0.70082095  1
  Se  Se257  1  0.75745378  0.90727733  0.18238293  1
  Se  Se258  1  0.74631190  0.91384024  0.69803664  1
