# generated using pymatgen
data_In86Cu29Se144
_symmetry_space_group_name_H-M   'P 1'
_cell_length_a   17.57931945
_cell_length_b   17.57574416
_cell_length_c   23.43667098
_cell_angle_alpha   89.99715629
_cell_angle_beta   90.01414130
_cell_angle_gamma   89.99094788
_symmetry_Int_Tables_number   1
_chemical_formula_structural   In86Cu29Se144
_chemical_formula_sum   'In86 Cu29 Se144'
_cell_volume   7241.21903519
_cell_formula_units_Z   1
loop_
 _symmetry_equiv_pos_site_id
 _symmetry_equiv_pos_as_xyz
  1  'x, y, z'
loop_
 _atom_site_type_symbol
 _atom_site_label
 _atom_site_symmetry_multiplicity
 _atom_site_fract_x
 _atom_site_fract_y
 _atom_site_fract_z
 _atom_site_occupancy
  In  In0  1  -0.00793288  0.15838268  0.12664221  1
  In  In1  1  -0.00313804  0.17075306  0.63326065  1
  In  In2  1  0.00188051  0.48719293  0.12218910  1
  In  In3  1  0.00456496  0.49611168  0.63436628  1
  In  In4  1  0.00784207  0.84725323  0.12056189  1
  In  In5  1  -0.00146412  0.83871300  0.62963705  1
  In  In6  1  0.33936425  0.17696889  0.12211886  1
  In  In7  1  0.32042416  0.16656711  0.62812451  1
  In  In8  1  0.31933670  0.49686268  0.11850662  1
  In  In9  1  0.33488669  0.50242235  0.62237511  1
  In  In10  1  0.33780576  0.84171690  0.10922112  1
  In  In11  1  0.34452654  0.83773508  0.62044072  1
  In  In12  1  0.67867104  0.15893487  0.12931222  1
  In  In13  1  0.68232814  0.15797587  0.62466309  1
  In  In14  1  0.67226229  0.49603825  0.13454273  1
  In  In15  1  0.67473035  0.49671941  0.63227606  1
  In  In16  1  0.66932723  0.83820034  0.11990861  1
  In  In17  1  0.66032061  0.82929025  0.62222749  1
  In  In18  1  0.15558323  -0.00168087  0.37565539  1
  In  In19  1  0.16179320  0.00501389  0.87845493  1
  In  In20  1  0.15666509  0.32967599  0.36572355  1
  In  In21  1  0.15649704  0.33873703  0.88390996  1
  In  In22  1  0.17468340  0.67612815  0.37699157  1
  In  In23  1  0.15473957  0.68073160  0.87971625  1
  In  In24  1  0.50351372  -0.01498247  0.37485780  1
  In  In25  1  0.48568679  0.00535605  0.87637847  1
  In  In26  1  0.49738092  0.32895208  0.36647638  1
  In  In27  1  0.51784189  0.31753545  0.87540684  1
  In  In28  1  0.50714206  0.66758789  0.37647540  1
  In  In29  1  0.51391830  0.67334257  0.86738481  1
  In  In30  1  0.83249726  -0.00172665  0.37008294  1
  In  In31  1  0.83813594  -0.01034931  0.88821683  1
  In  In32  1  0.82368469  0.31875226  0.36129982  1
  In  In33  1  0.82549442  0.31998821  0.87429042  1
  In  In34  1  0.83429483  0.68473667  0.37576507  1
  In  In35  1  0.84016043  0.67483022  0.86846172  1
  In  In36  1  -0.02743202  0.14223823  0.34729187  1
  In  In37  1  -0.00188837  0.16692455  0.87727221  1
  In  In38  1  0.00657122  0.48804690  0.37375874  1
  In  In39  1  0.00213785  0.50569533  0.87195007  1
  In  In40  1  -0.00991496  0.84109418  0.38511080  1
  In  In41  1  -0.00524951  0.83686570  0.87374994  1
  In  In42  1  0.32122885  0.17239011  0.37087508  1
  In  In43  1  0.33401163  0.13896871  0.87797073  1
  In  In44  1  0.33796568  0.49632323  0.37447522  1
  In  In45  1  0.32762578  0.48794917  0.87455068  1
  In  In46  1  0.33568590  0.82837057  0.39037966  1
  In  In47  1  0.31852082  0.85745416  0.89195411  1
  In  In48  1  0.68236463  0.16655868  0.35929483  1
  In  In49  1  0.67194893  0.17915240  0.88174665  1
  In  In50  1  0.65948185  0.50088358  0.36595193  1
  In  In51  1  0.66787676  0.49652839  0.87124438  1
  In  In52  1  0.66900212  0.83589375  0.37105888  1
  In  In53  1  0.67962700  0.83378262  0.88807826  1
  In  In54  1  0.15934943  -0.00977978  0.11553963  1
  In  In55  1  0.17224264  -0.00733707  0.63723726  1
  In  In56  1  0.16479285  0.32862475  0.11947521  1
  In  In57  1  0.16250860  0.32288681  0.62728219  1
  In  In58  1  0.16980904  0.67561565  0.11423105  1
  In  In59  1  0.15500583  0.66702882  0.62978350  1
  In  In60  1  0.51574165  0.00100856  0.11742402  1
  In  In61  1  0.50677282  -0.01278796  0.62845119  1
  In  In62  1  0.50441717  0.32462232  0.13434163  1
  In  In63  1  0.50341373  0.34389911  0.62270003  1
  In  In64  1  0.50622018  0.67948694  0.12365910  1
  In  In65  1  0.50220895  0.68444247  0.62615402  1
  In  In66  1  0.83260463  0.00686722  0.12442482  1
  In  In67  1  0.83974240  0.01028029  0.62100090  1
  In  In68  1  0.83520430  0.31867400  0.13248981  1
  In  In69  1  0.84163846  0.32441241  0.62893182  1
  In  In70  1  0.82013570  0.66814311  0.12733787  1
  In  In71  1  0.82327245  0.67741969  0.63317438  1
  In  In72  1  0.33455482  0.32576677  0.75230715  1
  In  In73  1  0.33698581  0.66597859  0.25223813  1
  In  In74  1  0.16383872  0.50538239  0.50276969  1
  In  In75  1  0.49907668  0.50008992  -0.00868614  1
  In  In76  1  -0.00337041  0.66433139  0.25495743  1
  In  In77  1  0.33553397  0.67001396  0.74638139  1
  In  In78  1  0.66478968  0.00408826  0.75440063  1
  In  In79  1  0.50006713  0.16179795  0.00226444  1
  In  In80  1  0.83351542  0.50404340  0.50281917  1
  In  In81  1  0.33504466  0.00519223  0.24894311  1
  In  In82  1  0.49769913  0.50797628  0.49844712  1
  In  In83  1  0.16073414  0.16566158  0.50099094  1
  In  In84  1  0.83814030  0.49704802  0.00784769  1
  In  In85  1  0.50068945  0.16202558  0.49134499  1
  Cu  Cu86  1  0.83698798  0.16669804  0.75178746  1
  Cu  Cu87  1  0.51292614  0.83666098  0.24626125  1
  Cu  Cu88  1  0.83086564  0.83801757  0.75364925  1
  Cu  Cu89  1  0.16195829  0.16563985  0.75560831  1
  Cu  Cu90  1  0.16283703  0.17114153  0.24403214  1
  Cu  Cu91  1  0.33606212  -0.00550125  0.50570183  1
  Cu  Cu92  1  -0.00733224  0.31963870  0.49717173  1
  Cu  Cu93  1  0.16437445  0.49245260  0.24101868  1
  Cu  Cu94  1  0.49664038  0.49915404  0.24941457  1
  Cu  Cu95  1  0.49828701  0.83570766  0.75122085  1
  Cu  Cu96  1  0.82763903  0.49821931  0.24626509  1
  Cu  Cu97  1  0.16072617  0.83896118  0.75786276  1
  Cu  Cu98  1  0.67044002  0.32282805  0.49222948  1
  Cu  Cu99  1  -0.00072379  0.67595306  0.50610674  1
  Cu  Cu100  1  -0.00052673  0.67368539  -0.00671420  1
  Cu  Cu101  1  -0.00236585  -0.00159058  0.49805526  1
  Cu  Cu102  1  0.51405292  0.49554322  0.75107464  1
  Cu  Cu103  1  0.67082950  0.66657658  0.00031792  1
  Cu  Cu104  1  0.16789093  0.83952910  0.24563168  1
  Cu  Cu105  1  0.50390141  0.16694191  0.24461919  1
  Cu  Cu106  1  0.83254671  0.83761377  0.24890869  1
  Cu  Cu107  1  -0.00336619  0.00272859  -0.00117938  1
  Cu  Cu108  1  0.32947511  0.33130865  -0.00066759  1
  Cu  Cu109  1  0.16282143  0.50096282  0.75487788  1
  Cu  Cu110  1  0.66731310  0.67570217  0.49939865  1
  Cu  Cu111  1  0.32969543  0.66512471  -0.00259432  1
  Cu  Cu112  1  0.83579930  0.49668861  0.75293679  1
  Cu  Cu113  1  0.00061952  0.32737450  0.00318179  1
  Cu  Cu114  1  0.67474302  -0.00635107  0.49861064  1
  Se  Se115  1  0.07922869  0.08462820  0.05465011  1
  Se  Se116  1  0.07749803  0.07415832  0.56371463  1
  Se  Se117  1  0.08587888  0.41656330  0.04921643  1
  Se  Se118  1  0.07228939  0.40423473  0.55568330  1
  Se  Se119  1  0.08120894  0.75679657  0.05076393  1
  Se  Se120  1  0.08358929  0.75598820  0.55991937  1
  Se  Se121  1  0.40607582  0.07148908  0.05858440  1
  Se  Se122  1  0.41368887  0.08069851  0.56205404  1
  Se  Se123  1  0.41617837  0.40837025  0.05759821  1
  Se  Se124  1  0.40549370  0.40947009  0.55099100  1
  Se  Se125  1  0.41662376  0.74343936  0.05090638  1
  Se  Se126  1  0.41623347  0.74612066  0.55261820  1
  Se  Se127  1  0.74118691  0.07419760  0.05205198  1
  Se  Se128  1  0.75489733  0.08389350  0.54727495  1
  Se  Se129  1  0.74495269  0.40762381  0.06258934  1
  Se  Se130  1  0.74430694  0.40550037  0.55610404  1
  Se  Se131  1  0.75437978  0.75150344  0.05162859  1
  Se  Se132  1  0.75290777  0.75442030  0.55445588  1
  Se  Se133  1  0.24874539  0.24457005  0.05087658  1
  Se  Se134  1  0.25680564  0.26109236  0.55310049  1
  Se  Se135  1  0.24487652  0.58223571  0.04853579  1
  Se  Se136  1  0.25596496  0.59700974  0.55943871  1
  Se  Se137  1  0.24412907  0.91407361  0.04629911  1
  Se  Se138  1  0.24818371  0.91839293  0.56013624  1
  Se  Se139  1  0.58960928  0.25240567  0.06090516  1
  Se  Se140  1  0.58835855  0.25027996  0.55655865  1
  Se  Se141  1  0.59069267  0.58264819  0.05791602  1
  Se  Se142  1  0.59430482  0.58894183  0.56052942  1
  Se  Se143  1  0.56842994  0.89807387  0.05109560  1
  Se  Se144  1  0.58491332  0.91699727  0.55142820  1
  Se  Se145  1  0.91430819  0.24712619  0.05581085  1
  Se  Se146  1  0.91391049  0.23910320  0.55566207  1
  Se  Se147  1  0.92720801  0.59609239  0.06257734  1
  Se  Se148  1  0.92441608  0.58928615  0.56532016  1
  Se  Se149  1  0.91467749  0.92021719  0.05489589  1
  Se  Se150  1  0.91644320  0.91712830  0.55630182  1
  Se  Se151  1  0.07169862  0.24409798  0.43402056  1
  Se  Se152  1  0.08454263  0.24414654  0.94934361  1
  Se  Se153  1  0.07089903  0.59408993  0.44100973  1
  Se  Se154  1  0.08162433  0.58448565  0.94512711  1
  Se  Se155  1  0.08626123  0.91483861  0.45015810  1
  Se  Se156  1  0.07747565  0.91732966  0.94416931  1
  Se  Se157  1  0.40570245  0.25761668  0.44124516  1
  Se  Se158  1  0.41018390  0.25328683  0.93842304  1
  Se  Se159  1  0.40255027  0.59768992  0.44184542  1
  Se  Se160  1  0.40974527  0.59253992  0.93208417  1
  Se  Se161  1  0.42285958  0.91620536  0.45143376  1
  Se  Se162  1  0.43081366  0.91026951  0.95007663  1
  Se  Se163  1  0.75425503  0.24134779  0.44004417  1
  Se  Se164  1  0.75604856  0.24972410  0.95458485  1
  Se  Se165  1  0.74083538  0.58866465  0.43937856  1
  Se  Se166  1  0.75146986  0.58460719  0.94151353  1
  Se  Se167  1  0.75604877  0.91247234  0.44141468  1
  Se  Se168  1  0.74217883  0.92810501  0.95831866  1
  Se  Se169  1  0.25765382  0.07378454  0.44347263  1
  Se  Se170  1  0.24950385  0.07515018  0.95198258  1
  Se  Se171  1  0.24502836  0.41215463  0.43854886  1
  Se  Se172  1  0.24676609  0.41964088  0.95016522  1
  Se  Se173  1  0.24047792  0.75594958  0.45280220  1
  Se  Se174  1  0.24567964  0.75257809  0.94813193  1
  Se  Se175  1  0.59775934  0.07550218  0.43516384  1
  Se  Se176  1  0.59013654  0.07693853  0.93965397  1
  Se  Se177  1  0.58687562  0.40887908  0.44111836  1
  Se  Se178  1  0.59741942  0.40536144  0.94661618  1
  Se  Se179  1  0.58435632  0.75560289  0.44312457  1
  Se  Se180  1  0.58556103  0.74644582  0.94625424  1
  Se  Se181  1  0.91950176  0.08106280  0.43944730  1
  Se  Se182  1  0.91372665  0.08911313  0.94829131  1
  Se  Se183  1  0.91571785  0.40864793  0.44129201  1
  Se  Se184  1  0.92271037  0.41058269  0.94145995  1
  Se  Se185  1  0.91112669  0.75427094  0.45362224  1
  Se  Se186  1  0.91072412  0.75509356  0.94485165  1
  Se  Se187  1  0.24719043  0.25295924  0.29793718  1
  Se  Se188  1  0.24393543  0.24437451  0.81704793  1
  Se  Se189  1  0.23800706  0.57408429  0.30567321  1
  Se  Se190  1  0.24586197  0.58224962  0.81044629  1
  Se  Se191  1  0.25187699  0.90988942  0.31115647  1
  Se  Se192  1  0.24768703  0.92181800  0.80813495  1
  Se  Se193  1  0.58568511  0.24938182  0.30143599  1
  Se  Se194  1  0.59347376  0.24357409  0.80162660  1
  Se  Se195  1  0.57730108  0.58798837  0.30016312  1
  Se  Se196  1  0.59258725  0.58499800  0.80176576  1
  Se  Se197  1  0.59175099  0.92346054  0.29968255  1
  Se  Se198  1  0.58008353  0.91027865  0.81477675  1
  Se  Se199  1  0.93961448  0.27237555  0.30446541  1
  Se  Se200  1  0.91962212  0.25210979  0.80513078  1
  Se  Se201  1  0.90475700  0.57276982  0.31424365  1
  Se  Se202  1  0.91787691  0.58500246  0.80255078  1
  Se  Se203  1  0.92128985  0.91297015  0.30421061  1
  Se  Se204  1  0.91220269  0.92307971  0.80601899  1
  Se  Se205  1  0.08974627  0.07968621  0.29849954  1
  Se  Se206  1  0.07718401  0.08143165  0.80652005  1
  Se  Se207  1  0.07769370  0.41430667  0.29509734  1
  Se  Se208  1  0.08187712  0.41401043  0.80622112  1
  Se  Se209  1  0.08872040  0.76006303  0.30813009  1
  Se  Se210  1  0.07551551  0.75080966  0.80316203  1
  Se  Se211  1  0.42652924  0.09199332  0.31250236  1
  Se  Se212  1  0.42269808  0.09007112  0.79958137  1
  Se  Se213  1  0.41231481  0.41595165  0.30176018  1
  Se  Se214  1  0.43047605  0.41834380  0.80979312  1
  Se  Se215  1  0.42468626  0.76389358  0.30745356  1
  Se  Se216  1  0.41355513  0.76107120  0.81311840  1
  Se  Se217  1  0.77567305  0.09235773  0.29407241  1
  Se  Se218  1  0.76003315  0.08654505  0.81442866  1
  Se  Se219  1  0.74454098  0.41603029  0.30190653  1
  Se  Se220  1  0.75243358  0.41289815  0.80576329  1
  Se  Se221  1  0.75033292  0.75078576  0.30065266  1
  Se  Se222  1  0.74599462  0.75601461  0.80688941  1
  Se  Se223  1  0.24443136  0.08820572  0.18537847  1
  Se  Se224  1  0.24954174  0.08562120  0.70270476  1
  Se  Se225  1  0.25053242  0.41022885  0.19079527  1
  Se  Se226  1  0.24481399  0.42375472  0.69267195  1
  Se  Se227  1  0.25144622  0.75915657  0.18948861  1
  Se  Se228  1  0.24156844  0.76246255  0.69291436  1
  Se  Se229  1  0.58494737  0.07965649  0.19480643  1
  Se  Se230  1  0.57746269  0.09198217  0.68987469  1
  Se  Se231  1  0.58287398  0.41542991  0.19928713  1
  Se  Se232  1  0.59125366  0.40861530  0.69643846  1
  Se  Se233  1  0.59309293  0.75037599  0.19411614  1
  Se  Se234  1  0.58590044  0.75309643  0.70080004  1
  Se  Se235  1  0.90620592  0.08782142  0.20080471  1
  Se  Se236  1  0.91807605  0.08012518  0.69921881  1
  Se  Se237  1  0.91307827  0.41913741  0.19275279  1
  Se  Se238  1  0.91747667  0.41278333  0.69765291  1
  Se  Se239  1  0.91536565  0.75590574  0.18976574  1
  Se  Se240  1  0.91443045  0.75476227  0.69846234  1
  Se  Se241  1  0.07875135  0.25037850  0.18868310  1
  Se  Se242  1  0.08198078  0.25272021  0.70209505  1
  Se  Se243  1  0.08909895  0.58465844  0.18750928  1
  Se  Se244  1  0.07998584  0.58563331  0.70248534  1
  Se  Se245  1  0.08251765  0.92411852  0.19726864  1
  Se  Se246  1  0.07697330  0.92142781  0.70271175  1
  Se  Se247  1  0.41194893  0.25033323  0.20128768  1
  Se  Se248  1  0.42482486  0.24502755  0.68697597  1
  Se  Se249  1  0.41992804  0.57743865  0.18456817  1
  Se  Se250  1  0.43085854  0.57428368  0.69167469  1
  Se  Se251  1  0.42256131  0.91174398  0.18956144  1
  Se  Se252  1  0.41430054  0.91813956  0.69805232  1
  Se  Se253  1  0.74315759  0.25081197  0.20138732  1
  Se  Se254  1  0.75194152  0.24660165  0.69629625  1
  Se  Se255  1  0.74496808  0.58942376  0.20177469  1
  Se  Se256  1  0.75261350  0.58253636  0.70005393  1
  Se  Se257  1  0.75065512  0.91719130  0.19181045  1
  Se  Se258  1  0.75193488  0.91650057  0.68937980  1
