# generated using pymatgen
data_In86Cu29Se144
_symmetry_space_group_name_H-M   'P 1'
_cell_length_a   17.57969905
_cell_length_b   17.58026086
_cell_length_c   23.44147606
_cell_angle_alpha   90.01474268
_cell_angle_beta   89.99255635
_cell_angle_gamma   89.96860989
_symmetry_Int_Tables_number   1
_chemical_formula_structural   In86Cu29Se144
_chemical_formula_sum   'In86 Cu29 Se144'
_cell_volume   7244.72029023
_cell_formula_units_Z   1
loop_
 _symmetry_equiv_pos_site_id
 _symmetry_equiv_pos_as_xyz
  1  'x, y, z'
loop_
 _atom_site_type_symbol
 _atom_site_label
 _atom_site_symmetry_multiplicity
 _atom_site_fract_x
 _atom_site_fract_y
 _atom_site_fract_z
 _atom_site_occupancy
  In  In0  1  -0.02590416  0.13791535  0.09984058  1
  In  In1  1  0.01526961  0.16553465  0.62397535  1
  In  In2  1  -0.01496211  0.51177824  0.12302174  1
  In  In3  1  -0.01179119  0.50641036  0.63481223  1
  In  In4  1  -0.00225643  0.84057947  0.11628467  1
  In  In5  1  -0.00646329  0.82304449  0.62287312  1
  In  In6  1  0.32092029  0.17039148  0.12392990  1
  In  In7  1  0.34264339  0.17241157  0.61252719  1
  In  In8  1  0.35398029  0.50417696  0.13124247  1
  In  In9  1  0.33470846  0.48800363  0.62585440  1
  In  In10  1  0.32866429  0.82904595  0.12357725  1
  In  In11  1  0.33971018  0.83703487  0.62160470  1
  In  In12  1  0.67990230  0.16175383  0.13478102  1
  In  In13  1  0.66979899  0.18328948  0.61938534  1
  In  In14  1  0.66667241  0.49615411  0.13640284  1
  In  In15  1  0.66750769  0.49800214  0.61825682  1
  In  In16  1  0.66876400  0.83273845  0.12225038  1
  In  In17  1  0.65275546  0.81737925  0.62011565  1
  In  In18  1  0.15190633  0.00228484  0.38073611  1
  In  In19  1  0.16069289  -0.00006321  0.88771788  1
  In  In20  1  0.15644602  0.32510773  0.38195251  1
  In  In21  1  0.16334236  0.32655209  0.86494051  1
  In  In22  1  0.18348708  0.66664493  0.37242056  1
  In  In23  1  0.16246874  0.68364366  0.87504569  1
  In  In24  1  0.50913969  -0.01075304  0.37998414  1
  In  In25  1  0.49247868  -0.01079616  0.87732544  1
  In  In26  1  0.51571578  0.33290202  0.39259355  1
  In  In27  1  0.50938701  0.34215912  0.85822042  1
  In  In28  1  0.50969652  0.67117260  0.38351128  1
  In  In29  1  0.51033746  0.67278346  0.87307295  1
  In  In30  1  0.83260126  -0.00098297  0.36196281  1
  In  In31  1  0.84625013  -0.00545050  0.89264162  1
  In  In32  1  0.82353469  0.35128502  0.38489866  1
  In  In33  1  0.83149053  0.33536872  0.87603360  1
  In  In34  1  0.79302492  0.66057429  0.37784251  1
  In  In35  1  0.82609261  0.65934874  0.87659606  1
  In  In36  1  0.00529790  0.16286787  0.37788241  1
  In  In37  1  -0.00699211  0.17419526  0.88375294  1
  In  In38  1  -0.00663236  0.49224254  0.37837841  1
  In  In39  1  -0.01289365  0.48930285  0.86686370  1
  In  In40  1  -0.00643670  0.84454265  0.37601525  1
  In  In41  1  0.00559580  0.82900507  0.87969845  1
  In  In42  1  0.32767645  0.17238009  0.37987111  1
  In  In43  1  0.32680691  0.16163453  0.87151886  1
  In  In44  1  0.34270650  0.51893337  0.36914123  1
  In  In45  1  0.34749559  0.49575095  0.86772689  1
  In  In46  1  0.34127942  0.82225900  0.38008047  1
  In  In47  1  0.32938011  0.82881603  0.88604351  1
  In  In48  1  0.66828117  0.16507993  0.37309534  1
  In  In49  1  0.67080838  0.17964008  0.87267129  1
  In  In50  1  0.66881628  0.50323351  0.38306315  1
  In  In51  1  0.67796424  0.51188414  0.86897557  1
  In  In52  1  0.65222148  0.82098077  0.36255455  1
  In  In53  1  0.67242716  0.81872046  0.88537508  1
  In  In54  1  0.15016111  -0.01048074  0.11474775  1
  In  In55  1  0.16539367  0.00284694  0.61299536  1
  In  In56  1  0.16451254  0.31239355  0.12152967  1
  In  In57  1  0.17748697  0.32459564  0.63126511  1
  In  In58  1  0.16464703  0.68196479  0.12696561  1
  In  In59  1  0.15224191  0.66756976  0.62533592  1
  In  In60  1  0.51768662  -0.00038081  0.13077821  1
  In  In61  1  0.49681399  -0.00520188  0.61442962  1
  In  In62  1  0.51780747  0.34515310  0.12868751  1
  In  In63  1  0.50280310  0.33342583  0.61664064  1
  In  In64  1  0.49332364  0.66803724  0.13661614  1
  In  In65  1  0.52185712  0.66953036  0.60635631  1
  In  In66  1  0.82975094  -0.00193619  0.12250669  1
  In  In67  1  0.83610646  -0.01084533  0.62763706  1
  In  In68  1  0.82775036  0.32806662  0.12088851  1
  In  In69  1  0.81771521  0.34780731  0.63856109  1
  In  In70  1  0.81371240  0.65569022  0.10463617  1
  In  In71  1  0.83376834  0.65883575  0.62824864  1
  In  In72  1  0.66643225  0.00387968  0.75709612  1
  In  In73  1  0.49871080  0.16121901  -0.00005465  1
  In  In74  1  -0.00289920  0.32772208  0.25750363  1
  In  In75  1  0.00038235  0.00020535  0.75802770  1
  In  In76  1  0.50830990  0.50648823  -0.00031979  1
  In  In77  1  -0.00633259  0.67250804  0.24667356  1
  In  In78  1  0.33457504  0.66220900  0.75241331  1
  In  In79  1  0.16793557  0.49849088  0.50053774  1
  In  In80  1  0.34096858  0.33523472  0.25507129  1
  In  In81  1  0.16107448  0.49949154  0.00010230  1
  In  In82  1  0.33603514  -0.00082632  0.74326431  1
  In  In83  1  0.83270587  0.83080755  0.49946999  1
  In  In84  1  0.83499840  0.17024607  0.49635818  1
  In  In85  1  0.33633765  0.00046857  0.26121824  1
  Cu  Cu86  1  0.17801283  0.49886856  0.24565901  1
  Cu  Cu87  1  0.50528186  0.83371885  0.25361010  1
  Cu  Cu88  1  0.67019533  -0.00118156  0.49545174  1
  Cu  Cu89  1  0.50226182  0.49627948  0.74009845  1
  Cu  Cu90  1  0.82718417  0.50460571  0.25285494  1
  Cu  Cu91  1  0.50167137  0.17295995  0.73802706  1
  Cu  Cu92  1  0.82806845  0.49925263  0.75135769  1
  Cu  Cu93  1  0.83176868  0.83891417  0.24130302  1
  Cu  Cu94  1  0.83142349  0.17042751  0.24551427  1
  Cu  Cu95  1  -0.00145423  0.67162673  0.50073997  1
  Cu  Cu96  1  -0.00138925  0.33668143  -0.00671173  1
  Cu  Cu97  1  0.67457690  0.33340171  0.00085457  1
  Cu  Cu98  1  -0.00752121  0.66817990  -0.00341276  1
  Cu  Cu99  1  0.16062144  0.50068356  0.74602605  1
  Cu  Cu100  1  0.17093203  0.17536606  0.74907611  1
  Cu  Cu101  1  0.15616938  0.15566483  0.24838103  1
  Cu  Cu102  1  0.33038450  0.67001617  0.00582676  1
  Cu  Cu103  1  0.50792447  0.17787630  0.25522782  1
  Cu  Cu104  1  0.82394685  0.82128154  0.75189941  1
  Cu  Cu105  1  0.16716497  0.83579158  0.24466330  1
  Cu  Cu106  1  0.32945175  -0.00181494  0.49330524  1
  Cu  Cu107  1  0.33536069  0.67339852  0.50022425  1
  Cu  Cu108  1  0.33228043  0.33274432  0.50001551  1
  Cu  Cu109  1  0.83898906  0.17399267  0.75435217  1
  Cu  Cu110  1  0.66731199  -0.00080503  0.00533358  1
  Cu  Cu111  1  0.16473759  0.83707616  0.75323664  1
  Cu  Cu112  1  0.33762376  0.33036972  -0.00733076  1
  Cu  Cu113  1  0.33111744  -0.00595507  0.00229271  1
  Cu  Cu114  1  0.00169166  0.32908365  0.50962246  1
  Se  Se115  1  0.10858532  0.11089816  0.06220181  1
  Se  Se116  1  0.07765349  0.08189810  0.54819395  1
  Se  Se117  1  0.07291144  0.40955505  0.06398490  1
  Se  Se118  1  0.08126470  0.41444756  0.56702624  1
  Se  Se119  1  0.07787179  0.74589268  0.05289196  1
  Se  Se120  1  0.08413102  0.75386900  0.55119888  1
  Se  Se121  1  0.40997168  0.07364212  0.06483056  1
  Se  Se122  1  0.41623043  0.07944725  0.54696336  1
  Se  Se123  1  0.41606660  0.40780678  0.05529921  1
  Se  Se124  1  0.41482217  0.41831335  0.55018491  1
  Se  Se125  1  0.41831254  0.74665374  0.06004734  1
  Se  Se126  1  0.42166942  0.75350365  0.55343671  1
  Se  Se127  1  0.74848333  0.08829172  0.05435688  1
  Se  Se128  1  0.74881723  0.07392503  0.55976428  1
  Se  Se129  1  0.74604057  0.42134371  0.05971038  1
  Se  Se130  1  0.75868134  0.41634968  0.55398041  1
  Se  Se131  1  0.76550549  0.77281026  0.05100823  1
  Se  Se132  1  0.74451442  0.73512734  0.55366757  1
  Se  Se133  1  0.25309176  0.24974405  0.04562042  1
  Se  Se134  1  0.24512582  0.24972691  0.55027932  1
  Se  Se135  1  0.25575136  0.58222304  0.06427450  1
  Se  Se136  1  0.25591100  0.59164555  0.56133957  1
  Se  Se137  1  0.24633988  0.91083682  0.05464243  1
  Se  Se138  1  0.25311648  0.91503782  0.55324760  1
  Se  Se139  1  0.59070882  0.25227873  0.05845718  1
  Se  Se140  1  0.57422898  0.23924418  0.54925260  1
  Se  Se141  1  0.58932146  0.59170361  0.06627157  1
  Se  Se142  1  0.57613451  0.56213801  0.54262580  1
  Se  Se143  1  0.58028264  0.91622576  0.05393386  1
  Se  Se144  1  0.58912875  0.91467109  0.55163233  1
  Se  Se145  1  0.91501149  0.25567988  0.04993973  1
  Se  Se146  1  0.91547993  0.25360742  0.56828806  1
  Se  Se147  1  0.91044391  0.57772556  0.04320543  1
  Se  Se148  1  0.92120954  0.58540876  0.55596237  1
  Se  Se149  1  0.92651970  0.93624065  0.05195679  1
  Se  Se150  1  0.92719339  0.92490200  0.55356908  1
  Se  Se151  1  0.07937973  0.24451019  0.45318623  1
  Se  Se152  1  0.08837491  0.25628754  0.94422420  1
  Se  Se153  1  0.07906005  0.59061560  0.43874209  1
  Se  Se154  1  0.07508903  0.58732206  0.93639683  1
  Se  Se155  1  0.08770882  0.90322134  0.44664322  1
  Se  Se156  1  0.07921030  0.91429512  0.95031843  1
  Se  Se157  1  0.41611955  0.24915874  0.44708844  1
  Se  Se158  1  0.42216611  0.25615490  0.93277946  1
  Se  Se159  1  0.41703372  0.58870212  0.44764635  1
  Se  Se160  1  0.40725611  0.59158365  0.94212488  1
  Se  Se161  1  0.41800691  0.91395356  0.44591564  1
  Se  Se162  1  0.41682420  0.91130768  0.95142332  1
  Se  Se163  1  0.73633146  0.26136366  0.44818613  1
  Se  Se164  1  0.75474882  0.24718740  0.94759269  1
  Se  Se165  1  0.77586388  0.55633406  0.45190210  1
  Se  Se166  1  0.74056322  0.58628983  0.94928929  1
  Se  Se167  1  0.74658485  0.91796984  0.43403832  1
  Se  Se168  1  0.74743105  0.91567439  0.94891900  1
  Se  Se169  1  0.24510252  0.08348902  0.44286883  1
  Se  Se170  1  0.25587288  0.08220067  0.94701108  1
  Se  Se171  1  0.25724475  0.41377620  0.43470341  1
  Se  Se172  1  0.25712129  0.41563013  0.93781599  1
  Se  Se173  1  0.24628847  0.75190671  0.44879677  1
  Se  Se174  1  0.24237677  0.74961007  0.95373058  1
  Se  Se175  1  0.58674776  0.08327249  0.44356378  1
  Se  Se176  1  0.59172655  0.07597191  0.93754151  1
  Se  Se177  1  0.57310691  0.44009177  0.45568589  1
  Se  Se178  1  0.59114499  0.40922914  0.93933023  1
  Se  Se179  1  0.58884320  0.76149120  0.44966148  1
  Se  Se180  1  0.57440729  0.75082100  0.95124558  1
  Se  Se181  1  0.91779724  0.07078887  0.44068625  1
  Se  Se182  1  0.92977172  0.08104399  0.95423271  1
  Se  Se183  1  0.92242187  0.41297514  0.45406149  1
  Se  Se184  1  0.91134537  0.42105029  0.94653622  1
  Se  Se185  1  0.91435713  0.73767429  0.43296278  1
  Se  Se186  1  0.91064019  0.74995631  0.94094824  1
  Se  Se187  1  0.23548233  0.24361970  0.30359474  1
  Se  Se188  1  0.26102711  0.25330360  0.80047633  1
  Se  Se189  1  0.25630518  0.58824617  0.29580375  1
  Se  Se190  1  0.23865117  0.57619505  0.81280642  1
  Se  Se191  1  0.24305533  0.90784310  0.31401716  1
  Se  Se192  1  0.24620855  0.91631493  0.81145879  1
  Se  Se193  1  0.58721589  0.25998199  0.31136316  1
  Se  Se194  1  0.58826043  0.24755357  0.79653249  1
  Se  Se195  1  0.61307679  0.60925921  0.31818103  1
  Se  Se196  1  0.57430949  0.57594012  0.80500633  1
  Se  Se197  1  0.58769761  0.92526334  0.29925030  1
  Se  Se198  1  0.58126271  0.90689006  0.81188341  1
  Se  Se199  1  0.90137624  0.24474464  0.31845180  1
  Se  Se200  1  0.92196401  0.25547408  0.80832191  1
  Se  Se201  1  0.91017980  0.58255858  0.31240778  1
  Se  Se202  1  0.91190710  0.58458974  0.80351959  1
  Se  Se203  1  0.91920823  0.91549461  0.29639780  1
  Se  Se204  1  0.90422018  0.90654216  0.80895981  1
  Se  Se205  1  0.07322002  0.07613265  0.30366038  1
  Se  Se206  1  0.09405925  0.09365467  0.81134137  1
  Se  Se207  1  0.09538716  0.42509900  0.30766233  1
  Se  Se208  1  0.08104572  0.41519811  0.80149632  1
  Se  Se209  1  0.08930720  0.75395720  0.30829983  1
  Se  Se210  1  0.07769045  0.75207702  0.80039781  1
  Se  Se211  1  0.42737340  0.09654923  0.31404057  1
  Se  Se212  1  0.42982181  0.09019097  0.80335342  1
  Se  Se213  1  0.42998313  0.41902717  0.31698392  1
  Se  Se214  1  0.41476443  0.41379369  0.79138986  1
  Se  Se215  1  0.42508948  0.74842609  0.30821465  1
  Se  Se216  1  0.41740625  0.76043965  0.80910842  1
  Se  Se217  1  0.74782674  0.08659603  0.29971210  1
  Se  Se218  1  0.76700480  0.08589061  0.81511749  1
  Se  Se219  1  0.74613864  0.42031585  0.30707761  1
  Se  Se220  1  0.74641705  0.41277975  0.80455518  1
  Se  Se221  1  0.75438035  0.75437132  0.29880748  1
  Se  Se222  1  0.74047341  0.74091079  0.80601302  1
  Se  Se223  1  0.24512819  0.07921653  0.19332565  1
  Se  Se224  1  0.24492348  0.09090005  0.68668650  1
  Se  Se225  1  0.24767993  0.41262286  0.18481427  1
  Se  Se226  1  0.24959924  0.41807716  0.69888471  1
  Se  Se227  1  0.25399565  0.74914999  0.19932524  1
  Se  Se228  1  0.24487560  0.75683537  0.69193881  1
  Se  Se229  1  0.58545525  0.08956248  0.20124476  1
  Se  Se230  1  0.58119834  0.08437751  0.68484825  1
  Se  Se231  1  0.57292827  0.42954674  0.20590038  1
  Se  Se232  1  0.58593879  0.41261123  0.68796504  1
  Se  Se233  1  0.58629545  0.75405862  0.19491013  1
  Se  Se234  1  0.58237691  0.73564154  0.69349504  1
  Se  Se235  1  0.91290357  0.08551990  0.19194665  1
  Se  Se236  1  0.91114850  0.08845158  0.69317146  1
  Se  Se237  1  0.91141947  0.42303160  0.19658942  1
  Se  Se238  1  0.91763043  0.41406680  0.70359571  1
  Se  Se239  1  0.90592666  0.75312712  0.18057782  1
  Se  Se240  1  0.91363698  0.74799616  0.69585351  1
  Se  Se241  1  0.07434033  0.23686867  0.19057339  1
  Se  Se242  1  0.08093797  0.25324946  0.69799561  1
  Se  Se243  1  0.08893229  0.57651862  0.19045553  1
  Se  Se244  1  0.07762842  0.58929958  0.69962778  1
  Se  Se245  1  0.07890022  0.91424302  0.19354175  1
  Se  Se246  1  0.08654729  0.91556705  0.68988279  1
  Se  Se247  1  0.42484467  0.24411349  0.18829908  1
  Se  Se248  1  0.41439185  0.25367883  0.68748388  1
  Se  Se249  1  0.42770825  0.57469273  0.20759303  1
  Se  Se250  1  0.42251805  0.58316890  0.68437274  1
  Se  Se251  1  0.42136176  0.91385605  0.19435079  1
  Se  Se252  1  0.43345357  0.90613730  0.69510783  1
  Se  Se253  1  0.74813844  0.26128330  0.19998662  1
  Se  Se254  1  0.74686273  0.24706061  0.70102937  1
  Se  Se255  1  0.75404909  0.59098116  0.19380388  1
  Se  Se256  1  0.74523451  0.57867157  0.69346275  1
  Se  Se257  1  0.74360765  0.92287668  0.19337045  1
  Se  Se258  1  0.74770587  0.90603965  0.69265258  1
