# generated using pymatgen
data_In86Cu29Se144
_symmetry_space_group_name_H-M   'P 1'
_cell_length_a   17.65172445
_cell_length_b   17.65367826
_cell_length_c   23.51171125
_cell_angle_alpha   89.99398056
_cell_angle_beta   90.01361315
_cell_angle_gamma   89.99622597
_symmetry_Int_Tables_number   1
_chemical_formula_structural   In86Cu29Se144
_chemical_formula_sum   'In86 Cu29 Se144'
_cell_volume   7326.66898291
_cell_formula_units_Z   1
loop_
 _symmetry_equiv_pos_site_id
 _symmetry_equiv_pos_as_xyz
  1  'x, y, z'
loop_
 _atom_site_type_symbol
 _atom_site_label
 _atom_site_symmetry_multiplicity
 _atom_site_fract_x
 _atom_site_fract_y
 _atom_site_fract_z
 _atom_site_occupancy
  In  In0  1  0.01285286  0.15701343  0.13950648  1
  In  In1  1  -0.00295271  0.16179935  0.62641599  1
  In  In2  1  -0.00406891  0.50534329  0.13454311  1
  In  In3  1  -0.01706740  0.50164346  0.62185857  1
  In  In4  1  0.00763405  0.82684428  0.13530536  1
  In  In5  1  0.01309227  0.83429082  0.61660743  1
  In  In6  1  0.32269868  0.16598657  0.12306488  1
  In  In7  1  0.32036402  0.15969612  0.62207182  1
  In  In8  1  0.34451884  0.50241760  0.12835927  1
  In  In9  1  0.34420814  0.50616349  0.63025242  1
  In  In10  1  0.32104157  0.85050661  0.14330651  1
  In  In11  1  0.33155134  0.84153204  0.62863178  1
  In  In12  1  0.67539861  0.16806034  0.13366763  1
  In  In13  1  0.67902389  0.16798262  0.60336221  1
  In  In14  1  0.66991586  0.49884965  0.13860950  1
  In  In15  1  0.67843608  0.49176377  0.62267409  1
  In  In16  1  0.65899876  0.83051334  0.13247127  1
  In  In17  1  0.65031452  0.82486787  0.60077297  1
  In  In18  1  0.16784927  0.00009714  0.37221367  1
  In  In19  1  0.16629920  0.00104327  0.87781547  1
  In  In20  1  0.15086752  0.33027099  0.37324792  1
  In  In21  1  0.14840473  0.32664880  0.87087031  1
  In  In22  1  0.17518522  0.68056935  0.36640965  1
  In  In23  1  0.17869644  0.66740800  0.87375668  1
  In  In24  1  0.49777174  -0.00100071  0.38457433  1
  In  In25  1  0.48153447  -0.00443454  0.86629601  1
  In  In26  1  0.50516162  0.31598919  0.38217393  1
  In  In27  1  0.50269364  0.31790573  0.86382854  1
  In  In28  1  0.52395546  0.68785370  0.37479138  1
  In  In29  1  0.50155934  0.66831897  0.86595232  1
  In  In30  1  0.83783362  -0.01815587  0.39411890  1
  In  In31  1  0.83663805  -0.00555866  0.86564387  1
  In  In32  1  0.82836350  0.33027173  0.38681063  1
  In  In33  1  0.82781480  0.33058251  0.86238124  1
  In  In34  1  0.83250621  0.66777074  0.37612896  1
  In  In35  1  0.82855049  0.67328857  0.86743423  1
  In  In36  1  -0.00061889  0.16267133  0.37713653  1
  In  In37  1  0.00280501  0.17219453  0.86870132  1
  In  In38  1  -0.01366316  0.49264566  0.37034089  1
  In  In39  1  0.00879428  0.48781121  0.87204588  1
  In  In40  1  0.00012309  0.84045707  0.36854940  1
  In  In41  1  -0.00041476  0.85010650  0.87114050  1
  In  In42  1  0.34518227  0.14896057  0.38100273  1
  In  In43  1  0.31634000  0.12732240  0.84951415  1
  In  In44  1  0.32753353  0.50661640  0.37251925  1
  In  In45  1  0.32926356  0.51473495  0.86841296  1
  In  In46  1  0.33353446  0.83405572  0.37702033  1
  In  In47  1  0.32592971  0.83034783  0.87309902  1
  In  In48  1  0.66062510  0.16792910  0.38956071  1
  In  In49  1  0.65025493  0.17219011  0.86161217  1
  In  In50  1  0.68101689  0.51074544  0.38163545  1
  In  In51  1  0.66364703  0.50011435  0.86464173  1
  In  In52  1  0.69965806  0.80432897  0.42941474  1
  In  In53  1  0.67401137  0.82819861  0.86372650  1
  In  In54  1  0.16935629  0.00101132  0.12435494  1
  In  In55  1  0.16532931  -0.00104304  0.62965641  1
  In  In56  1  0.16337937  0.32129245  0.12482172  1
  In  In57  1  0.16699188  0.31836334  0.62867238  1
  In  In58  1  0.16132233  0.68146985  0.13024393  1
  In  In59  1  0.16890801  0.68020676  0.62665080  1
  In  In60  1  0.49870237  -0.00597825  0.12968193  1
  In  In61  1  0.49527762  -0.00574861  0.61395286  1
  In  In62  1  0.50574396  0.33888886  0.13152741  1
  In  In63  1  0.52000516  0.32843136  0.62226550  1
  In  In64  1  0.49825011  0.67108192  0.13679531  1
  In  In65  1  0.49188065  0.67554737  0.62797852  1
  In  In66  1  0.83585483  0.01026714  0.13422332  1
  In  In67  1  0.84252407  0.00266379  0.61319711  1
  In  In68  1  0.83509831  0.33138720  0.13697499  1
  In  In69  1  0.83024138  0.33328104  0.61538305  1
  In  In70  1  0.83481638  0.66958061  0.14167221  1
  In  In71  1  0.81910713  0.65626173  0.59917258  1
  In  In72  1  0.66938190  0.00445612  0.72673249  1
  In  In73  1  0.33399602  0.33013093  0.24398494  1
  In  In74  1  0.50195559  0.49635804  0.00198477  1
  In  In75  1  0.49251953  0.82594460  -0.00749253  1
  In  In76  1  0.83975710  0.83391207  0.01246361  1
  In  In77  1  0.15840459  0.49961469  0.49858880  1
  In  In78  1  0.50025873  0.50134873  0.50067804  1
  In  In79  1  0.83693754  0.49604832  0.00827611  1
  In  In80  1  0.67266724  -0.00977422  0.27159417  1
  In  In81  1  0.16767247  0.49880575  -0.00280511  1
  In  In82  1  0.49368772  0.16537636  -0.00723359  1
  In  In83  1  0.33907165  0.34121954  0.74511860  1
  In  In84  1  0.83513723  0.16810074  0.00331865  1
  In  In85  1  -0.00472258  0.66394309  0.74241454  1
  Cu  Cu86  1  0.50294983  0.82341275  0.25843179  1
  Cu  Cu87  1  0.16091765  0.50629197  0.25291565  1
  Cu  Cu88  1  0.16519913  0.83641259  0.74936560  1
  Cu  Cu89  1  0.66998563  0.65782814  0.00122798  1
  Cu  Cu90  1  0.00566388  0.67445262  0.49395135  1
  Cu  Cu91  1  0.50689974  0.15804450  0.26096066  1
  Cu  Cu92  1  0.66539703  0.32845153  -0.00105918  1
  Cu  Cu93  1  0.00797662  0.00604537  0.00036764  1
  Cu  Cu94  1  0.83265574  0.49998695  0.25818445  1
  Cu  Cu95  1  0.32694706  0.32631284  -0.00619393  1
  Cu  Cu96  1  0.16706822  0.16760105  0.25257302  1
  Cu  Cu97  1  0.16962850  0.83633763  0.25137829  1
  Cu  Cu98  1  0.50504768  0.49901150  0.25647865  1
  Cu  Cu99  1  0.83001711  0.49860536  0.74001538  1
  Cu  Cu100  1  0.50562477  0.51145790  0.74328862  1
  Cu  Cu101  1  0.01305149  0.00018681  0.49890999  1
  Cu  Cu102  1  0.83102431  0.16619393  0.73797996  1
  Cu  Cu103  1  0.32824800  0.67255361  0.00115441  1
  Cu  Cu104  1  0.00191750  0.32613480  -0.00102824  1
  Cu  Cu105  1  0.32695545  0.32574126  0.50356432  1
  Cu  Cu106  1  0.83081357  0.82596786  0.73889448  1
  Cu  Cu107  1  0.50299753  0.84107307  0.74335065  1
  Cu  Cu108  1  0.00357971  0.67716007  0.00387438  1
  Cu  Cu109  1  0.32096160  -0.00424511  0.50046459  1
  Cu  Cu110  1  0.16087755  0.15986966  0.74814864  1
  Cu  Cu111  1  0.66455319  -0.00520764  -0.00575525  1
  Cu  Cu112  1  0.33411513  0.67395201  0.49965323  1
  Cu  Cu113  1  -0.00167885  0.32309817  0.49863765  1
  Cu  Cu114  1  0.83315193  0.17562555  0.26154030  1
  Se  Se115  1  0.08459264  0.08889251  0.05827796  1
  Se  Se116  1  0.08681485  0.08342103  0.55943532  1
  Se  Se117  1  0.07322882  0.41517743  0.05912364  1
  Se  Se118  1  0.07550008  0.40579298  0.56091602  1
  Se  Se119  1  0.08568748  0.75964040  0.05525001  1
  Se  Se120  1  0.09355683  0.74933154  0.54807944  1
  Se  Se121  1  0.41408085  0.07630881  0.05993484  1
  Se  Se122  1  0.40445835  0.07960884  0.55319970  1
  Se  Se123  1  0.40747705  0.40106746  0.05591180  1
  Se  Se124  1  0.40899646  0.40773510  0.56025779  1
  Se  Se125  1  0.41140228  0.74482054  0.06354636  1
  Se  Se126  1  0.41138911  0.75630490  0.55781146  1
  Se  Se127  1  0.73920582  0.07367135  0.05675211  1
  Se  Se128  1  0.74937391  0.06734499  0.54236771  1
  Se  Se129  1  0.74084946  0.40510748  0.06185910  1
  Se  Se130  1  0.76197059  0.42714116  0.54699095  1
  Se  Se131  1  0.74262417  0.74006785  0.06221966  1
  Se  Se132  1  0.76531726  0.77132958  0.54311659  1
  Se  Se133  1  0.24576379  0.24870638  0.05167603  1
  Se  Se134  1  0.24014815  0.24354053  0.55179704  1
  Se  Se135  1  0.25485433  0.58634907  0.06141877  1
  Se  Se136  1  0.25686250  0.58590360  0.55691614  1
  Se  Se137  1  0.25658176  0.91654270  0.06051905  1
  Se  Se138  1  0.24236179  0.91399653  0.55844769  1
  Se  Se139  1  0.58710739  0.24909316  0.05958211  1
  Se  Se140  1  0.58908052  0.25564433  0.54409026  1
  Se  Se141  1  0.58942545  0.58535284  0.06372001  1
  Se  Se142  1  0.58466205  0.58738123  0.56546928  1
  Se  Se143  1  0.58661272  0.91558224  0.05418265  1
  Se  Se144  1  0.59207895  0.93499305  0.54273107  1
  Se  Se145  1  0.92479838  0.25305640  0.06547717  1
  Se  Se146  1  0.91643644  0.24190721  0.55472681  1
  Se  Se147  1  0.92165027  0.59788553  0.06056231  1
  Se  Se148  1  0.92397125  0.58392030  0.54202132  1
  Se  Se149  1  0.92658301  0.93224164  0.06401761  1
  Se  Se150  1  0.92757207  0.91551856  0.54949270  1
  Se  Se151  1  0.08593904  0.24367690  0.44743683  1
  Se  Se152  1  0.08313481  0.24215189  0.94664032  1
  Se  Se153  1  0.08114446  0.58951846  0.43164416  1
  Se  Se154  1  0.07334634  0.59086759  0.94087827  1
  Se  Se155  1  0.08779723  0.91456498  0.44080479  1
  Se  Se156  1  0.08218058  0.91637475  0.94646316  1
  Se  Se157  1  0.41123167  0.24665800  0.44882719  1
  Se  Se158  1  0.40476784  0.25076097  0.93113566  1
  Se  Se159  1  0.41181365  0.59187350  0.43966291  1
  Se  Se160  1  0.41357608  0.59254228  0.94455945  1
  Se  Se161  1  0.41063243  0.91511557  0.44968544  1
  Se  Se162  1  0.40352648  0.92565441  0.94498299  1
  Se  Se163  1  0.75228456  0.24297470  0.45436515  1
  Se  Se164  1  0.74210099  0.24904241  0.93754903  1
  Se  Se165  1  0.75646667  0.59081551  0.45303585  1
  Se  Se166  1  0.74933057  0.58146931  0.94040811  1
  Se  Se167  1  0.72008371  0.94814916  0.45732804  1
  Se  Se168  1  0.74967602  0.91479389  0.94052722  1
  Se  Se169  1  0.24487903  0.08370302  0.44535225  1
  Se  Se170  1  0.25253888  0.08699081  0.94105603  1
  Se  Se171  1  0.25323983  0.40902623  0.44089258  1
  Se  Se172  1  0.25559224  0.41176494  0.93302196  1
  Se  Se173  1  0.24719713  0.75223430  0.44599709  1
  Se  Se174  1  0.24573244  0.75388911  0.94764203  1
  Se  Se175  1  0.55061889  0.10829038  0.44711330  1
  Se  Se176  1  0.58693933  0.07324166  0.93415604  1
  Se  Se177  1  0.58901745  0.41335680  0.44056902  1
  Se  Se178  1  0.58775190  0.40732998  0.93851642  1
  Se  Se179  1  0.57368070  0.74694677  0.46687305  1
  Se  Se180  1  0.59687784  0.74075516  0.93960337  1
  Se  Se181  1  0.92219775  0.07876143  0.44888855  1
  Se  Se182  1  0.91785365  0.07516327  0.94066069  1
  Se  Se183  1  0.92021937  0.41483241  0.44940300  1
  Se  Se184  1  0.91820406  0.40545839  0.94197031  1
  Se  Se185  1  0.92278408  0.75420221  0.43922355  1
  Se  Se186  1  0.91950201  0.74748965  0.94004843  1
  Se  Se187  1  0.25138179  0.24601416  0.31252193  1
  Se  Se188  1  0.24567423  0.24727346  0.80309263  1
  Se  Se189  1  0.25043588  0.58586526  0.30060245  1
  Se  Se190  1  0.24076628  0.58171716  0.79950779  1
  Se  Se191  1  0.25388396  0.91692441  0.30565015  1
  Se  Se192  1  0.24703591  0.91785271  0.80616902  1
  Se  Se193  1  0.58888807  0.24523188  0.30838759  1
  Se  Se194  1  0.59720060  0.26802164  0.79072010  1
  Se  Se195  1  0.58565620  0.58147979  0.31314685  1
  Se  Se196  1  0.58970027  0.59243052  0.79915128  1
  Se  Se197  1  0.57905412  0.90097400  0.32347821  1
  Se  Se198  1  0.58630286  0.91987142  0.80324887  1
  Se  Se199  1  0.91736101  0.25617964  0.31507318  1
  Se  Se200  1  0.91144537  0.24416222  0.80022657  1
  Se  Se201  1  0.91643797  0.58854519  0.30476913  1
  Se  Se202  1  0.90910832  0.57204674  0.80819941  1
  Se  Se203  1  0.91138982  0.92914459  0.30914937  1
  Se  Se204  1  0.91034260  0.90989167  0.79495004  1
  Se  Se205  1  0.08324411  0.08442067  0.30541754  1
  Se  Se206  1  0.08014956  0.07842318  0.80652692  1
  Se  Se207  1  0.08068649  0.41882417  0.30336017  1
  Se  Se208  1  0.08138349  0.41165252  0.79834979  1
  Se  Se209  1  0.08195619  0.75311714  0.30028571  1
  Se  Se210  1  0.08257728  0.75266589  0.80778547  1
  Se  Se211  1  0.41972239  0.07293014  0.30493840  1
  Se  Se212  1  0.44657594  0.10886940  0.80356456  1
  Se  Se213  1  0.42124599  0.41508145  0.31203477  1
  Se  Se214  1  0.43014713  0.43187363  0.80876112  1
  Se  Se215  1  0.41559040  0.74316001  0.31161890  1
  Se  Se216  1  0.42387037  0.76288256  0.80643488  1
  Se  Se217  1  0.75883431  0.09041272  0.32210947  1
  Se  Se218  1  0.75221570  0.08805436  0.80279450  1
  Se  Se219  1  0.75269422  0.41712549  0.31395587  1
  Se  Se220  1  0.74790114  0.41860100  0.79851356  1
  Se  Se221  1  0.73743906  0.76296947  0.32869553  1
  Se  Se222  1  0.74795784  0.74412498  0.79228605  1
  Se  Se223  1  0.24973371  0.08597647  0.19648268  1
  Se  Se224  1  0.25058907  0.07961004  0.69984188  1
  Se  Se225  1  0.23953806  0.42604837  0.18874120  1
  Se  Se226  1  0.24217578  0.42524485  0.68803151  1
  Se  Se227  1  0.25350643  0.74629479  0.20178010  1
  Se  Se228  1  0.25170042  0.75398747  0.69893040  1
  Se  Se229  1  0.58734894  0.07969098  0.19748798  1
  Se  Se230  1  0.57894749  0.09546440  0.67391585  1
  Se  Se231  1  0.58665052  0.41283638  0.20362205  1
  Se  Se232  1  0.58376820  0.42358309  0.69150952  1
  Se  Se233  1  0.58911171  0.74455047  0.20390642  1
  Se  Se234  1  0.58528631  0.76018081  0.68815138  1
  Se  Se235  1  0.91267634  0.09173704  0.20433751  1
  Se  Se236  1  0.91387204  0.07514524  0.69389930  1
  Se  Se237  1  0.91550161  0.41976569  0.20028546  1
  Se  Se238  1  0.91158332  0.41191053  0.69067403  1
  Se  Se239  1  0.90574648  0.76781264  0.19973903  1
  Se  Se240  1  0.91073789  0.74783596  0.67678963  1
  Se  Se241  1  0.08355345  0.25624844  0.20324555  1
  Se  Se242  1  0.07883317  0.24527916  0.69782739  1
  Se  Se243  1  0.08225146  0.59090581  0.19541333  1
  Se  Se244  1  0.08684271  0.57690957  0.68368415  1
  Se  Se245  1  0.08797023  0.92038872  0.19610936  1
  Se  Se246  1  0.07886867  0.91397385  0.69580878  1
  Se  Se247  1  0.43071259  0.23463630  0.19201400  1
  Se  Se248  1  0.41797691  0.24851127  0.68266285  1
  Se  Se249  1  0.42021391  0.57959467  0.20149254  1
  Se  Se250  1  0.41344441  0.59460507  0.70140443  1
  Se  Se251  1  0.42727002  0.91340781  0.20405966  1
  Se  Se252  1  0.41862539  0.92552763  0.69447900  1
  Se  Se253  1  0.74780109  0.25276441  0.20409269  1
  Se  Se254  1  0.74914037  0.24499396  0.68267295  1
  Se  Se255  1  0.74901536  0.58465737  0.20441558  1
  Se  Se256  1  0.75478995  0.58871962  0.68637521  1
  Se  Se257  1  0.75286166  0.91359211  0.19356502  1
  Se  Se258  1  0.75443216  0.90492641  0.67612586  1
