# generated using pymatgen
data_In86Cu29Se144
_symmetry_space_group_name_H-M   'P 1'
_cell_length_a   17.57840306
_cell_length_b   17.57504440
_cell_length_c   23.43366006
_cell_angle_alpha   90.01282691
_cell_angle_beta   89.98172992
_cell_angle_gamma   89.98868263
_symmetry_Int_Tables_number   1
_chemical_formula_structural   In86Cu29Se144
_chemical_formula_sum   'In86 Cu29 Se144'
_cell_volume   7239.62270329
_cell_formula_units_Z   1
loop_
 _symmetry_equiv_pos_site_id
 _symmetry_equiv_pos_as_xyz
  1  'x, y, z'
loop_
 _atom_site_type_symbol
 _atom_site_label
 _atom_site_symmetry_multiplicity
 _atom_site_fract_x
 _atom_site_fract_y
 _atom_site_fract_z
 _atom_site_occupancy
  In  In0  1  -0.00243612  0.18059514  0.11307258  1
  In  In1  1  -0.00929908  0.17463096  0.63952017  1
  In  In2  1  -0.02043261  0.49978843  0.13418261  1
  In  In3  1  -0.00895269  0.48437353  0.60939159  1
  In  In4  1  -0.02148076  0.81839558  0.11609983  1
  In  In5  1  0.00801214  0.83578949  0.63203478  1
  In  In6  1  0.32802727  0.18009008  0.11757723  1
  In  In7  1  0.35360251  0.17369200  0.62927544  1
  In  In8  1  0.34736060  0.50319134  0.12395144  1
  In  In9  1  0.33460626  0.49856310  0.62355915  1
  In  In10  1  0.33368798  0.81437109  0.12496609  1
  In  In11  1  0.33830785  0.82012632  0.62734461  1
  In  In12  1  0.67584822  0.15438683  0.12918955  1
  In  In13  1  0.66344694  0.17853055  0.62718283  1
  In  In14  1  0.66569122  0.50628958  0.13367871  1
  In  In15  1  0.67582891  0.51029623  0.61743959  1
  In  In16  1  0.67293678  0.83177955  0.13076506  1
  In  In17  1  0.65263242  0.82767418  0.61997211  1
  In  In18  1  0.15350507  -0.00254338  0.37723400  1
  In  In19  1  0.16641495  0.02234629  0.87911777  1
  In  In20  1  0.16154514  0.34596755  0.37997369  1
  In  In21  1  0.15133264  0.32431673  0.86692548  1
  In  In22  1  0.15297522  0.64687691  0.36332297  1
  In  In23  1  0.17403141  0.65413719  0.87182101  1
  In  In24  1  0.51269923  -0.00722389  0.38296273  1
  In  In25  1  0.49191526  -0.00827859  0.87653635  1
  In  In26  1  0.50754211  0.32769402  0.38468330  1
  In  In27  1  0.51074535  0.34985314  0.87032657  1
  In  In28  1  0.49838770  0.66728151  0.37640689  1
  In  In29  1  0.50438389  0.66140095  0.87379775  1
  In  In30  1  0.82713820  0.00922634  0.37125895  1
  In  In31  1  0.83495240  -0.00428428  0.87924071  1
  In  In32  1  0.85496202  0.36480461  0.34481816  1
  In  In33  1  0.86284550  0.32294366  0.90926911  1
  In  In34  1  0.80193273  0.62553209  0.32152211  1
  In  In35  1  0.82667991  0.67637904  0.88980076  1
  In  In36  1  -0.01498359  0.17185907  0.37493186  1
  In  In37  1  -0.00237096  0.17612063  0.87412571  1
  In  In38  1  -0.00588771  0.50025726  0.37535710  1
  In  In39  1  -0.00301869  0.48714708  0.88193803  1
  In  In40  1  0.00202960  0.81725236  0.37124349  1
  In  In41  1  -0.02102613  0.83124981  0.88103148  1
  In  In42  1  0.33771786  0.18478570  0.37673681  1
  In  In43  1  0.32350403  0.16727180  0.87172077  1
  In  In44  1  0.32829310  0.50991045  0.38246135  1
  In  In45  1  0.33856526  0.50728780  0.86431404  1
  In  In46  1  0.34574190  0.82772746  0.37929831  1
  In  In47  1  0.35215398  0.83082346  0.87847296  1
  In  In48  1  0.66674945  0.17146966  0.37085608  1
  In  In49  1  0.67864701  0.18050355  0.87588983  1
  In  In50  1  0.66294654  0.49378807  0.37282510  1
  In  In51  1  0.66532773  0.50140139  0.88045991  1
  In  In52  1  0.65880910  0.80560711  0.35111565  1
  In  In53  1  0.67564740  0.82087261  0.88473297  1
  In  In54  1  0.15511161  0.01009006  0.12230121  1
  In  In55  1  0.15902840  -0.00726884  0.63159953  1
  In  In56  1  0.15894191  0.32244238  0.11744112  1
  In  In57  1  0.15671059  0.34596005  0.62938792  1
  In  In58  1  0.16639065  0.66246635  0.13336813  1
  In  In59  1  0.17935368  0.66380562  0.62874136  1
  In  In60  1  0.51993750  -0.00435627  0.12631669  1
  In  In61  1  0.50748046  0.00020762  0.61823706  1
  In  In62  1  0.50031398  0.35172663  0.12191773  1
  In  In63  1  0.49543903  0.32881205  0.62130078  1
  In  In64  1  0.50247062  0.66904965  0.12843003  1
  In  In65  1  0.50331072  0.66247114  0.62047587  1
  In  In66  1  0.81992660  -0.00876182  0.11713746  1
  In  In67  1  0.83751877  0.00623733  0.63107716  1
  In  In68  1  0.83199468  0.33642450  0.12880097  1
  In  In69  1  0.83056837  0.34167812  0.62671661  1
  In  In70  1  0.83368139  0.66010826  0.12969034  1
  In  In71  1  0.83475329  0.64819554  0.62524768  1
  In  In72  1  -0.00660336  -0.00703365  0.23484131  1
  In  In73  1  0.17026897  0.16808725  0.49891354  1
  In  In74  1  0.16655501  0.83701135  0.00794120  1
  In  In75  1  0.17301766  0.82286621  0.51009361  1
  In  In76  1  0.00199585  0.66181037  0.75406998  1
  In  In77  1  0.82787465  0.82493286  0.48541335  1
  In  In78  1  0.82459312  0.17822371  0.50469697  1
  In  In79  1  0.15770542  0.49743560  -0.00016137  1
  In  In80  1  0.67266178  0.33768783  0.75168606  1
  In  In81  1  0.50473198  0.16808041  -0.00678959  1
  In  In82  1  0.67093616  0.00002651  0.75422766  1
  In  In83  1  0.33308173  0.33915079  0.25129750  1
  In  In84  1  0.33056582  0.00201042  0.75210817  1
  In  In85  1  0.33706272  -0.00243331  0.25894468  1
  Cu  Cu86  1  0.16431106  0.17578829  0.75194906  1
  Cu  Cu87  1  0.34324557  0.66416825  -0.00299100  1
  Cu  Cu88  1  0.00126601  0.00979265  -0.00171050  1
  Cu  Cu89  1  0.33950580  0.33634386  0.50365479  1
  Cu  Cu90  1  0.67026497  -0.00783912  0.00126916  1
  Cu  Cu91  1  0.50784369  0.17224082  0.25162559  1
  Cu  Cu92  1  0.34233307  0.00427526  0.50026078  1
  Cu  Cu93  1  0.66784860  0.34137501  0.00606108  1
  Cu  Cu94  1  0.32796203  0.34054292  -0.00597616  1
  Cu  Cu95  1  0.50034025  0.50528800  0.25152003  1
  Cu  Cu96  1  0.16937395  0.82512077  0.24650863  1
  Cu  Cu97  1  0.67181286  0.66323794  0.48592943  1
  Cu  Cu98  1  0.83073990  0.49868774  0.75297720  1
  Cu  Cu99  1  -0.00221940  0.65336275  0.49459646  1
  Cu  Cu100  1  0.82705353  0.17012738  0.24642677  1
  Cu  Cu101  1  0.66987346  0.33893739  0.49868319  1
  Cu  Cu102  1  0.15746862  0.16562216  0.24268127  1
  Cu  Cu103  1  0.16978299  0.49755231  0.74764353  1
  Cu  Cu104  1  0.16429251  0.83979528  0.75482933  1
  Cu  Cu105  1  0.65937622  0.66363895  0.00743807  1
  Cu  Cu106  1  0.82723220  0.82806480  0.75787902  1
  Cu  Cu107  1  0.50249235  0.82099548  0.74977479  1
  Cu  Cu108  1  0.16385756  0.49264762  0.25131915  1
  Cu  Cu109  1  0.65949518  0.00002672  0.49511784  1
  Cu  Cu110  1  0.33625876  0.66538968  0.50128876  1
  Cu  Cu111  1  0.50112231  0.50480413  0.74590103  1
  Cu  Cu112  1  0.33998772  0.00044448  -0.00184152  1
  Cu  Cu113  1  0.49966592  0.82979386  0.25155147  1
  Cu  Cu114  1  -0.00170850  -0.00369983  0.50840411  1
  Se  Se115  1  0.08595539  0.09377274  0.04924745  1
  Se  Se116  1  0.07717818  0.08192366  0.56296284  1
  Se  Se117  1  0.06726226  0.41226537  0.06024415  1
  Se  Se118  1  0.09255554  0.41808557  0.54739275  1
  Se  Se119  1  0.08013614  0.73588598  0.05750634  1
  Se  Se120  1  0.07068621  0.73380128  0.56082742  1
  Se  Se121  1  0.41883024  0.08093457  0.06180952  1
  Se  Se122  1  0.42181155  0.08746007  0.55536812  1
  Se  Se123  1  0.41393368  0.41901193  0.04771847  1
  Se  Se124  1  0.42366889  0.42213685  0.55401173  1
  Se  Se125  1  0.42201421  0.74868747  0.05273666  1
  Se  Se126  1  0.41999248  0.75078253  0.55242509  1
  Se  Se127  1  0.74937520  0.08553976  0.04827387  1
  Se  Se128  1  0.73920616  0.07448185  0.56000950  1
  Se  Se129  1  0.74674849  0.42363568  0.06297120  1
  Se  Se130  1  0.75586383  0.42023236  0.55170163  1
  Se  Se131  1  0.74732826  0.74328494  0.06069615  1
  Se  Se132  1  0.74598847  0.73892626  0.55636008  1
  Se  Se133  1  0.24661782  0.25277567  0.04412549  1
  Se  Se134  1  0.25744469  0.25460745  0.56305574  1
  Se  Se135  1  0.25606081  0.58815464  0.05580595  1
  Se  Se136  1  0.25074620  0.58317025  0.55393084  1
  Se  Se137  1  0.26150819  0.92763200  0.06548072  1
  Se  Se138  1  0.26092296  0.92660725  0.56202429  1
  Se  Se139  1  0.58675382  0.25351166  0.06201795  1
  Se  Se140  1  0.58747255  0.25334866  0.55219110  1
  Se  Se141  1  0.57750402  0.57851366  0.06020609  1
  Se  Se142  1  0.58945774  0.58701220  0.54780635  1
  Se  Se143  1  0.58835483  0.90861250  0.05478763  1
  Se  Se144  1  0.57999726  0.91186423  0.54751416  1
  Se  Se145  1  0.89960278  0.25147714  0.05204778  1
  Se  Se146  1  0.92613554  0.25932006  0.55965281  1
  Se  Se147  1  0.91278496  0.57873217  0.05585428  1
  Se  Se148  1  0.90808782  0.57559078  0.54724687  1
  Se  Se149  1  0.92154590  0.92440955  0.05276666  1
  Se  Se150  1  0.91392637  0.91073767  0.55971078  1
  Se  Se151  1  0.07266339  0.25350166  0.44327161  1
  Se  Se152  1  0.08098997  0.25436912  0.94604646  1
  Se  Se153  1  0.08910794  0.57369863  0.44577133  1
  Se  Se154  1  0.07417068  0.59526035  0.94113497  1
  Se  Se155  1  0.07567846  0.91201714  0.44990776  1
  Se  Se156  1  0.08158302  0.92377833  0.94063075  1
  Se  Se157  1  0.42040211  0.24782183  0.45363906  1
  Se  Se158  1  0.41331140  0.26039320  0.93585724  1
  Se  Se159  1  0.42176881  0.58275186  0.44870877  1
  Se  Se160  1  0.41868440  0.57680880  0.94168538  1
  Se  Se161  1  0.41975818  0.91525972  0.44789727  1
  Se  Se162  1  0.42457245  0.91144417  0.95423831  1
  Se  Se163  1  0.75074626  0.26518612  0.43435216  1
  Se  Se164  1  0.74806364  0.25194541  0.95605976  1
  Se  Se165  1  0.75473474  0.58956182  0.42508994  1
  Se  Se166  1  0.74393546  0.58511295  0.95124870  1
  Se  Se167  1  0.73757736  0.92169371  0.43344050  1
  Se  Se168  1  0.75672481  0.91012855  0.94887407  1
  Se  Se169  1  0.25897097  0.07429880  0.43663088  1
  Se  Se170  1  0.25662350  0.08854921  0.95129544  1
  Se  Se171  1  0.25475354  0.41425436  0.44757315  1
  Se  Se172  1  0.24821886  0.41791893  0.93189539  1
  Se  Se173  1  0.24998160  0.73833644  0.43825002  1
  Se  Se174  1  0.25518658  0.74576887  0.94314001  1
  Se  Se175  1  0.58429356  0.09350426  0.44439063  1
  Se  Se176  1  0.59583943  0.07329833  0.93575209  1
  Se  Se177  1  0.58145425  0.42214348  0.44991181  1
  Se  Se178  1  0.58168814  0.41925777  0.95110891  1
  Se  Se179  1  0.58823919  0.75367332  0.43996386  1
  Se  Se180  1  0.58002809  0.74533948  0.94743390  1
  Se  Se181  1  0.91800288  0.07697380  0.44964848  1
  Se  Se182  1  0.91622025  0.08695305  0.94203157  1
  Se  Se183  1  0.91131401  0.41120637  0.43919604  1
  Se  Se184  1  0.90047861  0.44759698  0.96026911  1
  Se  Se185  1  0.91731522  0.72957264  0.43402609  1
  Se  Se186  1  0.91661800  0.75079964  0.95773607  1
  Se  Se187  1  0.23683108  0.24476486  0.30578989  1
  Se  Se188  1  0.25259032  0.25673826  0.80201422  1
  Se  Se189  1  0.25314117  0.57581203  0.30045704  1
  Se  Se190  1  0.25297553  0.58709911  0.79424121  1
  Se  Se191  1  0.23839900  0.90601526  0.31225843  1
  Se  Se192  1  0.24610687  0.91384261  0.81880930  1
  Se  Se193  1  0.58461858  0.26033179  0.30467779  1
  Se  Se194  1  0.57862082  0.24302012  0.80655820  1
  Se  Se195  1  0.58267816  0.58716817  0.30694561  1
  Se  Se196  1  0.58740211  0.57883313  0.80441382  1
  Se  Se197  1  0.58135127  0.91645667  0.30365806  1
  Se  Se198  1  0.57982574  0.90461017  0.80989551  1
  Se  Se199  1  0.91959729  0.24756017  0.29559716  1
  Se  Se200  1  0.91391348  0.27044328  0.81520830  1
  Se  Se201  1  0.94299609  0.59673624  0.30100143  1
  Se  Se202  1  0.90853058  0.58008929  0.81567614  1
  Se  Se203  1  0.91687388  0.91613170  0.31136203  1
  Se  Se204  1  0.91266441  0.91437198  0.80470067  1
  Se  Se205  1  0.07971522  0.08511180  0.30440339  1
  Se  Se206  1  0.08264859  0.09029596  0.80503183  1
  Se  Se207  1  0.07925828  0.41339697  0.30504003  1
  Se  Se208  1  0.08025629  0.42388012  0.80329960  1
  Se  Se209  1  0.08258148  0.74365977  0.29768132  1
  Se  Se210  1  0.08697918  0.75736850  0.81594333  1
  Se  Se211  1  0.42590277  0.09445614  0.31305635  1
  Se  Se212  1  0.42615889  0.09072687  0.80798764  1
  Se  Se213  1  0.42292245  0.42298111  0.31412789  1
  Se  Se214  1  0.42089777  0.41836096  0.79910182  1
  Se  Se215  1  0.41410600  0.74692744  0.30349343  1
  Se  Se216  1  0.41591269  0.74291100  0.80433562  1
  Se  Se217  1  0.74587920  0.08604478  0.30031613  1
  Se  Se218  1  0.76228110  0.09357810  0.80787639  1
  Se  Se219  1  0.73607417  0.41418807  0.29585991  1
  Se  Se220  1  0.76082583  0.41652026  0.81848400  1
  Se  Se221  1  0.77745785  0.76790601  0.29578511  1
  Se  Se222  1  0.74767874  0.74107747  0.80829651  1
  Se  Se223  1  0.24983498  0.08884999  0.19233606  1
  Se  Se224  1  0.24252314  0.09391601  0.68969459  1
  Se  Se225  1  0.24319453  0.41994841  0.18389942  1
  Se  Se226  1  0.25461223  0.41477510  0.69480174  1
  Se  Se227  1  0.25690031  0.73987458  0.20018461  1
  Se  Se228  1  0.24531980  0.75728473  0.69954489  1
  Se  Se229  1  0.58512817  0.08240196  0.20018043  1
  Se  Se230  1  0.57880023  0.08799705  0.69390490  1
  Se  Se231  1  0.58007626  0.41752688  0.19973093  1
  Se  Se232  1  0.58496870  0.42439384  0.68656798  1
  Se  Se233  1  0.58607635  0.74857605  0.19863484  1
  Se  Se234  1  0.58655108  0.74182729  0.69411469  1
  Se  Se235  1  0.90743917  0.09217363  0.18233605  1
  Se  Se236  1  0.92397023  0.07434163  0.70125471  1
  Se  Se237  1  0.90985303  0.41166563  0.20536503  1
  Se  Se238  1  0.91596144  0.42346509  0.69419270  1
  Se  Se239  1  0.91226613  0.75092239  0.19816707  1
  Se  Se240  1  0.90877196  0.75214913  0.69263387  1
  Se  Se241  1  0.07643827  0.25154848  0.19221783  1
  Se  Se242  1  0.08027125  0.25972448  0.69970715  1
  Se  Se243  1  0.08216805  0.57428040  0.19472241  1
  Se  Se244  1  0.08410621  0.57461745  0.68677939  1
  Se  Se245  1  0.09090735  0.90044174  0.18215466  1
  Se  Se246  1  0.07657731  0.92158972  0.70614641  1
  Se  Se247  1  0.42334759  0.24653202  0.19039183  1
  Se  Se248  1  0.42363150  0.25725058  0.70122514  1
  Se  Se249  1  0.41580278  0.58710058  0.19817988  1
  Se  Se250  1  0.41656348  0.58624343  0.69106512  1
  Se  Se251  1  0.42013609  0.91141395  0.19074358  1
  Se  Se252  1  0.42594689  0.91169309  0.69339439  1
  Se  Se253  1  0.74168110  0.25327319  0.19481750  1
  Se  Se254  1  0.76375873  0.24032090  0.69580568  1
  Se  Se255  1  0.74942996  0.58687175  0.20526895  1
  Se  Se256  1  0.74809548  0.58226234  0.69960996  1
  Se  Se257  1  0.74490704  0.92717435  0.19694469  1
  Se  Se258  1  0.75235631  0.90438429  0.68932463  1
