# generated using pymatgen
data_In86Cu29Se144
_symmetry_space_group_name_H-M   'P 1'
_cell_length_a   17.58318481
_cell_length_b   17.58615280
_cell_length_c   23.44308581
_cell_angle_alpha   90.01465719
_cell_angle_beta   90.00434484
_cell_angle_gamma   90.02600886
_symmetry_Int_Tables_number   1
_chemical_formula_structural   In86Cu29Se144
_chemical_formula_sum   'In86 Cu29 Se144'
_cell_volume   7249.08346261
_cell_formula_units_Z   1
loop_
 _symmetry_equiv_pos_site_id
 _symmetry_equiv_pos_as_xyz
  1  'x, y, z'
loop_
 _atom_site_type_symbol
 _atom_site_label
 _atom_site_symmetry_multiplicity
 _atom_site_fract_x
 _atom_site_fract_y
 _atom_site_fract_z
 _atom_site_occupancy
  In  In0  1  0.00603291  0.17043939  0.12141754  1
  In  In1  1  -0.00733632  0.15570116  0.60770633  1
  In  In2  1  -0.01050482  0.50993094  0.13758955  1
  In  In3  1  -0.01459366  0.51342036  0.61532809  1
  In  In4  1  -0.00544726  0.81948947  0.11468026  1
  In  In5  1  -0.01187656  0.82862362  0.60677648  1
  In  In6  1  0.34250143  0.17313749  0.11678224  1
  In  In7  1  0.33436482  0.17764331  0.62286848  1
  In  In8  1  0.32681716  0.49779489  0.13001503  1
  In  In9  1  0.34723364  0.48391600  0.63106250  1
  In  In10  1  0.33672957  0.83787140  0.11495707  1
  In  In11  1  0.31945522  0.83055197  0.63042108  1
  In  In12  1  0.67508545  0.17605271  0.11248640  1
  In  In13  1  0.67663932  0.16403340  0.63768121  1
  In  In14  1  0.66836763  0.48105807  0.12910092  1
  In  In15  1  0.66514401  0.49859782  0.62382710  1
  In  In16  1  0.67291904  0.83990046  0.10769422  1
  In  In17  1  0.66809956  0.83154967  0.63437192  1
  In  In18  1  0.14015733  0.00713999  0.39736120  1
  In  In19  1  0.16048497  0.00205999  0.87889707  1
  In  In20  1  0.16257348  0.33514913  0.36960236  1
  In  In21  1  0.16947976  0.31902119  0.87319254  1
  In  In22  1  0.16294628  0.67911588  0.37736152  1
  In  In23  1  0.17372089  0.66439859  0.87255838  1
  In  In24  1  0.50998196  0.01000023  0.37531038  1
  In  In25  1  0.52366927  -0.01279031  0.88890556  1
  In  In26  1  0.50851600  0.34151485  0.36277921  1
  In  In27  1  0.49499813  0.32457271  0.87114950  1
  In  In28  1  0.48835718  0.66487694  0.37859666  1
  In  In29  1  0.50608476  0.67330019  0.86535675  1
  In  In30  1  0.84077265  -0.00615143  0.39103217  1
  In  In31  1  0.81576024  0.01224812  0.89253309  1
  In  In32  1  0.83022209  0.33629584  0.37517309  1
  In  In33  1  0.82437893  0.34350750  0.88153708  1
  In  In34  1  0.84448195  0.65272990  0.39091326  1
  In  In35  1  0.82171003  0.67952073  0.88721590  1
  In  In36  1  -0.01355524  0.17651321  0.38152689  1
  In  In37  1  0.00027360  0.16199866  0.88501092  1
  In  In38  1  -0.00678175  0.49335736  0.36771122  1
  In  In39  1  -0.00620607  0.50279081  0.88236640  1
  In  In40  1  0.00042317  0.82363929  0.38248733  1
  In  In41  1  -0.01763870  0.83881098  0.88666169  1
  In  In42  1  0.31959328  0.16965843  0.37659920  1
  In  In43  1  0.33115451  0.17009003  0.87568218  1
  In  In44  1  0.34903666  0.48973459  0.38090981  1
  In  In45  1  0.33757393  0.50066709  0.86540702  1
  In  In46  1  0.32318453  0.82319838  0.37696113  1
  In  In47  1  0.34109849  0.83119775  0.87329589  1
  In  In48  1  0.66423246  0.17766315  0.37882243  1
  In  In49  1  0.66657177  0.16946052  0.87669442  1
  In  In50  1  0.67045799  0.49511201  0.37898940  1
  In  In51  1  0.67201724  0.50702150  0.86826185  1
  In  In52  1  0.69144444  0.83744976  0.37959179  1
  In  In53  1  0.67171342  0.83157944  0.87312241  1
  In  In54  1  0.16825310  0.00096580  0.11731702  1
  In  In55  1  0.15557721  -0.00589225  0.60943226  1
  In  In56  1  0.17204889  0.32469818  0.13270906  1
  In  In57  1  0.18254716  0.32646337  0.61821359  1
  In  In58  1  0.15862718  0.66786883  0.12576208  1
  In  In59  1  0.16065115  0.67559980  0.62520032  1
  In  In60  1  0.51611926  0.00820478  0.10120132  1
  In  In61  1  0.51072030  0.01171941  0.63017550  1
  In  In62  1  0.51333467  0.32951227  0.13876497  1
  In  In63  1  0.49308889  0.33992239  0.63075399  1
  In  In64  1  0.49278058  0.67169024  0.12124806  1
  In  In65  1  0.51123861  0.65573294  0.63461576  1
  In  In66  1  0.82749084  0.00585473  0.11440491  1
  In  In67  1  0.81735835  -0.01176612  0.60783940  1
  In  In68  1  0.83375527  0.33301259  0.12728553  1
  In  In69  1  0.82499906  0.32557596  0.62039239  1
  In  In70  1  0.84635585  0.66764292  0.11709373  1
  In  In71  1  0.82611972  0.65954327  0.61609371  1
  In  In72  1  0.50045024  0.82614619  0.50900278  1
  In  In73  1  0.16179937  0.49923965  0.49663942  1
  In  In74  1  -0.00290869  -0.00092568  0.74035523  1
  In  In75  1  -0.00350534  0.66721139  0.74644086  1
  In  In76  1  0.34084639  0.00593997  0.74938804  1
  In  In77  1  0.00296525  0.33251172  0.74864831  1
  In  In78  1  0.32682849  0.65999049  0.24878179  1
  In  In79  1  -0.00055402  0.00663241  0.24801518  1
  In  In80  1  0.16150775  0.49946352  0.00650418  1
  In  In81  1  0.66910997  0.00667528  0.24889043  1
  In  In82  1  0.50387038  0.49817360  0.00358731  1
  In  In83  1  0.50209090  0.17098569  0.50082293  1
  In  In84  1  0.32804885  -0.00655696  0.24893195  1
  In  In85  1  0.66411525  0.66231196  0.25286419  1
  Cu  Cu86  1  0.67047027  0.33547163  0.50090636  1
  Cu  Cu87  1  0.49765019  0.17250159  0.24680696  1
  Cu  Cu88  1  0.82731307  0.17512396  0.25325784  1
  Cu  Cu89  1  0.82684684  0.50295949  0.74798801  1
  Cu  Cu90  1  0.50257590  0.82996325  0.75555504  1
  Cu  Cu91  1  0.32879216  0.00522579  -0.00535364  1
  Cu  Cu92  1  0.50752254  0.16768512  0.75424389  1
  Cu  Cu93  1  0.50372465  0.49536861  0.74986663  1
  Cu  Cu94  1  0.33506080  -0.01220124  0.49833994  1
  Cu  Cu95  1  0.17185685  0.16965070  0.74485708  1
  Cu  Cu96  1  -0.00004871  -0.00007735  0.00274348  1
  Cu  Cu97  1  0.84173203  0.82970672  0.24443760  1
  Cu  Cu98  1  0.32949991  0.33368414  0.00048539  1
  Cu  Cu99  1  0.16427929  0.49784968  0.25203346  1
  Cu  Cu100  1  0.66845521  0.32977953  0.00155749  1
  Cu  Cu101  1  0.16535156  0.17469609  0.25008090  1
  Cu  Cu102  1  0.33619014  0.67659171  -0.00676237  1
  Cu  Cu103  1  -0.00320564  0.33775586  0.49343616  1
  Cu  Cu104  1  0.17449474  0.49505527  0.74902838  1
  Cu  Cu105  1  0.83000035  0.83724136  0.75399490  1
  Cu  Cu106  1  0.82973621  0.49778351  0.25390779  1
  Cu  Cu107  1  0.16543420  0.82847321  0.75063835  1
  Cu  Cu108  1  0.83102973  0.16892738  0.75428322  1
  Cu  Cu109  1  0.50238428  0.84020200  0.24228325  1
  Cu  Cu110  1  -0.00238303  0.32853513  0.00414348  1
  Cu  Cu111  1  0.15797493  0.83602538  0.25453586  1
  Cu  Cu112  1  0.66177407  0.66725919  0.50675571  1
  Cu  Cu113  1  0.32949660  0.65577049  0.50247067  1
  Cu  Cu114  1  0.67229904  0.66282877  -0.00613738  1
  Se  Se115  1  0.08508954  0.08627691  0.05206678  1
  Se  Se116  1  0.10566105  0.10437619  0.54931482  1
  Se  Se117  1  0.07585031  0.40865947  0.06717501  1
  Se  Se118  1  0.07359830  0.40987907  0.56225997  1
  Se  Se119  1  0.10354562  0.76274027  0.05447592  1
  Se  Se120  1  0.06851525  0.73148241  0.55207686  1
  Se  Se121  1  0.41599167  0.08730004  0.04588939  1
  Se  Se122  1  0.41143043  0.07226096  0.55774150  1
  Se  Se123  1  0.41080795  0.41033642  0.06238906  1
  Se  Se124  1  0.41202009  0.40458284  0.55280061  1
  Se  Se125  1  0.42215330  0.75512589  0.04790799  1
  Se  Se126  1  0.40763219  0.73704536  0.56633057  1
  Se  Se127  1  0.72257080  0.06335339  0.05178783  1
  Se  Se128  1  0.75806014  0.10435564  0.55833910  1
  Se  Se129  1  0.75196559  0.41403140  0.05414120  1
  Se  Se130  1  0.75329836  0.42087855  0.55427574  1
  Se  Se131  1  0.75528133  0.74447331  0.05074996  1
  Se  Se132  1  0.74295503  0.75483840  0.55740848  1
  Se  Se133  1  0.24585804  0.25033691  0.05410262  1
  Se  Se134  1  0.25389530  0.24314752  0.54601501  1
  Se  Se135  1  0.26201673  0.59399095  0.05665841  1
  Se  Se136  1  0.25050852  0.57910952  0.56598132  1
  Se  Se137  1  0.25023577  0.91856238  0.04901675  1
  Se  Se138  1  0.25033896  0.90785388  0.55278042  1
  Se  Se139  1  0.57564171  0.25614789  0.05480664  1
  Se  Se140  1  0.59166007  0.25584127  0.56462616  1
  Se  Se141  1  0.59553454  0.58932598  0.06244425  1
  Se  Se142  1  0.57808281  0.57967509  0.55432617  1
  Se  Se143  1  0.57198144  0.89898659  0.04291251  1
  Se  Se144  1  0.58887845  0.92368736  0.56070835  1
  Se  Se145  1  0.91198303  0.24642297  0.05702610  1
  Se  Se146  1  0.91501997  0.25468440  0.54994329  1
  Se  Se147  1  0.92571482  0.57664507  0.05358822  1
  Se  Se148  1  0.91719913  0.59694364  0.54293903  1
  Se  Se149  1  0.91573427  0.91725104  0.05556396  1
  Se  Se150  1  0.94494106  0.95261434  0.56059407  1
  Se  Se151  1  0.08286021  0.25591774  0.44206019  1
  Se  Se152  1  0.08425602  0.25173171  0.94770443  1
  Se  Se153  1  0.07292710  0.58829694  0.43739311  1
  Se  Se154  1  0.07954857  0.59423623  0.94494529  1
  Se  Se155  1  0.09419098  0.89052536  0.45125811  1
  Se  Se156  1  0.07999236  0.91736793  0.94610828  1
  Se  Se157  1  0.41866441  0.25427718  0.43352042  1
  Se  Se158  1  0.41372134  0.25216794  0.94612949  1
  Se  Se159  1  0.41963329  0.57933131  0.45209099  1
  Se  Se160  1  0.41572841  0.58687987  0.93983980  1
  Se  Se161  1  0.41913653  0.91602506  0.43673558  1
  Se  Se162  1  0.41259256  0.92049425  0.94281321  1
  Se  Se163  1  0.75303755  0.25086256  0.44770130  1
  Se  Se164  1  0.75361701  0.24852555  0.94775294  1
  Se  Se165  1  0.74247262  0.58276179  0.45058905  1
  Se  Se166  1  0.75353152  0.57261146  0.94631846  1
  Se  Se167  1  0.74239932  0.92710805  0.45576169  1
  Se  Se168  1  0.76959011  0.89199033  0.94304853  1
  Se  Se169  1  0.25545054  0.07447726  0.44537961  1
  Se  Se170  1  0.24436071  0.08892629  0.94264935  1
  Se  Se171  1  0.25519014  0.40687266  0.44400617  1
  Se  Se172  1  0.25361440  0.41654812  0.94033863  1
  Se  Se173  1  0.24991074  0.74542303  0.45272535  1
  Se  Se174  1  0.24924994  0.75437756  0.93998267  1
  Se  Se175  1  0.59852271  0.07592531  0.44955322  1
  Se  Se176  1  0.58164073  0.09463713  0.94845268  1
  Se  Se177  1  0.58328297  0.41064461  0.44414468  1
  Se  Se178  1  0.58909930  0.41082797  0.93899786  1
  Se  Se179  1  0.59083658  0.74701370  0.43824401  1
  Se  Se180  1  0.58686486  0.74427130  0.94063105  1
  Se  Se181  1  0.93936561  0.06972770  0.44771532  1
  Se  Se182  1  0.91375708  0.08666751  0.95430524  1
  Se  Se183  1  0.91207699  0.42218876  0.44383215  1
  Se  Se184  1  0.91851876  0.41440617  0.94948100  1
  Se  Se185  1  0.88183438  0.77915401  0.43874739  1
  Se  Se186  1  0.92603163  0.73568070  0.95122492  1
  Se  Se187  1  0.25216424  0.25460939  0.30212987  1
  Se  Se188  1  0.25513486  0.25018207  0.79938469  1
  Se  Se189  1  0.24306836  0.57507195  0.31710256  1
  Se  Se190  1  0.25208368  0.58501916  0.80047937  1
  Se  Se191  1  0.23528227  0.91695093  0.31622504  1
  Se  Se192  1  0.24281208  0.91735892  0.80540927  1
  Se  Se193  1  0.58851476  0.24698686  0.30022176  1
  Se  Se194  1  0.59033742  0.25490350  0.80434042  1
  Se  Se195  1  0.57147432  0.57728655  0.31221214  1
  Se  Se196  1  0.58536426  0.58384889  0.80001369  1
  Se  Se197  1  0.58331982  0.90888556  0.30931701  1
  Se  Se198  1  0.58739879  0.91571812  0.80472907  1
  Se  Se199  1  0.91505746  0.25478324  0.30479899  1
  Se  Se200  1  0.91518944  0.24580023  0.81326138  1
  Se  Se201  1  0.91103746  0.58667551  0.30524324  1
  Se  Se202  1  0.90791027  0.58047740  0.80953115  1
  Se  Se203  1  0.91166770  0.91549613  0.30748064  1
  Se  Se204  1  0.90870477  0.92175051  0.81027504  1
  Se  Se205  1  0.08896359  0.09219755  0.31117957  1
  Se  Se206  1  0.08647564  0.09212702  0.80296959  1
  Se  Se207  1  0.07750153  0.41285757  0.29972587  1
  Se  Se208  1  0.08995964  0.42447975  0.81260783  1
  Se  Se209  1  0.07620852  0.74884626  0.30404610  1
  Se  Se210  1  0.07867468  0.75830897  0.81214283  1
  Se  Se211  1  0.42076696  0.08863120  0.30624464  1
  Se  Se212  1  0.43029903  0.08476522  0.81577643  1
  Se  Se213  1  0.41090664  0.41478594  0.29999118  1
  Se  Se214  1  0.41768512  0.41193169  0.80160814  1
  Se  Se215  1  0.42113315  0.75995842  0.30261645  1
  Se  Se216  1  0.41101446  0.74656105  0.79918078  1
  Se  Se217  1  0.76019872  0.08642953  0.31543021  1
  Se  Se218  1  0.75097224  0.08296528  0.80876401  1
  Se  Se219  1  0.74438670  0.41465507  0.30411432  1
  Se  Se220  1  0.74984242  0.41473026  0.80228361  1
  Se  Se221  1  0.76243812  0.75020713  0.30605231  1
  Se  Se222  1  0.75209560  0.74481360  0.80305734  1
  Se  Se223  1  0.24434998  0.09139677  0.19065525  1
  Se  Se224  1  0.24343130  0.08103513  0.68498862  1
  Se  Se225  1  0.24919143  0.41575607  0.19988767  1
  Se  Se226  1  0.25105551  0.40745508  0.69538847  1
  Se  Se227  1  0.24778826  0.76427921  0.19346666  1
  Se  Se228  1  0.24767734  0.74192364  0.70100283  1
  Se  Se229  1  0.57678453  0.09019881  0.18658521  1
  Se  Se230  1  0.59140374  0.08129975  0.70536717  1
  Se  Se231  1  0.58094602  0.42434636  0.20494012  1
  Se  Se232  1  0.58769584  0.41380599  0.69555697  1
  Se  Se233  1  0.58460590  0.75857537  0.18682026  1
  Se  Se234  1  0.58615914  0.74712302  0.70129759  1
  Se  Se235  1  0.90253021  0.09240983  0.19033256  1
  Se  Se236  1  0.90555585  0.09311293  0.68814563  1
  Se  Se237  1  0.91381398  0.41435195  0.19996033  1
  Se  Se238  1  0.91240026  0.42495404  0.69034271  1
  Se  Se239  1  0.92330767  0.74423845  0.19383253  1
  Se  Se240  1  0.90670782  0.75959737  0.68852424  1
  Se  Se241  1  0.07524777  0.25177519  0.19819600  1
  Se  Se242  1  0.08499265  0.24215160  0.68410042  1
  Se  Se243  1  0.08627248  0.58699614  0.20013840  1
  Se  Se244  1  0.08701150  0.56967646  0.69085749  1
  Se  Se245  1  0.08583515  0.91417408  0.18829630  1
  Se  Se246  1  0.08632534  0.90218893  0.68596245  1
  Se  Se247  1  0.40999692  0.25261962  0.19510324  1
  Se  Se248  1  0.42040369  0.24350405  0.69772509  1
  Se  Se249  1  0.42741252  0.57638030  0.19339823  1
  Se  Se250  1  0.41684932  0.57883377  0.69834171  1
  Se  Se251  1  0.42747315  0.92310287  0.18293768  1
  Se  Se252  1  0.42682156  0.90862541  0.68964881  1
  Se  Se253  1  0.74371358  0.25016694  0.19348680  1
  Se  Se254  1  0.75228576  0.25888420  0.70294885  1
  Se  Se255  1  0.75632096  0.57939476  0.18917298  1
  Se  Se256  1  0.74741428  0.58670763  0.69196842  1
  Se  Se257  1  0.75622779  0.90953166  0.19005016  1
  Se  Se258  1  0.75422672  0.92278204  0.69517454  1
