# generated using pymatgen
data_In86Cu29Se144
_symmetry_space_group_name_H-M   'P 1'
_cell_length_a   17.56571775
_cell_length_b   17.56694544
_cell_length_c   23.41891333
_cell_angle_alpha   90.00740196
_cell_angle_beta   90.01090863
_cell_angle_gamma   90.01489158
_symmetry_Int_Tables_number   1
_chemical_formula_structural   In86Cu29Se144
_chemical_formula_sum   'In86 Cu29 Se144'
_cell_volume   7226.51428562
_cell_formula_units_Z   1
loop_
 _symmetry_equiv_pos_site_id
 _symmetry_equiv_pos_as_xyz
  1  'x, y, z'
loop_
 _atom_site_type_symbol
 _atom_site_label
 _atom_site_symmetry_multiplicity
 _atom_site_fract_x
 _atom_site_fract_y
 _atom_site_fract_z
 _atom_site_occupancy
  In  In0  1  0.00284043  0.17876195  0.12245264  1
  In  In1  1  -0.00216967  0.16426308  0.62488141  1
  In  In2  1  0.00845425  0.49554959  0.12616811  1
  In  In3  1  -0.00083114  0.50521033  0.62918479  1
  In  In4  1  -0.01074252  0.82452065  0.11513868  1
  In  In5  1  -0.01753096  0.83854825  0.63984604  1
  In  In6  1  0.33360437  0.15538063  0.11912292  1
  In  In7  1  0.34676951  0.17642987  0.62164052  1
  In  In8  1  0.33391376  0.50036266  0.11687116  1
  In  In9  1  0.31949357  0.48335784  0.62422151  1
  In  In10  1  0.33259742  0.85239802  0.11762401  1
  In  In11  1  0.33100951  0.82603238  0.62438221  1
  In  In12  1  0.66584317  0.16677014  0.11260797  1
  In  In13  1  0.66516410  0.16743096  0.62711956  1
  In  In14  1  0.66171793  0.51093701  0.11311310  1
  In  In15  1  0.67185107  0.50095474  0.62009322  1
  In  In16  1  0.67477754  0.82094766  0.11656962  1
  In  In17  1  0.70755363  0.80849806  0.67563159  1
  In  In18  1  0.17848992  -0.00214366  0.37435124  1
  In  In19  1  0.15431407  0.00374777  0.87701097  1
  In  In20  1  0.15128578  0.34593598  0.38521653  1
  In  In21  1  0.17147823  0.34097184  0.86005011  1
  In  In22  1  0.15124365  0.66939734  0.37999242  1
  In  In23  1  0.15953606  0.66867648  0.88203257  1
  In  In24  1  0.49497448  0.01067564  0.37945077  1
  In  In25  1  0.51595608  -0.00570862  0.87599188  1
  In  In26  1  0.50185042  0.33020427  0.38791600  1
  In  In27  1  0.49074388  0.34554933  0.87328239  1
  In  In28  1  0.49609268  0.65825493  0.38156808  1
  In  In29  1  0.49918535  0.66485587  0.86560035  1
  In  In30  1  0.83225091  -0.00136771  0.38826817  1
  In  In31  1  0.84205468  -0.00580671  0.86700721  1
  In  In32  1  0.84234922  0.32600347  0.38522198  1
  In  In33  1  0.83946377  0.31898158  0.87024417  1
  In  In34  1  0.87012698  0.64055840  0.40983901  1
  In  In35  1  0.83992235  0.68557148  0.85532514  1
  In  In36  1  -0.01065644  0.17882273  0.38581521  1
  In  In37  1  -0.01103537  0.15714037  0.85689662  1
  In  In38  1  0.00668726  0.50044899  0.38094895  1
  In  In39  1  0.01203524  0.51012341  0.85784020  1
  In  In40  1  -0.00201230  0.81941648  0.37984487  1
  In  In41  1  -0.00369120  0.83404674  0.87145088  1
  In  In42  1  0.33769832  0.16360559  0.37959724  1
  In  In43  1  0.32500720  0.18527141  0.87840170  1
  In  In44  1  0.33552039  0.49304319  0.38785825  1
  In  In45  1  0.33956093  0.49432852  0.87433721  1
  In  In46  1  0.31573079  0.83972793  0.37312294  1
  In  In47  1  0.33053547  0.82595611  0.88378012  1
  In  In48  1  0.66337102  0.16109209  0.38982084  1
  In  In49  1  0.68261532  0.15184826  0.87350017  1
  In  In50  1  0.67154126  0.50009559  0.38873813  1
  In  In51  1  0.64616794  0.50582151  0.86260622  1
  In  In52  1  0.68501782  0.83512242  0.37651319  1
  In  In53  1  0.68478198  0.86139351  0.84653673  1
  In  In54  1  0.18006111  0.00164025  0.11935238  1
  In  In55  1  0.14714402  0.00006649  0.62709769  1
  In  In56  1  0.15019604  0.33143340  0.12509735  1
  In  In57  1  0.17132350  0.34206549  0.63153159  1
  In  In58  1  0.15609753  0.65545461  0.11464000  1
  In  In59  1  0.15089309  0.64445355  0.62288019  1
  In  In60  1  0.48494606  0.00110912  0.11717188  1
  In  In61  1  0.50530941  0.00520852  0.62926468  1
  In  In62  1  0.50335185  0.33507546  0.11274744  1
  In  In63  1  0.49499452  0.32930148  0.62569546  1
  In  In64  1  0.51287883  0.65801080  0.11479508  1
  In  In65  1  0.52884562  0.66194366  0.64189921  1
  In  In66  1  0.83145912  -0.00477594  0.11663850  1
  In  In67  1  0.83677889  0.00464706  0.63263121  1
  In  In68  1  0.85044676  0.33492324  0.12030749  1
  In  In69  1  0.83626775  0.33434198  0.62415431  1
  In  In70  1  0.83357193  0.67657432  0.11979822  1
  In  In71  1  0.84017461  0.66163014  0.62905261  1
  In  In72  1  0.32463300  0.67165666  0.24952596  1
  In  In73  1  0.16369395  0.16758586  -0.00275073  1
  In  In74  1  0.66660065  0.00125835  0.25363193  1
  In  In75  1  0.33240114  0.00778152  0.75604431  1
  In  In76  1  0.51214467  0.83705971  0.50805869  1
  In  In77  1  0.15970418  0.82853202  0.50656092  1
  In  In78  1  0.67130340  0.33130003  0.26048446  1
  In  In79  1  0.67141882  0.32994794  0.74454429  1
  In  In80  1  0.50415834  0.82772189  -0.00508101  1
  In  In81  1  0.82653614  0.49744247  -0.01004070  1
  In  In82  1  0.00338466  0.00264910  0.24909665  1
  In  In83  1  0.32653383  0.33179998  0.25095786  1
  In  In84  1  0.67241150  0.66984903  0.24532763  1
  In  In85  1  0.33183507  0.66236962  0.75214919  1
  Cu  Cu86  1  0.15883347  0.50676057  0.25262523  1
  Cu  Cu87  1  -0.00824225  -0.00445623  -0.00775969  1
  Cu  Cu88  1  0.33528921  0.00678175  0.50340422  1
  Cu  Cu89  1  0.83860823  0.17466715  0.25236423  1
  Cu  Cu90  1  0.00285320  0.33566229  0.50966906  1
  Cu  Cu91  1  -0.00583847  0.66264227  -0.01151876  1
  Cu  Cu92  1  0.33438394  0.34143555  -0.00443368  1
  Cu  Cu93  1  0.16465192  0.16771976  0.24947832  1
  Cu  Cu94  1  0.16389046  0.83612718  0.24707729  1
  Cu  Cu95  1  0.16684884  0.16945045  0.74429753  1
  Cu  Cu96  1  0.00280024  0.32917019  -0.00754017  1
  Cu  Cu97  1  0.50209146  0.49554853  0.24688842  1
  Cu  Cu98  1  0.83162630  0.50046432  0.74534311  1
  Cu  Cu99  1  0.67584031  -0.00066413  -0.00880163  1
  Cu  Cu100  1  0.67430297  0.67523943  0.51586286  1
  Cu  Cu101  1  0.66607923  0.32978212  -0.01483289  1
  Cu  Cu102  1  0.16412386  0.82616424  0.75386333  1
  Cu  Cu103  1  0.32875877  0.65978712  -0.00555546  1
  Cu  Cu104  1  0.33902184  0.65731973  0.50794651  1
  Cu  Cu105  1  0.66477734  0.33247081  0.50749633  1
  Cu  Cu106  1  0.48899067  0.15867022  0.25078436  1
  Cu  Cu107  1  -0.00351657  0.00272624  0.50669066  1
  Cu  Cu108  1  0.84966779  0.50594979  0.25444605  1
  Cu  Cu109  1  0.49023269  0.84247507  0.24664708  1
  Cu  Cu110  1  0.67003819  -0.00319514  0.51290495  1
  Cu  Cu111  1  0.49955914  0.17531838  0.75458190  1
  Cu  Cu112  1  0.84069374  0.82564158  0.25110976  1
  Cu  Cu113  1  0.33110833  0.32742266  0.50432291  1
  Cu  Cu114  1  0.66814509  0.66989165  -0.01559557  1
  Se  Se115  1  0.07132763  0.07430042  0.05669505  1
  Se  Se116  1  0.08562901  0.08711178  0.55145672  1
  Se  Se117  1  0.08051361  0.41375138  0.04994972  1
  Se  Se118  1  0.08527299  0.42072214  0.56075005  1
  Se  Se119  1  0.07553207  0.74320432  0.04878735  1
  Se  Se120  1  0.06736009  0.74766957  0.56739136  1
  Se  Se121  1  0.42427436  0.09437561  0.04698619  1
  Se  Se122  1  0.42398763  0.08341867  0.55663367  1
  Se  Se123  1  0.42141931  0.42377903  0.04901925  1
  Se  Se124  1  0.41464696  0.41326212  0.55580924  1
  Se  Se125  1  0.40910451  0.74039569  0.05822425  1
  Se  Se126  1  0.42148399  0.74009768  0.56223133  1
  Se  Se127  1  0.75467376  0.08377427  0.04979405  1
  Se  Se128  1  0.75297880  0.08576106  0.56075340  1
  Se  Se129  1  0.74104288  0.40497471  0.05552395  1
  Se  Se130  1  0.75374097  0.41560410  0.55391432  1
  Se  Se131  1  0.75333858  0.74660909  0.04224068  1
  Se  Se132  1  0.74876116  0.75827161  0.57473959  1
  Se  Se133  1  0.25442276  0.26111754  0.05881093  1
  Se  Se134  1  0.24705914  0.25005326  0.56102512  1
  Se  Se135  1  0.24616740  0.57646971  0.04932068  1
  Se  Se136  1  0.24789975  0.57813191  0.55579003  1
  Se  Se137  1  0.24669569  0.91842662  0.04457070  1
  Se  Se138  1  0.25352012  0.92528402  0.56107630  1
  Se  Se139  1  0.58365874  0.25008037  0.04569914  1
  Se  Se140  1  0.58076868  0.24806595  0.55767597  1
  Se  Se141  1  0.58527099  0.58327416  0.03580202  1
  Se  Se142  1  0.58349901  0.58723169  0.55555832  1
  Se  Se143  1  0.59383623  0.92336093  0.05716261  1
  Se  Se144  1  0.60001977  0.91324857  0.57580549  1
  Se  Se145  1  0.91856587  0.24710880  0.04674105  1
  Se  Se146  1  0.91576090  0.24818400  0.55507489  1
  Se  Se147  1  0.91709260  0.58253706  0.05465055  1
  Se  Se148  1  0.91502736  0.58028676  0.55606025  1
  Se  Se149  1  0.90992084  0.91146153  0.04771430  1
  Se  Se150  1  0.91542167  0.91870034  0.56045948  1
  Se  Se151  1  0.08329568  0.25037953  0.45316316  1
  Se  Se152  1  0.07932938  0.24917167  0.92941562  1
  Se  Se153  1  0.07843067  0.59023500  0.45229408  1
  Se  Se154  1  0.07944298  0.57294088  0.94465403  1
  Se  Se155  1  0.07748793  0.92416124  0.44195189  1
  Se  Se156  1  0.08061259  0.91333994  0.94410671  1
  Se  Se157  1  0.41738586  0.24432814  0.45133935  1
  Se  Se158  1  0.41833496  0.25653204  0.94544363  1
  Se  Se159  1  0.42331657  0.57511113  0.45342039  1
  Se  Se160  1  0.41851798  0.58761557  0.93942908  1
  Se  Se161  1  0.40816714  0.91613797  0.44559123  1
  Se  Se162  1  0.41274400  0.92531791  0.94352827  1
  Se  Se163  1  0.74790245  0.25056433  0.45007627  1
  Se  Se164  1  0.75568240  0.24484941  0.94265959  1
  Se  Se165  1  0.74948251  0.58528639  0.45858660  1
  Se  Se166  1  0.74849776  0.58933510  0.92408154  1
  Se  Se167  1  0.75082048  0.91381488  0.45543265  1
  Se  Se168  1  0.75308928  0.91321870  0.93613354  1
  Se  Se169  1  0.24911563  0.08349399  0.44717339  1
  Se  Se170  1  0.25685846  0.07811504  0.94088871  1
  Se  Se171  1  0.24749998  0.41442000  0.45274664  1
  Se  Se172  1  0.24627101  0.41508402  0.93901054  1
  Se  Se173  1  0.25876556  0.74050923  0.44732677  1
  Se  Se174  1  0.24359914  0.75000974  0.95188870  1
  Se  Se175  1  0.58235150  0.07377246  0.45568724  1
  Se  Se176  1  0.58830378  0.08452969  0.94481656  1
  Se  Se177  1  0.58256233  0.41825682  0.45255803  1
  Se  Se178  1  0.58410416  0.42102675  0.94088804  1
  Se  Se179  1  0.59686534  0.74275569  0.44184430  1
  Se  Se180  1  0.59446938  0.75629319  0.92452986  1
  Se  Se181  1  0.91355708  0.08679123  0.45189533  1
  Se  Se182  1  0.91665441  0.08430852  0.93739023  1
  Se  Se183  1  0.92207861  0.41602358  0.44958375  1
  Se  Se184  1  0.92401955  0.41343780  0.93390285  1
  Se  Se185  1  0.90317616  0.77037614  0.45360071  1
  Se  Se186  1  0.91074417  0.74970666  0.94040297  1
  Se  Se187  1  0.23907872  0.24743275  0.31549965  1
  Se  Se188  1  0.25386041  0.25057579  0.79590737  1
  Se  Se189  1  0.24660305  0.57659622  0.31484825  1
  Se  Se190  1  0.24069355  0.57767053  0.81308146  1
  Se  Se191  1  0.24958923  0.92086397  0.29549614  1
  Se  Se192  1  0.24296463  0.90859784  0.81173316  1
  Se  Se193  1  0.57299857  0.23641444  0.31208773  1
  Se  Se194  1  0.58608806  0.24807972  0.81515478  1
  Se  Se195  1  0.58202840  0.57741135  0.30782946  1
  Se  Se196  1  0.57298968  0.58659418  0.79002251  1
  Se  Se197  1  0.57613644  0.90864836  0.31359187  1
  Se  Se198  1  0.57009479  0.91859140  0.79198614  1
  Se  Se199  1  0.92116263  0.25718598  0.30584718  1
  Se  Se200  1  0.91928384  0.25426315  0.79260959  1
  Se  Se201  1  0.92339820  0.59053080  0.31330839  1
  Se  Se202  1  0.91585976  0.58625488  0.79614324  1
  Se  Se203  1  0.91158719  0.91565381  0.31021433  1
  Se  Se204  1  0.91750575  0.90870885  0.79692996  1
  Se  Se205  1  0.08576128  0.09131550  0.31469751  1
  Se  Se206  1  0.08909461  0.08054433  0.79723085  1
  Se  Se207  1  0.08002863  0.41780904  0.30469176  1
  Se  Se208  1  0.06388371  0.39763925  0.79928204  1
  Se  Se209  1  0.08555445  0.75510235  0.30413331  1
  Se  Se210  1  0.08106196  0.74381158  0.80754060  1
  Se  Se211  1  0.40696526  0.07620752  0.30461509  1
  Se  Se212  1  0.42337691  0.09524129  0.81827986  1
  Se  Se213  1  0.42465868  0.41840323  0.31002670  1
  Se  Se214  1  0.41935654  0.42340581  0.79806832  1
  Se  Se215  1  0.42026847  0.75724195  0.31195471  1
  Se  Se216  1  0.41655162  0.76560069  0.80512399  1
  Se  Se217  1  0.75883327  0.09274886  0.31247191  1
  Se  Se218  1  0.74775266  0.06750345  0.79697053  1
  Se  Se219  1  0.76228192  0.42901762  0.31302110  1
  Se  Se220  1  0.75528798  0.42262061  0.81004694  1
  Se  Se221  1  0.76555577  0.74262360  0.31267520  1
  Se  Se222  1  0.73299797  0.74324559  0.79072368  1
  Se  Se223  1  0.24708211  0.08853885  0.19401066  1
  Se  Se224  1  0.24796614  0.08757647  0.68500808  1
  Se  Se225  1  0.24074620  0.42715665  0.19110991  1
  Se  Se226  1  0.25317246  0.41591921  0.70699062  1
  Se  Se227  1  0.24249078  0.75787457  0.18222761  1
  Se  Se228  1  0.23651243  0.74832911  0.68893032  1
  Se  Se229  1  0.57875386  0.08847624  0.18981220  1
  Se  Se230  1  0.57982268  0.09264430  0.69952617  1
  Se  Se231  1  0.58694439  0.41920491  0.18900721  1
  Se  Se232  1  0.57998575  0.42163354  0.69034517  1
  Se  Se233  1  0.57158492  0.76029224  0.18920153  1
  Se  Se234  1  0.56742438  0.77555978  0.70318045  1
  Se  Se235  1  0.90844901  0.08888142  0.18909017  1
  Se  Se236  1  0.93955065  0.06800848  0.69702332  1
  Se  Se237  1  0.92087068  0.41677906  0.19538990  1
  Se  Se238  1  0.91547136  0.41582258  0.69478408  1
  Se  Se239  1  0.92084824  0.74410326  0.19412341  1
  Se  Se240  1  0.90365880  0.75158832  0.70518585  1
  Se  Se241  1  0.07812026  0.25102343  0.20072763  1
  Se  Se242  1  0.08368928  0.25043606  0.69099526  1
  Se  Se243  1  0.07909229  0.58903051  0.19567103  1
  Se  Se244  1  0.08113191  0.57934921  0.70484095  1
  Se  Se245  1  0.08507031  0.91347655  0.18307290  1
  Se  Se246  1  0.08356308  0.91255538  0.70092823  1
  Se  Se247  1  0.42286000  0.24944209  0.18921612  1
  Se  Se248  1  0.41437021  0.25430772  0.70116715  1
  Se  Se249  1  0.42338306  0.58152887  0.19101811  1
  Se  Se250  1  0.41513402  0.58058699  0.68356107  1
  Se  Se251  1  0.40991411  0.92662875  0.19486127  1
  Se  Se252  1  0.41234757  0.91425068  0.69124819  1
  Se  Se253  1  0.75385770  0.24676290  0.18890065  1
  Se  Se254  1  0.76619944  0.23640110  0.69535195  1
  Se  Se255  1  0.76186161  0.57151594  0.18807342  1
  Se  Se256  1  0.74531806  0.58220789  0.69441105  1
  Se  Se257  1  0.75556944  0.90526983  0.19331006  1
  Se  Se258  1  0.74112540  0.94694291  0.70883421  1
