# generated using pymatgen
data_In86Cu29Se144
_symmetry_space_group_name_H-M   'P 1'
_cell_length_a   17.58209337
_cell_length_b   17.58492885
_cell_length_c   23.44527085
_cell_angle_alpha   89.96002677
_cell_angle_beta   89.98947067
_cell_angle_gamma   89.98358120
_symmetry_Int_Tables_number   1
_chemical_formula_structural   In86Cu29Se144
_chemical_formula_sum   'In86 Cu29 Se144'
_cell_volume   7248.80339575
_cell_formula_units_Z   1
loop_
 _symmetry_equiv_pos_site_id
 _symmetry_equiv_pos_as_xyz
  1  'x, y, z'
loop_
 _atom_site_type_symbol
 _atom_site_label
 _atom_site_symmetry_multiplicity
 _atom_site_fract_x
 _atom_site_fract_y
 _atom_site_fract_z
 _atom_site_occupancy
  In  In0  1  0.00169958  0.16178856  0.13641972  1
  In  In1  1  0.00751940  0.15643781  0.61904972  1
  In  In2  1  0.00457480  0.48416627  0.12409693  1
  In  In3  1  0.00210935  0.48710596  0.63520733  1
  In  In4  1  0.00826190  0.84649425  0.11963286  1
  In  In5  1  0.01917927  0.86038351  0.60427930  1
  In  In6  1  0.34737810  0.17291246  0.12305904  1
  In  In7  1  0.33251120  0.16548872  0.62462732  1
  In  In8  1  0.32386082  0.48720650  0.11084798  1
  In  In9  1  0.34084421  0.48756615  0.64196398  1
  In  In10  1  0.32592668  0.83360165  0.11929855  1
  In  In11  1  0.33514333  0.83438292  0.62948293  1
  In  In12  1  0.65884509  0.17297107  0.12576924  1
  In  In13  1  0.66827464  0.17507350  0.61935009  1
  In  In14  1  0.66174334  0.50644121  0.12014960  1
  In  In15  1  0.65659246  0.50287750  0.62937368  1
  In  In16  1  0.66110151  0.82808396  0.11884312  1
  In  In17  1  0.67395418  0.83817766  0.61795527  1
  In  In18  1  0.16453059  0.00424336  0.38489380  1
  In  In19  1  0.15901813  -0.00511258  0.86832141  1
  In  In20  1  0.15960291  0.31956795  0.36849413  1
  In  In21  1  0.19209180  0.36601520  0.84520827  1
  In  In22  1  0.18062577  0.67153414  0.37779051  1
  In  In23  1  0.18069393  0.65268912  0.88060598  1
  In  In24  1  0.49576080  0.00134188  0.38075588  1
  In  In25  1  0.48802589  0.01120581  0.87994773  1
  In  In26  1  0.49582052  0.33426129  0.38091643  1
  In  In27  1  0.49109895  0.33254950  0.87483577  1
  In  In28  1  0.48842601  0.66954355  0.38261199  1
  In  In29  1  0.48681520  0.67971428  0.87929141  1
  In  In30  1  0.84625939  -0.00735341  0.38986900  1
  In  In31  1  0.83693297  -0.01185375  0.87041934  1
  In  In32  1  0.84236135  0.31400206  0.38338474  1
  In  In33  1  0.83826616  0.34246465  0.85571329  1
  In  In34  1  0.83843011  0.67640240  0.37639315  1
  In  In35  1  0.84293946  0.67497252  0.87620273  1
  In  In36  1  0.00301226  0.16016432  0.38054671  1
  In  In37  1  0.00756514  0.16980311  0.86719952  1
  In  In38  1  0.01696947  0.48676998  0.37594798  1
  In  In39  1  0.01100376  0.50060467  0.86996608  1
  In  In40  1  0.00127038  0.84739568  0.38708082  1
  In  In41  1  -0.00242296  0.83840412  0.87739951  1
  In  In42  1  0.32943859  0.17047303  0.38037119  1
  In  In43  1  0.34148713  0.17679653  0.86833782  1
  In  In44  1  0.34480124  0.49806388  0.37846007  1
  In  In45  1  0.33119589  0.50440662  0.87292176  1
  In  In46  1  0.33113201  0.83839800  0.38377677  1
  In  In47  1  0.32945449  0.83384168  0.87286296  1
  In  In48  1  0.66418860  0.16922091  0.38683144  1
  In  In49  1  0.65033889  0.17231687  0.87480924  1
  In  In50  1  0.65596900  0.48837915  0.37659924  1
  In  In51  1  0.66382312  0.48158075  0.86919570  1
  In  In52  1  0.65849803  0.84079912  0.37985159  1
  In  In53  1  0.66923113  0.83071817  0.87790033  1
  In  In54  1  0.16006478  -0.01064847  0.12818575  1
  In  In55  1  0.16813858  0.00231564  0.62355168  1
  In  In56  1  0.16855358  0.33060013  0.12378834  1
  In  In57  1  0.18118622  0.32136063  0.63769631  1
  In  In58  1  0.17172791  0.67148915  0.11837522  1
  In  In59  1  0.16189353  0.67877701  0.63073551  1
  In  In60  1  0.49705682  -0.00083546  0.11937912  1
  In  In61  1  0.49004442  -0.00858567  0.62033154  1
  In  In62  1  0.48237350  0.31700773  0.10452482  1
  In  In63  1  0.49309299  0.33450196  0.62691468  1
  In  In64  1  0.49672910  0.66684263  0.11687732  1
  In  In65  1  0.49614974  0.65922669  0.62189902  1
  In  In66  1  0.84966295  0.00210005  0.12865596  1
  In  In67  1  0.85100797  0.01900376  0.60561593  1
  In  In68  1  0.84171552  0.33430327  0.12577749  1
  In  In69  1  0.84822298  0.31562911  0.63800245  1
  In  In70  1  0.82434628  0.67045993  0.12064705  1
  In  In71  1  0.83069956  0.67374866  0.62506764  1
  In  In72  1  0.66400233  0.00195499  0.25531498  1
  In  In73  1  0.00263923  0.66697432  0.75332470  1
  In  In74  1  0.17391159  0.50303070  0.50743203  1
  In  In75  1  0.66564994  0.00435096  0.74724242  1
  In  In76  1  0.66932392  0.33144583  0.25035092  1
  In  In77  1  0.66482171  0.66535433  0.74488119  1
  In  In78  1  0.82647639  0.16395255  0.00345235  1
  In  In79  1  0.32660030  0.00402710  0.25367990  1
  In  In80  1  0.82707531  0.50117419  0.51076113  1
  In  In81  1  0.00269875  0.67140493  0.25208684  1
  In  In82  1  0.66318319  0.66251733  0.23902646  1
  In  In83  1  0.17402558  0.17076644  -0.00329324  1
  In  In84  1  0.83144369  0.50380205  -0.00054164  1
  In  In85  1  0.33151710  0.66924846  0.24356384  1
  Cu  Cu86  1  0.33184645  -0.00513094  -0.00156360  1
  Cu  Cu87  1  0.49583861  0.49316697  0.25009593  1
  Cu  Cu88  1  0.33501419  0.67233368  0.50589962  1
  Cu  Cu89  1  0.16940146  0.17044919  0.25507219  1
  Cu  Cu90  1  0.84494884  0.83963623  0.74323396  1
  Cu  Cu91  1  0.65981316  0.32839211  -0.00743643  1
  Cu  Cu92  1  0.66236557  0.66607296  0.49993267  1
  Cu  Cu93  1  0.33148413  0.66755333  -0.00289732  1
  Cu  Cu94  1  0.83416295  0.83825737  0.25385380  1
  Cu  Cu95  1  0.49512503  0.83778690  0.75136422  1
  Cu  Cu96  1  0.66129635  0.00095984  0.50087137  1
  Cu  Cu97  1  0.65698268  0.33820159  0.50514004  1
  Cu  Cu98  1  0.17119130  0.49033336  0.24442348  1
  Cu  Cu99  1  0.66331450  0.67100699  -0.00318182  1
  Cu  Cu100  1  0.66450867  -0.00897090  -0.00339515  1
  Cu  Cu101  1  0.33048513  0.33215965  0.50627979  1
  Cu  Cu102  1  0.49849840  0.50008843  0.75194652  1
  Cu  Cu103  1  0.00353095  0.32586807  0.50377082  1
  Cu  Cu104  1  0.84701481  0.48783534  0.25262780  1
  Cu  Cu105  1  0.84357269  0.15948352  0.25965607  1
  Cu  Cu106  1  0.01072274  0.33461577  -0.00402359  1
  Cu  Cu107  1  0.83424012  0.16143012  0.74188482  1
  Cu  Cu108  1  0.00397228  0.67246996  -0.00451472  1
  Cu  Cu109  1  0.33571772  0.00028890  0.50372141  1
  Cu  Cu110  1  0.16291301  0.15952664  0.74602846  1
  Cu  Cu111  1  0.49384800  0.17232745  0.74924422  1
  Cu  Cu112  1  0.00010198  0.67448136  0.50219973  1
  Cu  Cu113  1  -0.00098969  -0.00291155  -0.00158511  1
  Cu  Cu114  1  0.16956040  0.83594241  0.74855828  1
  Se  Se115  1  0.07731393  0.08210617  0.05652306  1
  Se  Se116  1  0.07154732  0.05930147  0.54895265  1
  Se  Se117  1  0.09163659  0.41666654  0.05150718  1
  Se  Se118  1  0.08395400  0.40721990  0.56198005  1
  Se  Se119  1  0.08330806  0.75367059  0.05423118  1
  Se  Se120  1  0.09197733  0.75255546  0.55096316  1
  Se  Se121  1  0.41313852  0.08076168  0.05143476  1
  Se  Se122  1  0.41864027  0.08696511  0.55435873  1
  Se  Se123  1  0.43818055  0.43720913  0.05316771  1
  Se  Se124  1  0.41028955  0.42081277  0.55805834  1
  Se  Se125  1  0.41196789  0.75207330  0.05257864  1
  Se  Se126  1  0.42088525  0.75450223  0.55838611  1
  Se  Se127  1  0.73910893  0.06955936  0.06395070  1
  Se  Se128  1  0.74481835  0.08867053  0.54959771  1
  Se  Se129  1  0.74186647  0.40367440  0.05636482  1
  Se  Se130  1  0.74450136  0.40544298  0.56907610  1
  Se  Se131  1  0.74942855  0.75255567  0.04913222  1
  Se  Se132  1  0.74989463  0.74637800  0.55088906  1
  Se  Se133  1  0.26590652  0.26141201  0.05247659  1
  Se  Se134  1  0.24540718  0.24688599  0.55518919  1
  Se  Se135  1  0.24658711  0.58383839  0.05005414  1
  Se  Se136  1  0.26020306  0.59100050  0.56954322  1
  Se  Se137  1  0.24309286  0.91928515  0.05296985  1
  Se  Se138  1  0.25435879  0.91595365  0.55818243  1
  Se  Se139  1  0.58311777  0.23982271  0.04617241  1
  Se  Se140  1  0.57366310  0.25165023  0.55571775  1
  Se  Se141  1  0.58255205  0.58530928  0.04925331  1
  Se  Se142  1  0.58292787  0.58019958  0.55316572  1
  Se  Se143  1  0.57854429  0.91290666  0.05261616  1
  Se  Se144  1  0.58124004  0.91453123  0.55378746  1
  Se  Se145  1  0.93039806  0.25229566  0.05555816  1
  Se  Se146  1  0.91742080  0.24510367  0.55638156  1
  Se  Se147  1  0.92739519  0.59031252  0.06028176  1
  Se  Se148  1  0.93012861  0.58804834  0.56318454  1
  Se  Se149  1  0.91207807  0.91689700  0.05186839  1
  Se  Se150  1  0.89191370  0.89481543  0.55694975  1
  Se  Se151  1  0.08805313  0.24690099  0.44780632  1
  Se  Se152  1  0.08862797  0.25856058  0.93343549  1
  Se  Se153  1  0.07982774  0.59089843  0.44369636  1
  Se  Se154  1  0.08124572  0.58184332  0.94540709  1
  Se  Se155  1  0.07687872  0.93299019  0.45816766  1
  Se  Se156  1  0.08568969  0.91705888  0.94587655  1
  Se  Se157  1  0.41447107  0.25099589  0.44994433  1
  Se  Se158  1  0.42287526  0.24093079  0.94545682  1
  Se  Se159  1  0.41355506  0.58292294  0.45275457  1
  Se  Se160  1  0.41563415  0.58436903  0.94456594  1
  Se  Se161  1  0.41934576  0.91535180  0.45090099  1
  Se  Se162  1  0.41603588  0.91344089  0.94346228  1
  Se  Se163  1  0.74436760  0.25686725  0.45307036  1
  Se  Se164  1  0.75190597  0.25756200  0.93522908  1
  Se  Se165  1  0.74403615  0.58644493  0.43821109  1
  Se  Se166  1  0.74134606  0.58963631  0.93492847  1
  Se  Se167  1  0.74529978  0.91609245  0.44805418  1
  Se  Se168  1  0.75393075  0.91535028  0.94379542  1
  Se  Se169  1  0.25300303  0.08472109  0.45015511  1
  Se  Se170  1  0.25605375  0.07637412  0.93509929  1
  Se  Se171  1  0.25131658  0.40969540  0.44093364  1
  Se  Se172  1  0.24496036  0.41963675  0.93822328  1
  Se  Se173  1  0.24975162  0.75340312  0.45261828  1
  Se  Se174  1  0.24754808  0.75282712  0.94511745  1
  Se  Se175  1  0.57658901  0.08504233  0.44957479  1
  Se  Se176  1  0.58546428  0.08052145  0.94610590  1
  Se  Se177  1  0.57411920  0.42106714  0.45176325  1
  Se  Se178  1  0.57856749  0.41653612  0.94357679  1
  Se  Se179  1  0.58058276  0.74946189  0.44501437  1
  Se  Se180  1  0.57958719  0.75588523  0.94525058  1
  Se  Se181  1  0.90544788  0.09862104  0.45011224  1
  Se  Se182  1  0.92040822  0.08132643  0.94001726  1
  Se  Se183  1  0.92386654  0.41451881  0.44908420  1
  Se  Se184  1  0.91832298  0.40972914  0.94101547  1
  Se  Se185  1  0.91615714  0.75449098  0.44778499  1
  Se  Se186  1  0.91565586  0.75627791  0.94907280  1
  Se  Se187  1  0.25872575  0.25207457  0.30313849  1
  Se  Se188  1  0.24659703  0.24324376  0.79897052  1
  Se  Se189  1  0.24629215  0.57277379  0.30651215  1
  Se  Se190  1  0.24967388  0.58373490  0.80048468  1
  Se  Se191  1  0.23965745  0.91104546  0.31215919  1
  Se  Se192  1  0.25205658  0.92024475  0.80232678  1
  Se  Se193  1  0.57996256  0.24423583  0.31080159  1
  Se  Se194  1  0.57829344  0.25497421  0.80210984  1
  Se  Se195  1  0.57439215  0.57856956  0.30743464  1
  Se  Se196  1  0.57650236  0.58388667  0.81199279  1
  Se  Se197  1  0.56766519  0.90896023  0.30566462  1
  Se  Se198  1  0.57907471  0.91477480  0.81036063  1
  Se  Se199  1  0.92592534  0.24866845  0.30781463  1
  Se  Se200  1  0.91612697  0.24331463  0.79909864  1
  Se  Se201  1  0.91713217  0.57392316  0.31412788  1
  Se  Se202  1  0.90573889  0.57600178  0.80807160  1
  Se  Se203  1  0.91657315  0.91640127  0.31059902  1
  Se  Se204  1  0.92695807  0.91964603  0.79969839  1
  Se  Se205  1  0.09003685  0.08456739  0.30929001  1
  Se  Se206  1  0.07756239  0.07715395  0.79866476  1
  Se  Se207  1  0.08520509  0.41013005  0.29832571  1
  Se  Se208  1  0.06199350  0.39937996  0.80147670  1
  Se  Se209  1  0.08810716  0.75741070  0.31633465  1
  Se  Se210  1  0.09346600  0.75509840  0.81318969  1
  Se  Se211  1  0.42203162  0.09157253  0.30883670  1
  Se  Se212  1  0.41479699  0.08263594  0.80045999  1
  Se  Se213  1  0.41559824  0.41208454  0.30623482  1
  Se  Se214  1  0.41367394  0.41758179  0.80448954  1
  Se  Se215  1  0.41659800  0.75759360  0.30860260  1
  Se  Se216  1  0.41173434  0.75124756  0.80113087  1
  Se  Se217  1  0.75496859  0.08742074  0.31718261  1
  Se  Se218  1  0.75486724  0.09189077  0.81168637  1
  Se  Se219  1  0.76182868  0.41718031  0.31463485  1
  Se  Se220  1  0.74358225  0.41550532  0.79324168  1
  Se  Se221  1  0.74860246  0.75412059  0.30532201  1
  Se  Se222  1  0.76067199  0.75962030  0.80107678  1
  Se  Se223  1  0.24293179  0.09387514  0.18623601  1
  Se  Se224  1  0.25210948  0.08043772  0.69426736  1
  Se  Se225  1  0.25743393  0.41102902  0.19149891  1
  Se  Se226  1  0.24055985  0.42139732  0.70440256  1
  Se  Se227  1  0.23444041  0.76328992  0.19544791  1
  Se  Se228  1  0.25297996  0.74975918  0.69918765  1
  Se  Se229  1  0.57316991  0.08974428  0.19379081  1
  Se  Se230  1  0.57333153  0.09131281  0.68777478  1
  Se  Se231  1  0.58096226  0.41981986  0.18896862  1
  Se  Se232  1  0.57850540  0.41637012  0.69688356  1
  Se  Se233  1  0.56782682  0.75829802  0.19250609  1
  Se  Se234  1  0.57836923  0.76233776  0.68939404  1
  Se  Se235  1  0.92469602  0.07505260  0.20576236  1
  Se  Se236  1  0.91957849  0.07844033  0.69150471  1
  Se  Se237  1  0.92711450  0.40521272  0.19834638  1
  Se  Se238  1  0.90918353  0.41907241  0.70091022  1
  Se  Se239  1  0.90823311  0.75561857  0.19043292  1
  Se  Se240  1  0.92502754  0.75813555  0.68533300  1
  Se  Se241  1  0.08748600  0.25083533  0.19575947  1
  Se  Se242  1  0.07907606  0.24308835  0.69241972  1
  Se  Se243  1  0.09057969  0.57781373  0.19055553  1
  Se  Se244  1  0.09372344  0.57452268  0.69639247  1
  Se  Se245  1  0.07263577  0.92183195  0.19980223  1
  Se  Se246  1  0.08496282  0.91645476  0.69343577  1
  Se  Se247  1  0.42433024  0.25495383  0.19325244  1
  Se  Se248  1  0.40779797  0.25402974  0.69594196  1
  Se  Se249  1  0.41959661  0.57437268  0.18754490  1
  Se  Se250  1  0.41874903  0.58861699  0.69969295  1
  Se  Se251  1  0.41387027  0.91377128  0.19066857  1
  Se  Se252  1  0.41301880  0.92309408  0.69952109  1
  Se  Se253  1  0.76492969  0.23585193  0.19404943  1
  Se  Se254  1  0.74362836  0.24628158  0.69815578  1
  Se  Se255  1  0.76573007  0.56648110  0.19279742  1
  Se  Se256  1  0.76176534  0.57532517  0.69273041  1
  Se  Se257  1  0.75115871  0.91211673  0.19051201  1
  Se  Se258  1  0.76055259  0.92083361  0.68715017  1
