# generated using pymatgen
data_In86Cu29Se144
_symmetry_space_group_name_H-M   'P 1'
_cell_length_a   17.58423012
_cell_length_b   17.57969636
_cell_length_c   23.44896821
_cell_angle_alpha   90.02453287
_cell_angle_beta   89.99112433
_cell_angle_gamma   90.00984580
_symmetry_Int_Tables_number   1
_chemical_formula_structural   In86Cu29Se144
_chemical_formula_sum   'In86 Cu29 Se144'
_cell_volume   7248.67143312
_cell_formula_units_Z   1
loop_
 _symmetry_equiv_pos_site_id
 _symmetry_equiv_pos_as_xyz
  1  'x, y, z'
loop_
 _atom_site_type_symbol
 _atom_site_label
 _atom_site_symmetry_multiplicity
 _atom_site_fract_x
 _atom_site_fract_y
 _atom_site_fract_z
 _atom_site_occupancy
  In  In0  1  -0.00051210  0.15172573  0.12748304  1
  In  In1  1  0.00082813  0.18527221  0.63729297  1
  In  In2  1  -0.00635614  0.51468963  0.12525520  1
  In  In3  1  0.00081076  0.50054178  0.61974705  1
  In  In4  1  0.00556812  0.83896953  0.11642264  1
  In  In5  1  -0.00615764  0.82253078  0.61575487  1
  In  In6  1  0.31066159  0.11468462  0.08164494  1
  In  In7  1  0.32944451  0.13939782  0.63044584  1
  In  In8  1  0.32508273  0.49751375  0.12250705  1
  In  In9  1  0.33499125  0.51988399  0.62930547  1
  In  In10  1  0.35906157  0.87178029  0.09272520  1
  In  In11  1  0.33298695  0.83584433  0.62225688  1
  In  In12  1  0.64443334  0.15585792  0.11597224  1
  In  In13  1  0.65632305  0.15693660  0.61621207  1
  In  In14  1  0.68189530  0.49535474  0.12259435  1
  In  In15  1  0.67358623  0.48826593  0.62124934  1
  In  In16  1  0.67009674  0.83485385  0.12971345  1
  In  In17  1  0.67325947  0.84475607  0.61839391  1
  In  In18  1  0.15127213  -0.01162286  0.36085532  1
  In  In19  1  0.17827818  -0.00775904  0.88741906  1
  In  In20  1  0.17470594  0.33591748  0.38097648  1
  In  In21  1  0.15458580  0.33504534  0.87585944  1
  In  In22  1  0.13982229  0.68584354  0.40143142  1
  In  In23  1  0.17077676  0.68227014  0.86078595  1
  In  In24  1  0.50027855  -0.00221571  0.37513122  1
  In  In25  1  0.50044464  -0.00429558  0.87742735  1
  In  In26  1  0.48744681  0.32789184  0.38040127  1
  In  In27  1  0.49241827  0.32124010  0.87315890  1
  In  In28  1  0.51952226  0.66878042  0.36887195  1
  In  In29  1  0.49697860  0.68988164  0.87717103  1
  In  In30  1  0.83483005  -0.00706813  0.37327237  1
  In  In31  1  0.81711205  0.00378112  0.87107919  1
  In  In32  1  0.82866185  0.33345015  0.38175088  1
  In  In33  1  0.85366637  0.32827741  0.87158759  1
  In  In34  1  0.82036085  0.69181011  0.39855801  1
  In  In35  1  0.83931090  0.66233422  0.87599528  1
  In  In36  1  -0.00093854  0.14534130  0.37410539  1
  In  In37  1  -0.00320560  0.18389773  0.87021576  1
  In  In38  1  -0.01112855  0.51887965  0.39562118  1
  In  In39  1  -0.00538699  0.49906479  0.86520509  1
  In  In40  1  -0.01258788  0.84845467  0.39436910  1
  In  In41  1  0.00714636  0.82797787  0.87596417  1
  In  In42  1  0.33894273  0.16319651  0.37877452  1
  In  In43  1  0.34471844  0.14452313  0.89143675  1
  In  In44  1  0.32792775  0.49272866  0.38198515  1
  In  In45  1  0.31422231  0.50178534  0.86854472  1
  In  In46  1  0.32343104  0.84687087  0.37773600  1
  In  In47  1  0.33374920  0.84301955  0.87506357  1
  In  In48  1  0.67425859  0.15377868  0.38089223  1
  In  In49  1  0.67724894  0.14710346  0.87388936  1
  In  In50  1  0.67058988  0.51751629  0.37189393  1
  In  In51  1  0.67501694  0.50592714  0.87914329  1
  In  In52  1  0.66817035  0.83257208  0.37085127  1
  In  In53  1  0.65644986  0.84396734  0.88341309  1
  In  In54  1  0.16374877  -0.00237793  0.12273602  1
  In  In55  1  0.18243119  0.00485163  0.63127994  1
  In  In56  1  0.18506858  0.32158819  0.12836396  1
  In  In57  1  0.14381631  0.32305139  0.63242673  1
  In  In58  1  0.15238085  0.67645838  0.12836591  1
  In  In59  1  0.16778152  0.67142589  0.61873271  1
  In  In60  1  0.50705577  0.00361626  0.13174419  1
  In  In61  1  0.49835919  -0.00448997  0.62169692  1
  In  In62  1  0.50489351  0.30043971  0.12080524  1
  In  In63  1  0.51390061  0.32748573  0.62542938  1
  In  In64  1  0.49607507  0.68719610  0.12502454  1
  In  In65  1  0.48357202  0.67286545  0.62791186  1
  In  In66  1  0.84245340  -0.01413070  0.13945333  1
  In  In67  1  0.82720032  -0.00825607  0.62106251  1
  In  In68  1  0.81433407  0.33855570  0.11581212  1
  In  In69  1  0.84342657  0.34306512  0.61697248  1
  In  In70  1  0.83278502  0.66231937  0.11943013  1
  In  In71  1  0.84394256  0.67236588  0.61454233  1
  In  In72  1  0.32572134  0.67220648  0.25221798  1
  In  In73  1  0.83219549  0.16805860  -0.00210798  1
  In  In74  1  -0.00914804  0.67912625  0.26127887  1
  In  In75  1  0.50220621  0.50159621  -0.00125101  1
  In  In76  1  0.67493549  0.32931492  0.74921365  1
  In  In77  1  0.16675772  0.16350049  0.50681641  1
  In  In78  1  0.00359599  0.33164158  0.24819353  1
  In  In79  1  0.50378660  0.50022412  0.49891802  1
  In  In80  1  0.00583428  0.00095214  0.75153849  1
  In  In81  1  0.33831415  0.32471288  0.25802790  1
  In  In82  1  0.66374093  0.32484804  0.24417949  1
  In  In83  1  0.66863141  0.67430149  0.74570943  1
  In  In84  1  0.32372481  0.32568916  0.75202192  1
  In  In85  1  0.15456831  0.49930292  -0.00234322  1
  Cu  Cu86  1  0.50785886  0.50616872  0.24342245  1
  Cu  Cu87  1  0.83001761  0.83241026  0.74441208  1
  Cu  Cu88  1  0.83370221  0.16098858  0.25152392  1
  Cu  Cu89  1  0.66827213  -0.00683196  0.00359877  1
  Cu  Cu90  1  0.16393772  0.50190536  0.26595872  1
  Cu  Cu91  1  0.66995335  0.67287877  0.00122730  1
  Cu  Cu92  1  0.33341790  0.33191336  0.51014028  1
  Cu  Cu93  1  -0.00265423  0.00075504  0.50400832  1
  Cu  Cu94  1  0.83129954  0.50580895  0.24729437  1
  Cu  Cu95  1  -0.00662267  0.66850571  -0.00325412  1
  Cu  Cu96  1  0.00174818  0.33775809  0.00064341  1
  Cu  Cu97  1  0.49228898  0.84476509  0.75064962  1
  Cu  Cu98  1  0.49856978  0.51017408  0.75459150  1
  Cu  Cu99  1  0.49692399  0.15764236  0.25248038  1
  Cu  Cu100  1  0.49953738  0.83867115  0.24726163  1
  Cu  Cu101  1  0.49741883  0.15425862  0.74879196  1
  Cu  Cu102  1  0.66365939  -0.00383997  0.49566708  1
  Cu  Cu103  1  0.32646689  0.67204919  -0.00759428  1
  Cu  Cu104  1  -0.00122328  0.33201018  0.50272196  1
  Cu  Cu105  1  0.33449295  -0.00049442  0.49996268  1
  Cu  Cu106  1  0.66532353  0.67058090  0.50115449  1
  Cu  Cu107  1  0.66881209  0.32625883  0.49895409  1
  Cu  Cu108  1  0.33529267  0.67359018  0.50004035  1
  Cu  Cu109  1  0.16900107  0.82870737  0.74822875  1
  Cu  Cu110  1  -0.00194470  0.00040575  0.00052020  1
  Cu  Cu111  1  0.84478883  0.50273808  0.74400046  1
  Cu  Cu112  1  0.16111612  0.50594432  0.74349415  1
  Cu  Cu113  1  0.17258335  0.84046827  0.24299227  1
  Cu  Cu114  1  0.33907029  0.32023415  0.00111553  1
  Se  Se115  1  0.08106544  0.08465787  0.05164613  1
  Se  Se116  1  0.07397155  0.07872573  0.56841320  1
  Se  Se117  1  0.07867534  0.41015940  0.06996103  1
  Se  Se118  1  0.08706415  0.41017180  0.55522771  1
  Se  Se119  1  0.08195507  0.74768931  0.04846662  1
  Se  Se120  1  0.08473824  0.74959545  0.54830105  1
  Se  Se121  1  0.45498974  0.11144090  0.06407104  1
  Se  Se122  1  0.41709828  0.08434035  0.55243096  1
  Se  Se123  1  0.41328894  0.40659048  0.06113219  1
  Se  Se124  1  0.41566362  0.41528128  0.56605625  1
  Se  Se125  1  0.41554938  0.74927139  0.04598339  1
  Se  Se126  1  0.42018260  0.75638845  0.55125826  1
  Se  Se127  1  0.75159856  0.07478025  0.06177697  1
  Se  Se128  1  0.74716376  0.07738021  0.55138303  1
  Se  Se129  1  0.74851404  0.42291226  0.04226209  1
  Se  Se130  1  0.75116156  0.41507095  0.54671623  1
  Se  Se131  1  0.75187356  0.75432317  0.05679465  1
  Se  Se132  1  0.75127005  0.75376147  0.55253273  1
  Se  Se133  1  0.24514553  0.24356198  0.04744293  1
  Se  Se134  1  0.25585129  0.25175011  0.57130411  1
  Se  Se135  1  0.24918398  0.59173656  0.05564376  1
  Se  Se136  1  0.25549991  0.58550698  0.55163895  1
  Se  Se137  1  0.22989854  0.90454278  0.05056241  1
  Se  Se138  1  0.24794360  0.92058503  0.55458001  1
  Se  Se139  1  0.61372766  0.27155867  0.05188372  1
  Se  Se140  1  0.57819041  0.24740826  0.54746873  1
  Se  Se141  1  0.58684115  0.59260003  0.06220725  1
  Se  Se142  1  0.58734193  0.59104791  0.56446681  1
  Se  Se143  1  0.58362674  0.91565444  0.06073917  1
  Se  Se144  1  0.57957284  0.91421724  0.55023586  1
  Se  Se145  1  0.92293482  0.25719628  0.06268502  1
  Se  Se146  1  0.91983378  0.24389493  0.55531769  1
  Se  Se147  1  0.91355892  0.57955202  0.04738235  1
  Se  Se148  1  0.90397509  0.56756002  0.55316636  1
  Se  Se149  1  0.91236517  0.92113216  0.05426022  1
  Se  Se150  1  0.91219108  0.91236290  0.55150137  1
  Se  Se151  1  0.07662041  0.24995894  0.44106216  1
  Se  Se152  1  0.08069652  0.25053300  0.94805441  1
  Se  Se153  1  0.11085307  0.55728086  0.44836758  1
  Se  Se154  1  0.07840594  0.59364211  0.93312573  1
  Se  Se155  1  0.08982316  0.92534619  0.45027566  1
  Se  Se156  1  0.07999491  0.91503947  0.94723471  1
  Se  Se157  1  0.41133248  0.24839819  0.45297740  1
  Se  Se158  1  0.42807996  0.24062099  0.95075229  1
  Se  Se159  1  0.41592930  0.59309515  0.43835173  1
  Se  Se160  1  0.40574819  0.58585947  0.93599236  1
  Se  Se161  1  0.41755154  0.91593419  0.44632397  1
  Se  Se162  1  0.42008094  0.91348372  0.94804716  1
  Se  Se163  1  0.75350041  0.24213840  0.44758732  1
  Se  Se164  1  0.74753019  0.25696996  0.93350022  1
  Se  Se165  1  0.74836571  0.58210562  0.45151354  1
  Se  Se166  1  0.75198683  0.58887322  0.94844362  1
  Se  Se167  1  0.74916028  0.91358560  0.44327726  1
  Se  Se168  1  0.75480597  0.91631047  0.94743878  1
  Se  Se169  1  0.24680659  0.07417496  0.44020485  1
  Se  Se170  1  0.25761890  0.07167370  0.96237398  1
  Se  Se171  1  0.25127612  0.41388628  0.45570426  1
  Se  Se172  1  0.25679378  0.40779724  0.94630227  1
  Se  Se173  1  0.25097855  0.75817576  0.44901265  1
  Se  Se174  1  0.24485016  0.75489890  0.93900493  1
  Se  Se175  1  0.57872014  0.08325696  0.44661533  1
  Se  Se176  1  0.58999803  0.07756554  0.94542329  1
  Se  Se177  1  0.59308671  0.41051291  0.43551826  1
  Se  Se178  1  0.58537664  0.41068836  0.93495367  1
  Se  Se179  1  0.58432964  0.75174735  0.44471111  1
  Se  Se180  1  0.58128964  0.75460505  0.95280979  1
  Se  Se181  1  0.91294088  0.07848899  0.44704908  1
  Se  Se182  1  0.92140123  0.07959077  0.93598758  1
  Se  Se183  1  0.91408427  0.41365808  0.44905522  1
  Se  Se184  1  0.92271485  0.41909558  0.94276921  1
  Se  Se185  1  0.95090006  0.72186811  0.44298789  1
  Se  Se186  1  0.91326118  0.75451386  0.94344409  1
  Se  Se187  1  0.23916332  0.23817207  0.31114496  1
  Se  Se188  1  0.25447930  0.24276170  0.82742685  1
  Se  Se189  1  0.24308614  0.58707371  0.32096633  1
  Se  Se190  1  0.24723305  0.58773954  0.79597982  1
  Se  Se191  1  0.25558928  0.92297863  0.29762000  1
  Se  Se192  1  0.24333704  0.91663819  0.80459435  1
  Se  Se193  1  0.57477615  0.24361020  0.31205762  1
  Se  Se194  1  0.57899429  0.23909799  0.80469775  1
  Se  Se195  1  0.59316985  0.58776594  0.29423295  1
  Se  Se196  1  0.58059165  0.58775560  0.81327261  1
  Se  Se197  1  0.58271739  0.91711266  0.30454226  1
  Se  Se198  1  0.58426592  0.91757859  0.80428622  1
  Se  Se199  1  0.90980278  0.24637335  0.30987563  1
  Se  Se200  1  0.91356325  0.24774483  0.79322396  1
  Se  Se201  1  0.90486045  0.57984888  0.31412322  1
  Se  Se202  1  0.91987437  0.59218197  0.79872232  1
  Se  Se203  1  0.92290250  0.90881338  0.30944742  1
  Se  Se204  1  0.90929620  0.91097306  0.80877736  1
  Se  Se205  1  0.08740130  0.09046360  0.29848342  1
  Se  Se206  1  0.08897437  0.08277350  0.82098194  1
  Se  Se207  1  0.07866597  0.42095015  0.31912948  1
  Se  Se208  1  0.08641940  0.41927766  0.80103579  1
  Se  Se209  1  0.09784723  0.76104808  0.30906527  1
  Se  Se210  1  0.07382736  0.75095603  0.79474900  1
  Se  Se211  1  0.41158138  0.07835218  0.30666568  1
  Se  Se212  1  0.41516255  0.07796572  0.80768454  1
  Se  Se213  1  0.42851661  0.43043091  0.30758606  1
  Se  Se214  1  0.41910954  0.42284313  0.80825551  1
  Se  Se215  1  0.42180504  0.75770358  0.31127534  1
  Se  Se216  1  0.41259880  0.75679618  0.80288492  1
  Se  Se217  1  0.75047593  0.07877513  0.30529401  1
  Se  Se218  1  0.75890067  0.09138108  0.79418242  1
  Se  Se219  1  0.75231901  0.41925053  0.30445878  1
  Se  Se220  1  0.76162047  0.42767030  0.80631054  1
  Se  Se221  1  0.75724605  0.74504278  0.31002894  1
  Se  Se222  1  0.75151369  0.75962908  0.81257410  1
  Se  Se223  1  0.25619981  0.08506623  0.18041322  1
  Se  Se224  1  0.23918281  0.09360651  0.70843724  1
  Se  Se225  1  0.24352014  0.42419967  0.20287305  1
  Se  Se226  1  0.24544569  0.42208128  0.68738599  1
  Se  Se227  1  0.25197767  0.76114665  0.18218151  1
  Se  Se228  1  0.25241364  0.74897637  0.69093199  1
  Se  Se229  1  0.59223492  0.08318525  0.20326898  1
  Se  Se230  1  0.58267934  0.07778090  0.69180503  1
  Se  Se231  1  0.57424277  0.41632752  0.18280951  1
  Se  Se232  1  0.57758208  0.42758834  0.69736902  1
  Se  Se233  1  0.58321649  0.75096125  0.19906546  1
  Se  Se234  1  0.57404373  0.76385315  0.69025933  1
  Se  Se235  1  0.92232967  0.07846658  0.20296738  1
  Se  Se236  1  0.91222555  0.08284800  0.68885423  1
  Se  Se237  1  0.90711165  0.42101407  0.18910019  1
  Se  Se238  1  0.92436469  0.41391892  0.69324880  1
  Se  Se239  1  0.91325913  0.75641842  0.18602903  1
  Se  Se240  1  0.91424146  0.74965693  0.69310807  1
  Se  Se241  1  0.09415931  0.24001996  0.19264101  1
  Se  Se242  1  0.09835131  0.23423950  0.71159241  1
  Se  Se243  1  0.08521087  0.58015188  0.20255062  1
  Se  Se244  1  0.08243986  0.58772587  0.68699465  1
  Se  Se245  1  0.07911374  0.91680276  0.19336507  1
  Se  Se246  1  0.08740972  0.90768355  0.68580908  1
  Se  Se247  1  0.41397048  0.23301995  0.19185759  1
  Se  Se248  1  0.42315353  0.24374664  0.69096256  1
  Se  Se249  1  0.41618655  0.57948004  0.18872995  1
  Se  Se250  1  0.41347426  0.59339255  0.70498243  1
  Se  Se251  1  0.41397957  0.91547582  0.19020297  1
  Se  Se252  1  0.40910905  0.92345382  0.69368876  1
  Se  Se253  1  0.75594250  0.23559173  0.18590006  1
  Se  Se254  1  0.75136371  0.24845693  0.67696104  1
  Se  Se255  1  0.74842158  0.58685562  0.19321976  1
  Se  Se256  1  0.75516971  0.57776800  0.68864932  1
  Se  Se257  1  0.73905658  0.92464158  0.20146876  1
  Se  Se258  1  0.74549552  0.91879437  0.69749906  1
