# generated using pymatgen
data_In86Cu29Se144
_symmetry_space_group_name_H-M   'P 1'
_cell_length_a   17.57109440
_cell_length_b   17.57437583
_cell_length_c   23.43172588
_cell_angle_alpha   90.01437562
_cell_angle_beta   89.99320703
_cell_angle_gamma   89.99762322
_symmetry_Int_Tables_number   1
_chemical_formula_structural   In86Cu29Se144
_chemical_formula_sum   'In86 Cu29 Se144'
_cell_volume   7235.74048916
_cell_formula_units_Z   1
loop_
 _symmetry_equiv_pos_site_id
 _symmetry_equiv_pos_as_xyz
  1  'x, y, z'
loop_
 _atom_site_type_symbol
 _atom_site_label
 _atom_site_symmetry_multiplicity
 _atom_site_fract_x
 _atom_site_fract_y
 _atom_site_fract_z
 _atom_site_occupancy
  In  In0  1  -0.01611898  0.13946996  0.09724789  1
  In  In1  1  0.01022786  0.17091958  0.61881906  1
  In  In2  1  0.02083819  0.50468272  0.11844292  1
  In  In3  1  0.00837565  0.48551725  0.64020293  1
  In  In4  1  0.00228817  0.83247868  0.12547279  1
  In  In5  1  -0.00564107  0.83505814  0.63259742  1
  In  In6  1  0.32787406  0.16769351  0.13301507  1
  In  In7  1  0.33064321  0.16970683  0.62326454  1
  In  In8  1  0.32860488  0.49511814  0.12710649  1
  In  In9  1  0.32544087  0.49555001  0.61748504  1
  In  In10  1  0.32213735  0.84379355  0.13279352  1
  In  In11  1  0.33496657  0.82616989  0.62405572  1
  In  In12  1  0.66959161  0.15133558  0.13278444  1
  In  In13  1  0.66674593  0.16865059  0.61524233  1
  In  In14  1  0.66133799  0.51173471  0.12506586  1
  In  In15  1  0.65706558  0.50681977  0.61857619  1
  In  In16  1  0.68322127  0.84007743  0.13145132  1
  In  In17  1  0.66566095  0.83881650  0.62323380  1
  In  In18  1  0.17354228  0.00522894  0.36572462  1
  In  In19  1  0.16859683  0.00109791  0.88557939  1
  In  In20  1  0.17563076  0.32530057  0.37882497  1
  In  In21  1  0.16907890  0.33356268  0.87224621  1
  In  In22  1  0.15936901  0.65807917  0.37048375  1
  In  In23  1  0.14806136  0.66718190  0.89184732  1
  In  In24  1  0.49620454  0.00202738  0.37712252  1
  In  In25  1  0.49392925  0.01138226  0.87347509  1
  In  In26  1  0.48640396  0.34472138  0.38400444  1
  In  In27  1  0.50006946  0.34560782  0.87092366  1
  In  In28  1  0.49610653  0.67830995  0.38550500  1
  In  In29  1  0.48337728  0.66112504  0.87498337  1
  In  In30  1  0.84550732  0.00745569  0.35960310  1
  In  In31  1  0.85034575  -0.00587439  0.89126822  1
  In  In32  1  0.82499420  0.33220911  0.37674693  1
  In  In33  1  0.83784702  0.32096758  0.86973607  1
  In  In34  1  0.83915816  0.66888109  0.36827063  1
  In  In35  1  0.88621919  0.66166838  0.88697254  1
  In  In36  1  0.00991674  0.16283168  0.37911159  1
  In  In37  1  -0.00815431  0.17597146  0.87866404  1
  In  In38  1  0.00027803  0.51613585  0.37368444  1
  In  In39  1  0.01008500  0.50956225  0.86147963  1
  In  In40  1  -0.00119711  0.83644767  0.35776153  1
  In  In41  1  0.02845999  0.82230168  0.91640069  1
  In  In42  1  0.32681670  0.16964438  0.37399622  1
  In  In43  1  0.32520823  0.15689746  0.86239780  1
  In  In44  1  0.33025927  0.49856164  0.37320333  1
  In  In45  1  0.33679573  0.49462825  0.87707164  1
  In  In46  1  0.34550049  0.84151592  0.36672541  1
  In  In47  1  0.29829521  0.83051107  0.87486260  1
  In  In48  1  0.67259639  0.15724573  0.38211802  1
  In  In49  1  0.68096286  0.16424180  0.87537448  1
  In  In50  1  0.66468850  0.50020433  0.38066964  1
  In  In51  1  0.66106407  0.49559045  0.88143469  1
  In  In52  1  0.65158806  0.83132745  0.37580371  1
  In  In53  1  0.67739268  0.83987412  0.87654660  1
  In  In54  1  0.16712894  -0.00114842  0.12058721  1
  In  In55  1  0.15990847  0.01697265  0.62402850  1
  In  In56  1  0.17119081  0.32535778  0.12113926  1
  In  In57  1  0.16941093  0.33645602  0.62692292  1
  In  In58  1  0.16639498  0.67254875  0.12485741  1
  In  In59  1  0.17085360  0.65494478  0.62682130  1
  In  In60  1  0.50172014  -0.00176966  0.13869181  1
  In  In61  1  0.48952181  -0.00652059  0.61433342  1
  In  In62  1  0.48141906  0.32913417  0.12714561  1
  In  In63  1  0.49050851  0.32478506  0.61555247  1
  In  In64  1  0.49860886  0.64974140  0.12439663  1
  In  In65  1  0.50415899  0.66595332  0.60570981  1
  In  In66  1  0.83652314  -0.00693848  0.13092549  1
  In  In67  1  0.82472675  -0.00033814  0.62542645  1
  In  In68  1  0.85076484  0.33078652  0.12154083  1
  In  In69  1  0.84865336  0.32365197  0.63288289  1
  In  In70  1  0.85407822  0.70087656  0.11510349  1
  In  In71  1  0.84223807  0.66690055  0.63359778  1
  In  In72  1  0.66395147  0.33383026  0.26143952  1
  In  In73  1  0.01561811  0.32971286  0.24431893  1
  In  In74  1  0.32550045  0.66487678  0.74719514  1
  In  In75  1  0.83271079  0.49548774  0.50201363  1
  In  In76  1  0.83162933  0.49483390  -0.00130636  1
  In  In77  1  0.49556328  0.17074460  0.00182733  1
  In  In78  1  0.82572026  0.83141362  0.49862097  1
  In  In79  1  0.49636011  0.82914461  0.00197947  1
  In  In80  1  0.16912307  0.83559534  0.49440762  1
  In  In81  1  0.66996401  0.32888387  0.74991344  1
  In  In82  1  0.67146490  0.66904899  0.74656006  1
  In  In83  1  0.66586502  0.67094575  0.25014308  1
  In  In84  1  0.66812087  0.00043193  0.75285326  1
  In  In85  1  0.00317662  -0.00027940  0.75531462  1
  Cu  Cu86  1  0.00471700  0.66391873  0.50078140  1
  Cu  Cu87  1  0.49202702  0.16577219  0.25671853  1
  Cu  Cu88  1  0.17242244  0.50140205  0.24573118  1
  Cu  Cu89  1  0.33246392  -0.00366761  -0.00021999  1
  Cu  Cu90  1  0.84567728  0.82154537  0.76021106  1
  Cu  Cu91  1  0.66436833  0.32867737  0.49891262  1
  Cu  Cu92  1  0.16787922  0.49875160  0.75098210  1
  Cu  Cu93  1  0.84140424  0.51550122  0.24422578  1
  Cu  Cu94  1  0.49602682  0.16723016  0.74268481  1
  Cu  Cu95  1  0.66384952  -0.00117710  0.49827768  1
  Cu  Cu96  1  0.33474768  0.66401399  0.49667951  1
  Cu  Cu97  1  0.84023945  0.16815202  0.24643483  1
  Cu  Cu98  1  0.67701801  0.00176659  0.00734694  1
  Cu  Cu99  1  0.32908347  0.65493968  0.00360232  1
  Cu  Cu100  1  0.49650939  0.83199762  0.25405680  1
  Cu  Cu101  1  0.16160619  0.15759977  0.24521462  1
  Cu  Cu102  1  0.49140264  0.49621248  0.25256145  1
  Cu  Cu103  1  0.66540684  0.66285488  0.00128720  1
  Cu  Cu104  1  -0.00381184  0.00727049  0.49370745  1
  Cu  Cu105  1  0.33035320  0.00618164  0.49332196  1
  Cu  Cu106  1  0.48851336  0.83902742  0.74323820  1
  Cu  Cu107  1  0.49308352  0.49908988  0.74600143  1
  Cu  Cu108  1  0.00723254  0.33176919  -0.00436464  1
  Cu  Cu109  1  0.32898943  0.33472969  0.50028263  1
  Cu  Cu110  1  0.17035325  0.82793522  0.24556170  1
  Cu  Cu111  1  0.00552687  0.33469577  0.50737796  1
  Cu  Cu112  1  0.33138120  0.33715108  -0.00177684  1
  Cu  Cu113  1  0.16757944  0.17573349  0.74660006  1
  Cu  Cu114  1  0.66266815  0.32914717  -0.00262975  1
  Se  Se115  1  0.10650135  0.09528523  0.04904640  1
  Se  Se116  1  0.08462604  0.08661360  0.54525347  1
  Se  Se117  1  0.08979246  0.41022595  0.05223377  1
  Se  Se118  1  0.08522820  0.42257068  0.55849453  1
  Se  Se119  1  0.08187963  0.74932331  0.05450201  1
  Se  Se120  1  0.07961285  0.75000451  0.56039487  1
  Se  Se121  1  0.41460053  0.07293658  0.06162745  1
  Se  Se122  1  0.41253850  0.08742272  0.55146300  1
  Se  Se123  1  0.41548236  0.41706227  0.05453568  1
  Se  Se124  1  0.41619934  0.41929657  0.55051330  1
  Se  Se125  1  0.40726798  0.74117040  0.06310769  1
  Se  Se126  1  0.41333779  0.75401227  0.54796189  1
  Se  Se127  1  0.75740200  0.08638353  0.06024942  1
  Se  Se128  1  0.75059663  0.07948549  0.55161190  1
  Se  Se129  1  0.74058032  0.40752248  0.06357574  1
  Se  Se130  1  0.74488827  0.40350035  0.56391337  1
  Se  Se131  1  0.74157192  0.75194260  0.05393119  1
  Se  Se132  1  0.74571447  0.73699545  0.56306295  1
  Se  Se133  1  0.25992635  0.24570585  0.05354850  1
  Se  Se134  1  0.24588214  0.25170843  0.55489858  1
  Se  Se135  1  0.24361440  0.57697095  0.05919008  1
  Se  Se136  1  0.24745646  0.58461946  0.54944974  1
  Se  Se137  1  0.24969762  0.91091239  0.05147336  1
  Se  Se138  1  0.25289459  0.92642666  0.55819913  1
  Se  Se139  1  0.58925180  0.25298079  0.06623219  1
  Se  Se140  1  0.57759870  0.24459602  0.54846683  1
  Se  Se141  1  0.57921247  0.57790275  0.04776965  1
  Se  Se142  1  0.58453419  0.57906585  0.54157666  1
  Se  Se143  1  0.58552423  0.92310996  0.06022745  1
  Se  Se144  1  0.58294345  0.91296486  0.55156268  1
  Se  Se145  1  0.91542277  0.25151775  0.04391373  1
  Se  Se146  1  0.91703630  0.24893948  0.55260430  1
  Se  Se147  1  0.91956225  0.58609415  0.05886052  1
  Se  Se148  1  0.92532719  0.58361195  0.56185827  1
  Se  Se149  1  0.91436281  0.91381277  0.05913197  1
  Se  Se150  1  0.92297430  0.92292538  0.55576816  1
  Se  Se151  1  0.08400285  0.25232843  0.44738920  1
  Se  Se152  1  0.09057422  0.24797319  0.94238844  1
  Se  Se153  1  0.08764708  0.57951149  0.44923473  1
  Se  Se154  1  0.06812718  0.57248765  0.95018412  1
  Se  Se155  1  0.07393142  0.92174585  0.43539976  1
  Se  Se156  1  0.07029880  0.94923691  0.95899790  1
  Se  Se157  1  0.40995749  0.24897420  0.44614801  1
  Se  Se158  1  0.41034853  0.25567335  0.93569806  1
  Se  Se159  1  0.41667249  0.57912022  0.44295686  1
  Se  Se160  1  0.41674087  0.57749863  0.94951999  1
  Se  Se161  1  0.41447749  0.91639627  0.44693167  1
  Se  Se162  1  0.41004405  0.91696356  0.93662574  1
  Se  Se163  1  0.75260966  0.24818664  0.44819302  1
  Se  Se164  1  0.75143269  0.25238995  0.94584064  1
  Se  Se165  1  0.75133629  0.59459045  0.44190440  1
  Se  Se166  1  0.75050525  0.59287018  0.93691880  1
  Se  Se167  1  0.74733219  0.92558329  0.43485478  1
  Se  Se168  1  0.75270125  0.91502432  0.95155472  1
  Se  Se169  1  0.24171796  0.08607261  0.44322329  1
  Se  Se170  1  0.25923430  0.08887767  0.94681082  1
  Se  Se171  1  0.24722163  0.41917235  0.44561433  1
  Se  Se172  1  0.24693809  0.41883134  0.94445927  1
  Se  Se173  1  0.25691979  0.74533851  0.43398899  1
  Se  Se174  1  0.24685256  0.74343497  0.95418480  1
  Se  Se175  1  0.57864136  0.08391501  0.44798838  1
  Se  Se176  1  0.59285711  0.07717703  0.94586004  1
  Se  Se177  1  0.58432414  0.41709109  0.44819506  1
  Se  Se178  1  0.57767688  0.41512872  0.95012459  1
  Se  Se179  1  0.59227393  0.74578038  0.45173732  1
  Se  Se180  1  0.58655453  0.74233064  0.93676412  1
  Se  Se181  1  0.91019706  0.08690757  0.44012091  1
  Se  Se182  1  0.91791000  0.09362199  0.95265207  1
  Se  Se183  1  0.92756981  0.40993193  0.43965511  1
  Se  Se184  1  0.92310223  0.41089441  0.93656136  1
  Se  Se185  1  0.92784391  0.74800184  0.44165574  1
  Se  Se186  1  0.90334746  0.76804071  0.95895519  1
  Se  Se187  1  0.24102577  0.24479270  0.30007861  1
  Se  Se188  1  0.25483117  0.25617972  0.79996350  1
  Se  Se189  1  0.25192780  0.58416491  0.30308387  1
  Se  Se190  1  0.24011740  0.58241403  0.81537057  1
  Se  Se191  1  0.25027777  0.91325788  0.30131453  1
  Se  Se192  1  0.24798840  0.93153191  0.80739918  1
  Se  Se193  1  0.57318292  0.24427162  0.31880552  1
  Se  Se194  1  0.57688383  0.23711009  0.81019306  1
  Se  Se195  1  0.57690584  0.57758295  0.30907658  1
  Se  Se196  1  0.57449296  0.57866521  0.80567381  1
  Se  Se197  1  0.57811854  0.91823081  0.30586656  1
  Se  Se198  1  0.57291405  0.90745447  0.80894271  1
  Se  Se199  1  0.91525070  0.25222606  0.30765868  1
  Se  Se200  1  0.91838909  0.24550521  0.79836474  1
  Se  Se201  1  0.92644503  0.59488596  0.29799764  1
  Se  Se202  1  0.90642006  0.57677548  0.80060724  1
  Se  Se203  1  0.91229381  0.91364922  0.29198806  1
  Se  Se204  1  0.92214680  0.90625412  0.81779245  1
  Se  Se205  1  0.07613964  0.07983951  0.30185741  1
  Se  Se206  1  0.09153801  0.09550127  0.81113683  1
  Se  Se207  1  0.09121659  0.42470459  0.31032738  1
  Se  Se208  1  0.08380032  0.41129412  0.80045788  1
  Se  Se209  1  0.08588568  0.74635345  0.29998821  1
  Se  Se210  1  0.08376315  0.76416356  0.82455188  1
  Se  Se211  1  0.40866233  0.08046089  0.30830386  1
  Se  Se212  1  0.41635594  0.07907237  0.79562430  1
  Se  Se213  1  0.40926139  0.40991789  0.30341489  1
  Se  Se214  1  0.41156606  0.41611671  0.79977119  1
  Se  Se215  1  0.41799789  0.74128037  0.30403512  1
  Se  Se216  1  0.41286396  0.76034377  0.80852962  1
  Se  Se217  1  0.75069606  0.09258432  0.30143942  1
  Se  Se218  1  0.76783469  0.07882835  0.81061724  1
  Se  Se219  1  0.76276398  0.43560218  0.30557627  1
  Se  Se220  1  0.75206432  0.42341277  0.81117602  1
  Se  Se221  1  0.75488298  0.76373163  0.30747698  1
  Se  Se222  1  0.76088972  0.74314169  0.81753883  1
  Se  Se223  1  0.25084414  0.07432833  0.19619802  1
  Se  Se224  1  0.24810814  0.08791299  0.69469091  1
  Se  Se225  1  0.24719009  0.40782553  0.19477311  1
  Se  Se226  1  0.25397316  0.42023603  0.69589190  1
  Se  Se227  1  0.25692749  0.74249829  0.19733917  1
  Se  Se228  1  0.23477601  0.76053174  0.69370930  1
  Se  Se229  1  0.58049058  0.08631838  0.20559001  1
  Se  Se230  1  0.57910236  0.08446420  0.68692011  1
  Se  Se231  1  0.57844630  0.42064390  0.19363543  1
  Se  Se232  1  0.57695607  0.41782024  0.68946127  1
  Se  Se233  1  0.57366211  0.75704571  0.18649217  1
  Se  Se234  1  0.57105209  0.75516481  0.68922120  1
  Se  Se235  1  0.92287176  0.08806397  0.19050404  1
  Se  Se236  1  0.91741003  0.08349186  0.68663160  1
  Se  Se237  1  0.92002920  0.42719468  0.19071820  1
  Se  Se238  1  0.90796111  0.41859664  0.70201308  1
  Se  Se239  1  0.91465106  0.76294837  0.20155748  1
  Se  Se240  1  0.92833623  0.74274375  0.70339509  1
  Se  Se241  1  0.08057761  0.22876042  0.17903973  1
  Se  Se242  1  0.08017231  0.25476010  0.69361911  1
  Se  Se243  1  0.08603675  0.58542196  0.19610198  1
  Se  Se244  1  0.08484315  0.58583456  0.70005323  1
  Se  Se245  1  0.08994564  0.91518019  0.19261441  1
  Se  Se246  1  0.09426992  0.91334316  0.69179108  1
  Se  Se247  1  0.41107386  0.24984421  0.20285036  1
  Se  Se248  1  0.41353870  0.25412231  0.69352133  1
  Se  Se249  1  0.41216127  0.58018072  0.19674254  1
  Se  Se250  1  0.42269445  0.58531238  0.68436143  1
  Se  Se251  1  0.41264227  0.91712127  0.20200303  1
  Se  Se252  1  0.40760827  0.92147626  0.69013280  1
  Se  Se253  1  0.75740352  0.25416418  0.19279437  1
  Se  Se254  1  0.75554338  0.23146458  0.69396883  1
  Se  Se255  1  0.76057910  0.59217849  0.18353067  1
  Se  Se256  1  0.75449162  0.56862126  0.69123122  1
  Se  Se257  1  0.73297724  0.94004032  0.20026243  1
  Se  Se258  1  0.76233832  0.90001408  0.69990173  1
