# generated using pymatgen
data_In86Cu29Se144
_symmetry_space_group_name_H-M   'P 1'
_cell_length_a   17.70062656
_cell_length_b   17.68816982
_cell_length_c   23.56088442
_cell_angle_alpha   89.98841196
_cell_angle_beta   89.99375704
_cell_angle_gamma   89.98495411
_symmetry_Int_Tables_number   1
_chemical_formula_structural   In86Cu29Se144
_chemical_formula_sum   'In86 Cu29 Se144'
_cell_volume   7376.71663950
_cell_formula_units_Z   1
loop_
 _symmetry_equiv_pos_site_id
 _symmetry_equiv_pos_as_xyz
  1  'x, y, z'
loop_
 _atom_site_type_symbol
 _atom_site_label
 _atom_site_symmetry_multiplicity
 _atom_site_fract_x
 _atom_site_fract_y
 _atom_site_fract_z
 _atom_site_occupancy
  In  In0  1  0.01443213  0.17713567  0.12169953  1
  In  In1  1  0.00357057  0.19256596  0.62759987  1
  In  In2  1  -0.00468064  0.50095340  0.12766784  1
  In  In3  1  -0.01595719  0.48363124  0.60942603  1
  In  In4  1  -0.00841678  0.82882360  0.12809266  1
  In  In5  1  -0.00410405  0.82438615  0.61857152  1
  In  In6  1  0.34419781  0.18781369  0.10828533  1
  In  In7  1  0.36713500  0.19565935  0.61381708  1
  In  In8  1  0.35405262  0.49952788  0.10341702  1
  In  In9  1  0.33950566  0.49674659  0.63134277  1
  In  In10  1  0.33556097  0.82349820  0.12921214  1
  In  In11  1  0.33455470  0.81785846  0.62710322  1
  In  In12  1  0.67493928  0.18361567  0.12296774  1
  In  In13  1  0.66009447  0.16800848  0.62718565  1
  In  In14  1  0.66747933  0.49992673  0.12486428  1
  In  In15  1  0.65791990  0.49375612  0.63385689  1
  In  In16  1  0.65129424  0.81335566  0.12801632  1
  In  In17  1  0.66217592  0.84491022  0.62529848  1
  In  In18  1  0.16345110  -0.00394389  0.37281337  1
  In  In19  1  0.18855520  0.00448007  0.87648765  1
  In  In20  1  0.17037907  0.35456971  0.37497320  1
  In  In21  1  0.17082093  0.34759756  0.88181455  1
  In  In22  1  0.16176028  0.65097775  0.36522879  1
  In  In23  1  0.17478819  0.64273971  0.89343864  1
  In  In24  1  0.50119919  -0.00030265  0.38394965  1
  In  In25  1  0.50896044  0.00123392  0.87220026  1
  In  In26  1  0.50122257  0.32689585  0.38855135  1
  In  In27  1  0.50044609  0.34195704  0.87459752  1
  In  In28  1  0.49812961  0.65744948  0.37376418  1
  In  In29  1  0.47715009  0.58482447  0.81160614  1
  In  In30  1  0.83818083  0.01060658  0.38017408  1
  In  In31  1  0.82087100  0.00677051  0.87170531  1
  In  In32  1  0.83170362  0.33678899  0.37884872  1
  In  In33  1  0.82957086  0.34295684  0.86247255  1
  In  In34  1  0.82630942  0.65329243  0.37154138  1
  In  In35  1  0.82046139  0.65632488  0.87425336  1
  In  In36  1  -0.01442784  0.16702140  0.37933413  1
  In  In37  1  0.00438061  0.19171456  0.87116925  1
  In  In38  1  -0.00069750  0.49621151  0.37205411  1
  In  In39  1  -0.00589355  0.49514776  0.87789631  1
  In  In40  1  0.00851959  0.82780715  0.36979074  1
  In  In41  1  -0.00179655  0.82532859  0.87413967  1
  In  In42  1  0.34716568  0.18018037  0.37862985  1
  In  In43  1  0.33318694  0.18463255  0.88457553  1
  In  In44  1  0.32725750  0.49755721  0.38192616  1
  In  In45  1  0.33131376  0.50609346  0.88164872  1
  In  In46  1  0.35352093  0.81573376  0.38025217  1
  In  In47  1  0.35486243  0.81340907  0.87267682  1
  In  In48  1  0.65814879  0.18241349  0.38653684  1
  In  In49  1  0.65018047  0.17005008  0.85801627  1
  In  In50  1  0.66559660  0.49572659  0.37813667  1
  In  In51  1  0.66465711  0.50081616  0.87116796  1
  In  In52  1  0.65706314  0.81624517  0.37304943  1
  In  In53  1  0.64610332  0.81628834  0.86341243  1
  In  In54  1  0.16531462  0.00883441  0.12194788  1
  In  In55  1  0.17031318  0.00612101  0.63443862  1
  In  In56  1  0.16221863  0.33522307  0.12177244  1
  In  In57  1  0.15804290  0.35312573  0.63582272  1
  In  In58  1  0.18847708  0.63956251  0.12698040  1
  In  In59  1  0.18283830  0.65172677  0.63166626  1
  In  In60  1  0.49289490  0.00500323  0.12318103  1
  In  In61  1  0.51702249  0.01384098  0.61192403  1
  In  In62  1  0.51122818  0.34216704  0.11484354  1
  In  In63  1  0.50902561  0.33730788  0.63853105  1
  In  In64  1  0.50666680  0.65813749  0.13265729  1
  In  In65  1  0.50289574  0.66666939  0.62310869  1
  In  In66  1  0.83320949  0.00255791  0.12721544  1
  In  In67  1  0.81213534  0.01055573  0.62778315  1
  In  In68  1  0.82085397  0.34693514  0.13463808  1
  In  In69  1  0.83161880  0.33693175  0.62573446  1
  In  In70  1  0.83496530  0.65751449  0.13560174  1
  In  In71  1  0.82212632  0.64039369  0.62548245  1
  In  In72  1  0.66754507  -0.00198102  0.25654036  1
  In  In73  1  0.16713494  0.83400223  0.00861052  1
  In  In74  1  -0.00005954  0.66069536  0.75696324  1
  In  In75  1  0.50511269  0.82627702  0.00355554  1
  In  In76  1  0.00734955  0.00659793  0.75502629  1
  In  In77  1  0.83511536  0.17599567  -0.00941206  1
  In  In78  1  0.33529584  0.33581024  0.24938666  1
  In  In79  1  0.00110649  0.00053395  0.24463664  1
  In  In80  1  0.82524807  0.82728458  0.49225500  1
  In  In81  1  0.33630817  0.00745238  0.74763398  1
  In  In82  1  0.82752715  0.83895823  0.00569266  1
  In  In83  1  0.16573041  0.83018803  0.49254587  1
  In  In84  1  0.32716693  -0.00547455  0.24835633  1
  In  In85  1  0.16852970  0.16782911  0.50419796  1
  Cu  Cu86  1  0.00094593  0.33859139  0.49899304  1
  Cu  Cu87  1  0.83133346  0.16554802  0.74821587  1
  Cu  Cu88  1  0.66001638  0.66031900  0.50073836  1
  Cu  Cu89  1  0.83254585  0.18003071  0.25387906  1
  Cu  Cu90  1  0.66734899  0.33829463  0.50770828  1
  Cu  Cu91  1  0.16829187  0.49904111  0.24501077  1
  Cu  Cu92  1  0.49642458  0.83689714  0.74347801  1
  Cu  Cu93  1  -0.01429927  0.00697653  0.50674816  1
  Cu  Cu94  1  0.17216228  0.81808742  0.24959481  1
  Cu  Cu95  1  -0.01174922  0.66550923  0.01018746  1
  Cu  Cu96  1  0.34265879  0.00944874  -0.00106185  1
  Cu  Cu97  1  0.33786957  0.65570447  0.50459810  1
  Cu  Cu98  1  0.32917908  -0.00564478  0.49989755  1
  Cu  Cu99  1  0.83352494  0.83225331  0.74345782  1
  Cu  Cu100  1  0.00871429  0.00754516  -0.00751338  1
  Cu  Cu101  1  0.16787743  0.82888144  0.75193724  1
  Cu  Cu102  1  0.50386445  0.49553342  0.24751835  1
  Cu  Cu103  1  0.83031260  0.49862105  0.25386071  1
  Cu  Cu104  1  0.50710906  0.16678181  0.25378750  1
  Cu  Cu105  1  -0.00304892  0.33903902  0.00004091  1
  Cu  Cu106  1  0.66360940  0.33748532  -0.00351911  1
  Cu  Cu107  1  0.66260204  0.65463444  -0.00169177  1
  Cu  Cu108  1  0.82962303  0.82749045  0.25121995  1
  Cu  Cu109  1  0.66199803  0.00419823  0.50105985  1
  Cu  Cu110  1  0.00844902  0.65640235  0.49566159  1
  Cu  Cu111  1  0.16038637  0.49972091  0.75618657  1
  Cu  Cu112  1  0.17967436  0.18371056  0.75288613  1
  Cu  Cu113  1  0.66519934  0.00483925  -0.00723700  1
  Cu  Cu114  1  0.16658085  0.17323318  0.24278988  1
  Se  Se115  1  0.08478181  0.08763676  0.05150912  1
  Se  Se116  1  0.07420509  0.07792078  0.56493433  1
  Se  Se117  1  0.07688935  0.42017717  0.05714473  1
  Se  Se118  1  0.08973970  0.41818585  0.55029558  1
  Se  Se119  1  0.07725069  0.74083362  0.06471672  1
  Se  Se120  1  0.08505095  0.73618248  0.55767169  1
  Se  Se121  1  0.42683348  0.09180237  0.05055436  1
  Se  Se122  1  0.40817335  0.07858360  0.55522169  1
  Se  Se123  1  0.40004220  0.38102374  0.04821504  1
  Se  Se124  1  0.44462326  0.43398387  0.57091085  1
  Se  Se125  1  0.41249099  0.73712867  0.05994823  1
  Se  Se126  1  0.41587644  0.74704101  0.55324796  1
  Se  Se127  1  0.74925252  0.07963933  0.05304151  1
  Se  Se128  1  0.74335581  0.08920828  0.55244439  1
  Se  Se129  1  0.74720193  0.41469257  0.05447904  1
  Se  Se130  1  0.74715493  0.42341423  0.56124110  1
  Se  Se131  1  0.74082304  0.73900844  0.05778144  1
  Se  Se132  1  0.74327079  0.74160304  0.55938850  1
  Se  Se133  1  0.22781618  0.23625483  0.05670910  1
  Se  Se134  1  0.24556371  0.25897484  0.56854536  1
  Se  Se135  1  0.25067833  0.56902027  0.04371260  1
  Se  Se136  1  0.25424527  0.57295029  0.55706203  1
  Se  Se137  1  0.26598268  0.92752954  0.06090708  1
  Se  Se138  1  0.24744633  0.91952992  0.56063659  1
  Se  Se139  1  0.58804578  0.24782166  0.05007762  1
  Se  Se140  1  0.58225048  0.25644363  0.56046538  1
  Se  Se141  1  0.57883564  0.57847999  0.05687393  1
  Se  Se142  1  0.58323177  0.57708676  0.55867087  1
  Se  Se143  1  0.59512958  0.92400066  0.06040224  1
  Se  Se144  1  0.58200859  0.91212671  0.54752871  1
  Se  Se145  1  0.91596757  0.25923007  0.06096896  1
  Se  Se146  1  0.91814948  0.25713828  0.55394012  1
  Se  Se147  1  0.90578465  0.57960941  0.05928381  1
  Se  Se148  1  0.91515898  0.58703751  0.55008157  1
  Se  Se149  1  0.92974917  0.93143671  0.05570686  1
  Se  Se150  1  0.90873895  0.91869831  0.56048377  1
  Se  Se151  1  0.08033261  0.25472850  0.43932953  1
  Se  Se152  1  0.08352404  0.25933463  0.94676092  1
  Se  Se153  1  0.08888039  0.57414106  0.44118943  1
  Se  Se154  1  0.06415966  0.58525085  0.94934744  1
  Se  Se155  1  0.06575300  0.92867778  0.44502930  1
  Se  Se156  1  0.08359753  0.92039642  0.93669959  1
  Se  Se157  1  0.41338697  0.25151038  0.45739025  1
  Se  Se158  1  0.41110640  0.27570186  0.94884212  1
  Se  Se159  1  0.41790403  0.57656472  0.44553352  1
  Se  Se160  1  0.42211004  0.61585491  0.91175917  1
  Se  Se161  1  0.41466205  0.91472104  0.44708167  1
  Se  Se162  1  0.41542682  0.91963656  0.94169143  1
  Se  Se163  1  0.75040087  0.25664146  0.45122589  1
  Se  Se164  1  0.73827991  0.25637631  0.93235470  1
  Se  Se165  1  0.74705877  0.58250515  0.44690476  1
  Se  Se166  1  0.74973100  0.57455685  0.94730862  1
  Se  Se167  1  0.73718109  0.92440256  0.43560775  1
  Se  Se168  1  0.73802290  0.91594133  0.93650818  1
  Se  Se169  1  0.25464670  0.07662455  0.43841031  1
  Se  Se170  1  0.25507896  0.08966012  0.94882178  1
  Se  Se171  1  0.27387565  0.38913471  0.44504792  1
  Se  Se172  1  0.23302527  0.44574428  0.95045340  1
  Se  Se173  1  0.25471920  0.73271438  0.44154139  1
  Se  Se174  1  0.25701792  0.75057758  0.94598510  1
  Se  Se175  1  0.57850021  0.08917831  0.44861851  1
  Se  Se176  1  0.58620794  0.08941451  0.93921641  1
  Se  Se177  1  0.58416856  0.41676923  0.44984419  1
  Se  Se178  1  0.58294127  0.42403816  0.94419097  1
  Se  Se179  1  0.57784692  0.74227032  0.44603950  1
  Se  Se180  1  0.58113934  0.73301305  0.93989180  1
  Se  Se181  1  0.90726026  0.09295225  0.45468438  1
  Se  Se182  1  0.92594729  0.08085766  0.93234170  1
  Se  Se183  1  0.91712844  0.42051759  0.44502439  1
  Se  Se184  1  0.90809459  0.40984128  0.94222026  1
  Se  Se185  1  0.92728501  0.74186036  0.43927550  1
  Se  Se186  1  0.91513891  0.74597697  0.94579976  1
  Se  Se187  1  0.24554893  0.24372926  0.30971100  1
  Se  Se188  1  0.25461797  0.26453992  0.81268627  1
  Se  Se189  1  0.25523621  0.57308999  0.30305140  1
  Se  Se190  1  0.24310700  0.58343331  0.80829208  1
  Se  Se191  1  0.24517803  0.90033038  0.31255295  1
  Se  Se192  1  0.25451075  0.90585170  0.80855285  1
  Se  Se193  1  0.57956626  0.25382497  0.31046427  1
  Se  Se194  1  0.58133115  0.27117162  0.79691167  1
  Se  Se195  1  0.58395314  0.57546953  0.30649579  1
  Se  Se196  1  0.62236336  0.60717850  0.79877637  1
  Se  Se197  1  0.57161926  0.90994066  0.30923427  1
  Se  Se198  1  0.58014315  0.91683566  0.80000217  1
  Se  Se199  1  0.91853149  0.25572906  0.30891299  1
  Se  Se200  1  0.91221583  0.25119664  0.80023618  1
  Se  Se201  1  0.91771356  0.58168806  0.30399643  1
  Se  Se202  1  0.90163782  0.57019886  0.80468633  1
  Se  Se203  1  0.90823344  0.91327313  0.30820449  1
  Se  Se204  1  0.91152772  0.91094811  0.80678386  1
  Se  Se205  1  0.08903102  0.09245505  0.30609493  1
  Se  Se206  1  0.10270295  0.09537004  0.81022122  1
  Se  Se207  1  0.08547300  0.41828478  0.30040396  1
  Se  Se208  1  0.07905153  0.41636542  0.80972396  1
  Se  Se209  1  0.08183397  0.74228989  0.30083326  1
  Se  Se210  1  0.09672377  0.74681757  0.81538784  1
  Se  Se211  1  0.42118477  0.08668174  0.30734917  1
  Se  Se212  1  0.41708090  0.09285403  0.81524672  1
  Se  Se213  1  0.42625945  0.41816635  0.31188147  1
  Se  Se214  1  0.42510095  0.43955032  0.80866493  1
  Se  Se215  1  0.41654027  0.73856535  0.30297646  1
  Se  Se216  1  0.42844816  0.74348717  0.79657533  1
  Se  Se217  1  0.75396608  0.09562326  0.31202947  1
  Se  Se218  1  0.74518768  0.08523961  0.79995326  1
  Se  Se219  1  0.74875247  0.41486116  0.30794862  1
  Se  Se220  1  0.72999697  0.40819193  0.79778052  1
  Se  Se221  1  0.74953926  0.74595286  0.30663557  1
  Se  Se222  1  0.75982044  0.75757902  0.80913483  1
  Se  Se223  1  0.25210782  0.09560130  0.18738370  1
  Se  Se224  1  0.25330704  0.10467651  0.68845474  1
  Se  Se225  1  0.25301785  0.42427623  0.18453352  1
  Se  Se226  1  0.25122591  0.42321107  0.70282366  1
  Se  Se227  1  0.25403424  0.73867441  0.19393002  1
  Se  Se228  1  0.25050176  0.74589158  0.69935830  1
  Se  Se229  1  0.58425992  0.08903534  0.19053949  1
  Se  Se230  1  0.58266315  0.07886215  0.69435340  1
  Se  Se231  1  0.58553358  0.41307710  0.19274602  1
  Se  Se232  1  0.60872416  0.39624917  0.71219239  1
  Se  Se233  1  0.57421407  0.74797029  0.20387350  1
  Se  Se234  1  0.58235713  0.75662931  0.68961739  1
  Se  Se235  1  0.90949079  0.09883056  0.19172345  1
  Se  Se236  1  0.91794656  0.08825289  0.68934294  1
  Se  Se237  1  0.91546671  0.41851261  0.19907777  1
  Se  Se238  1  0.91706726  0.42014809  0.69168326  1
  Se  Se239  1  0.91639380  0.74798211  0.19919358  1
  Se  Se240  1  0.90998816  0.74643345  0.68846396  1
  Se  Se241  1  0.08088961  0.25920198  0.19749098  1
  Se  Se242  1  0.08603874  0.25825258  0.70275202  1
  Se  Se243  1  0.08476643  0.58385156  0.19251568  1
  Se  Se244  1  0.08145157  0.57335300  0.69001543  1
  Se  Se245  1  0.09702601  0.90626726  0.19096484  1
  Se  Se246  1  0.08588799  0.90382113  0.69228541  1
  Se  Se247  1  0.42866466  0.24633107  0.19116811  1
  Se  Se248  1  0.42600878  0.24914905  0.70322672  1
  Se  Se249  1  0.41629845  0.56716577  0.18930351  1
  Se  Se250  1  0.41946407  0.59008641  0.69529443  1
  Se  Se251  1  0.42659864  0.90938073  0.19362862  1
  Se  Se252  1  0.41950086  0.91815967  0.68284402  1
  Se  Se253  1  0.74394278  0.25668759  0.20173054  1
  Se  Se254  1  0.75283417  0.24641255  0.69078476  1
  Se  Se255  1  0.74490754  0.57999799  0.19958508  1
  Se  Se256  1  0.72533066  0.59621179  0.69978053  1
  Se  Se257  1  0.75316843  0.90748944  0.18969011  1
  Se  Se258  1  0.74816691  0.91852463  0.69747148  1
