# generated using pymatgen
data_In86Cu29Se144
_symmetry_space_group_name_H-M   'P 1'
_cell_length_a   17.57675234
_cell_length_b   17.57731191
_cell_length_c   23.44415450
_cell_angle_alpha   89.99440653
_cell_angle_beta   89.97699708
_cell_angle_gamma   89.99490813
_symmetry_Int_Tables_number   1
_chemical_formula_structural   In86Cu29Se144
_chemical_formula_sum   'In86 Cu29 Se144'
_cell_volume   7243.11913906
_cell_formula_units_Z   1
loop_
 _symmetry_equiv_pos_site_id
 _symmetry_equiv_pos_as_xyz
  1  'x, y, z'
loop_
 _atom_site_type_symbol
 _atom_site_label
 _atom_site_symmetry_multiplicity
 _atom_site_fract_x
 _atom_site_fract_y
 _atom_site_fract_z
 _atom_site_occupancy
  In  In0  1  0.02072880  0.17632100  0.10784879  1
  In  In1  1  0.00532589  0.16765745  0.62486398  1
  In  In2  1  0.00470047  0.48791738  0.13410982  1
  In  In3  1  0.00181987  0.50171692  0.62333754  1
  In  In4  1  -0.00156246  0.85468150  0.11197391  1
  In  In5  1  0.00794845  0.82785622  0.63311628  1
  In  In6  1  0.33104712  0.16506042  0.12695301  1
  In  In7  1  0.33544585  0.17951071  0.62544545  1
  In  In8  1  0.32739531  0.49479505  0.14334508  1
  In  In9  1  0.32948378  0.49906553  0.61900269  1
  In  In10  1  0.34300357  0.82863383  0.12720185  1
  In  In11  1  0.31709529  0.83949576  0.62737816  1
  In  In12  1  0.66741461  0.17862528  0.12622900  1
  In  In13  1  0.67260859  0.15370538  0.63224307  1
  In  In14  1  0.66193293  0.49728076  0.12619590  1
  In  In15  1  0.67298019  0.50362720  0.62084575  1
  In  In16  1  0.66845043  0.83585878  0.10991908  1
  In  In17  1  0.66638504  0.82941140  0.64073477  1
  In  In18  1  0.17119571  -0.00233055  0.38284903  1
  In  In19  1  0.16543731  0.01768382  0.87693558  1
  In  In20  1  0.16117154  0.33959463  0.36904639  1
  In  In21  1  0.15533644  0.32077029  0.86806816  1
  In  In22  1  0.18335189  0.65239227  0.38797212  1
  In  In23  1  0.16703126  0.66674187  0.86542138  1
  In  In24  1  0.49076519  0.02107840  0.37678519  1
  In  In25  1  0.50787176  -0.00963823  0.88398559  1
  In  In26  1  0.50521868  0.33652715  0.37412973  1
  In  In27  1  0.48497056  0.33767071  0.88004459  1
  In  In28  1  0.47840451  0.66266775  0.37191806  1
  In  In29  1  0.50358620  0.68064854  0.85843727  1
  In  In30  1  0.85575005  0.00199489  0.37747992  1
  In  In31  1  0.82202313  0.00109108  0.86016584  1
  In  In32  1  0.83330776  0.33013477  0.38149009  1
  In  In33  1  0.85293974  0.32151763  0.87390648  1
  In  In34  1  0.82277634  0.66126017  0.37861313  1
  In  In35  1  0.84048985  0.67876771  0.86535112  1
  In  In36  1  -0.00322565  0.17377617  0.38216469  1
  In  In37  1  0.00311976  0.17304397  0.86261162  1
  In  In38  1  0.01767486  0.47925596  0.39157271  1
  In  In39  1  -0.00000282  0.49751362  0.86570905  1
  In  In40  1  0.00929180  0.84790550  0.37539579  1
  In  In41  1  -0.00953157  0.82942026  0.87096690  1
  In  In42  1  0.31267471  0.16666810  0.35530077  1
  In  In43  1  0.31927967  0.17465267  0.88605322  1
  In  In44  1  0.33026693  0.50198699  0.37271179  1
  In  In45  1  0.33144150  0.49803737  0.86648131  1
  In  In46  1  0.32622023  0.82255049  0.36881833  1
  In  In47  1  0.34025086  0.82335902  0.87880274  1
  In  In48  1  0.65967831  0.18117621  0.37999359  1
  In  In49  1  0.66976859  0.14781364  0.87267091  1
  In  In50  1  0.67689240  0.48470002  0.39118530  1
  In  In51  1  0.65213490  0.50363762  0.86923841  1
  In  In52  1  0.66973906  0.82693997  0.37438635  1
  In  In53  1  0.66412654  0.83917506  0.86488510  1
  In  In54  1  0.16987671  0.03039333  0.11794270  1
  In  In55  1  0.15959343  -0.00481457  0.62019555  1
  In  In56  1  0.17047577  0.31968508  0.14336336  1
  In  In57  1  0.16756455  0.33470047  0.62000294  1
  In  In58  1  0.17898134  0.66971658  0.12543881  1
  In  In59  1  0.16651043  0.66435632  0.62402639  1
  In  In60  1  0.48984246  -0.01019342  0.11366465  1
  In  In61  1  0.50615517  0.00066427  0.63532219  1
  In  In62  1  0.50591203  0.33491883  0.12870871  1
  In  In63  1  0.48074772  0.33413493  0.62597329  1
  In  In64  1  0.48830482  0.67202500  0.11861974  1
  In  In65  1  0.50853724  0.65920558  0.63408028  1
  In  In66  1  0.85439765  -0.00455592  0.11624013  1
  In  In67  1  0.83481553  0.01461441  0.63738594  1
  In  In68  1  0.83554377  0.32104725  0.13848568  1
  In  In69  1  0.84574545  0.34324106  0.61962592  1
  In  In70  1  0.82729960  0.66553351  0.11579483  1
  In  In71  1  0.83740779  0.65796529  0.63224986  1
  In  In72  1  0.33634187  -0.00284001  0.75881162  1
  In  In73  1  0.65864602  0.65866200  0.24303514  1
  In  In74  1  0.67160581  0.33518243  0.75246301  1
  In  In75  1  0.00415165  0.66138770  0.25306829  1
  In  In76  1  0.66077424  0.00316023  0.25095168  1
  In  In77  1  0.83286050  0.15715908  -0.00404946  1
  In  In78  1  0.16881982  0.83542758  -0.00776653  1
  In  In79  1  0.17090859  0.49487515  0.01163269  1
  In  In80  1  0.84154587  0.82794813  0.51229474  1
  In  In81  1  0.49552475  0.50447776  0.00300581  1
  In  In82  1  0.49384758  0.83065691  0.50467059  1
  In  In83  1  0.49748346  0.17315669  0.49981745  1
  In  In84  1  0.83631417  0.49848416  -0.00896102  1
  In  In85  1  0.00724602  0.01338112  0.24116565  1
  Cu  Cu86  1  0.83596156  0.48821261  0.26092384  1
  Cu  Cu87  1  0.33012420  0.00613607  0.49769860  1
  Cu  Cu88  1  0.49834498  0.16563274  0.75615515  1
  Cu  Cu89  1  0.49154312  0.84164451  0.24716935  1
  Cu  Cu90  1  0.66061048  0.65538891  0.50384955  1
  Cu  Cu91  1  0.00455691  0.66308713  -0.00483044  1
  Cu  Cu92  1  0.00281251  0.33276234  0.50158255  1
  Cu  Cu93  1  0.16265318  0.83116325  0.75037324  1
  Cu  Cu94  1  0.68247637  -0.00552368  0.50852059  1
  Cu  Cu95  1  0.32812834  0.66365982  0.50112619  1
  Cu  Cu96  1  0.82880209  0.16814648  0.25636537  1
  Cu  Cu97  1  0.17265397  0.17024506  0.74735457  1
  Cu  Cu98  1  0.49300322  0.50050561  0.74636284  1
  Cu  Cu99  1  0.66951042  0.32951795  0.50549326  1
  Cu  Cu100  1  0.66714933  0.67747513  -0.01238968  1
  Cu  Cu101  1  0.83676242  0.82975591  0.23495863  1
  Cu  Cu102  1  0.32557604  0.33444458  0.49369344  1
  Cu  Cu103  1  0.32859952  0.00545098  -0.00122024  1
  Cu  Cu104  1  0.00770042  0.00877893  0.50345229  1
  Cu  Cu105  1  0.49217765  0.16930008  0.24835516  1
  Cu  Cu106  1  0.67157661  0.32912737  0.00527693  1
  Cu  Cu107  1  0.66335285  -0.00169223  -0.00700599  1
  Cu  Cu108  1  0.83261954  0.50331988  0.74666013  1
  Cu  Cu109  1  0.83035625  0.83542652  0.74651014  1
  Cu  Cu110  1  0.32443570  0.32934666  0.00403679  1
  Cu  Cu111  1  -0.00084407  0.66939265  0.50703333  1
  Cu  Cu112  1  0.50589913  0.50051249  0.25126467  1
  Cu  Cu113  1  0.16805422  0.49655938  0.74234195  1
  Cu  Cu114  1  0.17233769  0.83564923  0.24976654  1
  Se  Se115  1  0.04264615  0.04400224  0.06341588  1
  Se  Se116  1  0.09427176  0.09294785  0.55235753  1
  Se  Se117  1  0.08125160  0.40000442  0.06408119  1
  Se  Se118  1  0.08399018  0.41973909  0.55319582  1
  Se  Se119  1  0.07994225  0.74370066  0.05814395  1
  Se  Se120  1  0.08455142  0.75353072  0.55628101  1
  Se  Se121  1  0.41350108  0.08737278  0.05281818  1
  Se  Se122  1  0.41514081  0.07507528  0.56149211  1
  Se  Se123  1  0.40483385  0.41385893  0.06161857  1
  Se  Se124  1  0.41212341  0.41359203  0.54891386  1
  Se  Se125  1  0.41930437  0.75974501  0.04846933  1
  Se  Se126  1  0.40580645  0.74229832  0.56509373  1
  Se  Se127  1  0.74044034  0.07310821  0.06134075  1
  Se  Se128  1  0.75866502  0.08607943  0.55728744  1
  Se  Se129  1  0.75233032  0.41118941  0.06139007  1
  Se  Se130  1  0.75268463  0.41827524  0.55329877  1
  Se  Se131  1  0.75477241  0.75152549  0.04515046  1
  Se  Se132  1  0.73825991  0.74206712  0.56280159  1
  Se  Se133  1  0.24248214  0.24992464  0.06100763  1
  Se  Se134  1  0.25107062  0.24827135  0.55135137  1
  Se  Se135  1  0.27001047  0.58620235  0.06035389  1
  Se  Se136  1  0.24257712  0.58001599  0.55141182  1
  Se  Se137  1  0.25037580  0.92368501  0.06103853  1
  Se  Se138  1  0.24915001  0.91939188  0.55010576  1
  Se  Se139  1  0.58090007  0.25109363  0.05450490  1
  Se  Se140  1  0.58778657  0.25245622  0.56827518  1
  Se  Se141  1  0.59664892  0.59665470  0.05510777  1
  Se  Se142  1  0.57406459  0.57586017  0.55614664  1
  Se  Se143  1  0.57865910  0.91404725  0.04536247  1
  Se  Se144  1  0.59228550  0.91912356  0.56165191  1
  Se  Se145  1  0.91461281  0.25729884  0.05459059  1
  Se  Se146  1  0.92010287  0.24875471  0.55481230  1
  Se  Se147  1  0.92925384  0.58102245  0.05854320  1
  Se  Se148  1  0.91382015  0.58442081  0.55550791  1
  Se  Se149  1  0.89708757  0.89930406  0.04051877  1
  Se  Se150  1  0.92727763  0.92653493  0.56499611  1
  Se  Se151  1  0.08767165  0.25499565  0.44462318  1
  Se  Se152  1  0.08687682  0.23496911  0.94147923  1
  Se  Se153  1  0.08064599  0.58722200  0.45067799  1
  Se  Se154  1  0.08489148  0.58000393  0.94021178  1
  Se  Se155  1  0.08626011  0.91798874  0.45289185  1
  Se  Se156  1  0.07542680  0.92325014  0.93663159  1
  Se  Se157  1  0.40570620  0.25092964  0.43447039  1
  Se  Se158  1  0.41416562  0.25092335  0.95178817  1
  Se  Se159  1  0.41299594  0.58096480  0.44832446  1
  Se  Se160  1  0.41881960  0.58692183  0.93136378  1
  Se  Se161  1  0.41173619  0.92397072  0.43932326  1
  Se  Se162  1  0.40862227  0.91825221  0.94659917  1
  Se  Se163  1  0.75041681  0.24517282  0.45167154  1
  Se  Se164  1  0.74566926  0.25496220  0.93825037  1
  Se  Se165  1  0.75401027  0.57975750  0.45444951  1
  Se  Se166  1  0.74335542  0.58881583  0.93387847  1
  Se  Se167  1  0.75468027  0.91551778  0.44175428  1
  Se  Se168  1  0.74766817  0.92094616  0.93591435  1
  Se  Se169  1  0.25424205  0.09334224  0.44194859  1
  Se  Se170  1  0.23848423  0.09092107  0.95599192  1
  Se  Se171  1  0.24446624  0.42088645  0.44098144  1
  Se  Se172  1  0.25054497  0.40985523  0.93927173  1
  Se  Se173  1  0.25054333  0.75616483  0.45008560  1
  Se  Se174  1  0.25471634  0.73163357  0.94484679  1
  Se  Se175  1  0.59528688  0.07381588  0.44922457  1
  Se  Se176  1  0.57982048  0.08965090  0.94878107  1
  Se  Se177  1  0.57992903  0.40895971  0.45389625  1
  Se  Se178  1  0.59068107  0.41052487  0.94648684  1
  Se  Se179  1  0.58555924  0.74054790  0.44206946  1
  Se  Se180  1  0.58061200  0.75493780  0.93497589  1
  Se  Se181  1  0.91770654  0.08776492  0.45302397  1
  Se  Se182  1  0.91942442  0.07740090  0.92919270  1
  Se  Se183  1  0.91229115  0.41482767  0.45205259  1
  Se  Se184  1  0.93606489  0.40686454  0.94474558  1
  Se  Se185  1  0.92413814  0.74725684  0.43770275  1
  Se  Se186  1  0.91739108  0.74498373  0.94570879  1
  Se  Se187  1  0.25876989  0.27866154  0.29625018  1
  Se  Se188  1  0.25564312  0.25035336  0.80382544  1
  Se  Se189  1  0.25634259  0.59471144  0.30491669  1
  Se  Se190  1  0.24807463  0.58076309  0.79909624  1
  Se  Se191  1  0.24930067  0.92023875  0.30760030  1
  Se  Se192  1  0.23893264  0.90903589  0.81596729  1
  Se  Se193  1  0.57922424  0.24721343  0.30289024  1
  Se  Se194  1  0.57791072  0.24996506  0.81532559  1
  Se  Se195  1  0.58460025  0.57676234  0.31783828  1
  Se  Se196  1  0.58056800  0.58371834  0.79564344  1
  Se  Se197  1  0.57184257  0.91173391  0.31419586  1
  Se  Se198  1  0.58008193  0.92813077  0.80194393  1
  Se  Se199  1  0.91425291  0.24944782  0.30930202  1
  Se  Se200  1  0.92426625  0.25770140  0.79303131  1
  Se  Se201  1  0.91266859  0.57620102  0.31548027  1
  Se  Se202  1  0.91800738  0.58538916  0.80181376  1
  Se  Se203  1  0.91529351  0.91059521  0.29742658  1
  Se  Se204  1  0.91538448  0.91613485  0.80035726  1
  Se  Se205  1  0.08854892  0.08980991  0.31471193  1
  Se  Se206  1  0.08858851  0.08458048  0.79739522  1
  Se  Se207  1  0.07349952  0.42093264  0.30209093  1
  Se  Se208  1  0.08637107  0.41579643  0.80032558  1
  Se  Se209  1  0.09164431  0.75707250  0.31046480  1
  Se  Se210  1  0.07651067  0.74766598  0.80294255  1
  Se  Se211  1  0.40980477  0.08253624  0.29827315  1
  Se  Se212  1  0.41828886  0.09078300  0.82083809  1
  Se  Se213  1  0.42258678  0.42140106  0.30746594  1
  Se  Se214  1  0.41572424  0.41249767  0.80072700  1
  Se  Se215  1  0.41393819  0.74963680  0.29728117  1
  Se  Se216  1  0.39876621  0.74534468  0.79785894  1
  Se  Se217  1  0.75517104  0.08298132  0.31660936  1
  Se  Se218  1  0.75923830  0.10246369  0.79438375  1
  Se  Se219  1  0.74571232  0.41015790  0.31122120  1
  Se  Se220  1  0.76152493  0.42445157  0.81552434  1
  Se  Se221  1  0.75781694  0.75322467  0.29867227  1
  Se  Se222  1  0.74693079  0.75035350  0.79881769  1
  Se  Se223  1  0.24356268  0.09170756  0.19882059  1
  Se  Se224  1  0.25209428  0.08347091  0.69001416  1
  Se  Se225  1  0.25361998  0.40485738  0.20945594  1
  Se  Se226  1  0.25350830  0.41303948  0.69062462  1
  Se  Se227  1  0.25507404  0.75163623  0.19663634  1
  Se  Se228  1  0.24568945  0.74932261  0.69626949  1
  Se  Se229  1  0.57280473  0.08809581  0.18697750  1
  Se  Se230  1  0.58425676  0.08437534  0.70497703  1
  Se  Se231  1  0.58948668  0.41628121  0.19933434  1
  Se  Se232  1  0.57768399  0.41819422  0.68937415  1
  Se  Se233  1  0.57942135  0.76392696  0.18835602  1
  Se  Se234  1  0.57381054  0.75397884  0.70235586  1
  Se  Se235  1  0.90648625  0.09855922  0.18729521  1
  Se  Se236  1  0.94191891  0.07338849  0.69674987  1
  Se  Se237  1  0.91764872  0.41036444  0.20147049  1
  Se  Se238  1  0.91850579  0.42178277  0.69579939  1
  Se  Se239  1  0.92125069  0.74935576  0.18113756  1
  Se  Se240  1  0.91478489  0.74949578  0.69653506  1
  Se  Se241  1  0.06746201  0.24166272  0.19772188  1
  Se  Se242  1  0.08918399  0.25295331  0.69285359  1
  Se  Se243  1  0.09867008  0.57647487  0.19300309  1
  Se  Se244  1  0.08298573  0.58369602  0.69402670  1
  Se  Se245  1  0.09388142  0.91289735  0.18656376  1
  Se  Se246  1  0.08564776  0.92072325  0.69824125  1
  Se  Se247  1  0.41550006  0.25435995  0.19223688  1
  Se  Se248  1  0.41636584  0.24803401  0.70226151  1
  Se  Se249  1  0.42669383  0.58273578  0.19384830  1
  Se  Se250  1  0.40904253  0.58112931  0.69206561  1
  Se  Se251  1  0.41039137  0.92674282  0.19461377  1
  Se  Se252  1  0.42101233  0.90693359  0.69466599  1
  Se  Se253  1  0.74055079  0.25097768  0.20565618  1
  Se  Se254  1  0.75887286  0.25226139  0.68776972  1
  Se  Se255  1  0.76523695  0.56987868  0.19318237  1
  Se  Se256  1  0.74273999  0.58370882  0.69838118  1
  Se  Se257  1  0.75252875  0.91616636  0.18577317  1
  Se  Se258  1  0.74791075  0.92504941  0.69828417  1
