# generated using pymatgen
data_In86Cu29Se144
_symmetry_space_group_name_H-M   'P 1'
_cell_length_a   17.58048825
_cell_length_b   17.57836311
_cell_length_c   23.43388148
_cell_angle_alpha   89.97340805
_cell_angle_beta   89.99997151
_cell_angle_gamma   89.99416872
_symmetry_Int_Tables_number   1
_chemical_formula_structural   In86Cu29Se144
_chemical_formula_sum   'In86 Cu29 Se144'
_cell_volume   7241.91701188
_cell_formula_units_Z   1
loop_
 _symmetry_equiv_pos_site_id
 _symmetry_equiv_pos_as_xyz
  1  'x, y, z'
loop_
 _atom_site_type_symbol
 _atom_site_label
 _atom_site_symmetry_multiplicity
 _atom_site_fract_x
 _atom_site_fract_y
 _atom_site_fract_z
 _atom_site_occupancy
  In  In0  1  -0.01064058  0.16846490  0.13280949  1
  In  In1  1  -0.01802275  0.15625020  0.61226633  1
  In  In2  1  -0.01429457  0.48836764  0.11482833  1
  In  In3  1  0.01045672  0.49966479  0.62864027  1
  In  In4  1  -0.00901972  0.85529767  0.12628501  1
  In  In5  1  -0.01545445  0.84633868  0.63191240  1
  In  In6  1  0.33288999  0.14916244  0.12638380  1
  In  In7  1  0.33830665  0.18552335  0.62032062  1
  In  In8  1  0.33789217  0.51339556  0.12156014  1
  In  In9  1  0.33418234  0.48955615  0.62844440  1
  In  In10  1  0.34658873  0.82899519  0.13931465  1
  In  In11  1  0.34212514  0.82649554  0.62141441  1
  In  In12  1  0.67326299  0.16901725  0.12769364  1
  In  In13  1  0.67082224  0.16382154  0.62483109  1
  In  In14  1  0.68027808  0.48850298  0.13496948  1
  In  In15  1  0.65385136  0.49352237  0.62060197  1
  In  In16  1  0.66599145  0.83271908  0.12859509  1
  In  In17  1  0.66530301  0.83869087  0.61058541  1
  In  In18  1  0.17186252  0.01163134  0.37184617  1
  In  In19  1  0.16042919  0.01121206  0.87449498  1
  In  In20  1  0.14966055  0.32932702  0.37677530  1
  In  In21  1  0.18172122  0.33326001  0.87501468  1
  In  In22  1  0.17743213  0.65436415  0.37310076  1
  In  In23  1  0.15097746  0.67117332  0.87724020  1
  In  In24  1  0.50680467  -0.00771545  0.36112141  1
  In  In25  1  0.50042871  0.00040754  0.88799322  1
  In  In26  1  0.53072343  0.33168521  0.38351962  1
  In  In27  1  0.48882176  0.31813517  0.85647333  1
  In  In28  1  0.50298532  0.67080364  0.37148089  1
  In  In29  1  0.51231540  0.66772350  0.87816789  1
  In  In30  1  0.83168729  0.00503879  0.36340256  1
  In  In31  1  0.84304424  -0.00392067  0.89207638  1
  In  In32  1  0.83041034  0.32126129  0.37398494  1
  In  In33  1  0.82443173  0.33775873  0.88049099  1
  In  In34  1  0.83479567  0.68458365  0.37696892  1
  In  In35  1  0.83181811  0.65972171  0.88261403  1
  In  In36  1  -0.00332538  0.16999567  0.37400075  1
  In  In37  1  -0.00480222  0.15261636  0.87583265  1
  In  In38  1  0.00998245  0.49064105  0.37262340  1
  In  In39  1  -0.01099027  0.51121789  0.88378301  1
  In  In40  1  -0.01601254  0.83700563  0.37623835  1
  In  In41  1  -0.00847465  0.83128014  0.87457436  1
  In  In42  1  0.33812106  0.15131445  0.37581462  1
  In  In43  1  0.33379122  0.17444879  0.87477761  1
  In  In44  1  0.34225641  0.51634945  0.36963520  1
  In  In45  1  0.34405530  0.48013835  0.87889765  1
  In  In46  1  0.35371542  0.84621189  0.35752637  1
  In  In47  1  0.34249487  0.84213152  0.87999006  1
  In  In48  1  0.69694331  0.17831377  0.34809655  1
  In  In49  1  0.66337928  0.17299739  0.88327426  1
  In  In50  1  0.65505802  0.48774461  0.37049488  1
  In  In51  1  0.67148546  0.49518570  0.87566784  1
  In  In52  1  0.66716472  0.83550852  0.36472426  1
  In  In53  1  0.66623080  0.83515234  0.88889534  1
  In  In54  1  0.16385520  0.00617016  0.13557141  1
  In  In55  1  0.14748202  -0.00380952  0.62472242  1
  In  In56  1  0.15003258  0.32589219  0.12015045  1
  In  In57  1  0.17520698  0.33515022  0.62198395  1
  In  In58  1  0.17646009  0.66731285  0.12427199  1
  In  In59  1  0.16339774  0.65103641  0.62714751  1
  In  In60  1  0.50195073  -0.00231568  0.12845629  1
  In  In61  1  0.51482771  -0.00051346  0.62034896  1
  In  In62  1  0.52193802  0.33152781  0.12783962  1
  In  In63  1  0.49391845  0.33735909  0.63669440  1
  In  In64  1  0.49693984  0.67915778  0.13862104  1
  In  In65  1  0.49855509  0.67063991  0.61541712  1
  In  In66  1  0.84107219  0.00163789  0.12381594  1
  In  In67  1  0.83021702  0.00894031  0.61656458  1
  In  In68  1  0.83040236  0.33134584  0.12639463  1
  In  In69  1  0.83065825  0.31347628  0.62013572  1
  In  In70  1  0.82323620  0.65767411  0.12271664  1
  In  In71  1  0.82652572  0.68125427  0.62442932  1
  In  In72  1  0.00208683  0.33160584  0.74621945  1
  In  In73  1  0.32828438  0.66066436  0.74617321  1
  In  In74  1  0.66731086  0.65850055  0.75403356  1
  In  In75  1  0.00454398  0.66634327  0.25332622  1
  In  In76  1  0.33427636  0.33584395  0.25002192  1
  In  In77  1  0.32932379  0.00495195  0.75548316  1
  In  In78  1  0.16548076  0.16776576  -0.00014414  1
  In  In79  1  0.17195986  0.49560201  0.50253700  1
  In  In80  1  0.16396815  0.83391075  0.00201616  1
  In  In81  1  0.16748434  0.83218449  0.50049689  1
  In  In82  1  0.51228014  0.50033472  0.00316602  1
  In  In83  1  0.83128573  0.49398028  0.49449968  1
  In  In84  1  0.50674011  0.16086776  0.49439388  1
  In  In85  1  0.66832861  0.00801231  0.74908735  1
  Cu  Cu86  1  0.33535986  0.66662786  0.00885514  1
  Cu  Cu87  1  0.16734300  0.83480255  0.24813753  1
  Cu  Cu88  1  0.34148808  -0.00768198  0.00923141  1
  Cu  Cu89  1  0.50579954  0.83276458  0.74972495  1
  Cu  Cu90  1  0.66992762  0.00242988  0.00962414  1
  Cu  Cu91  1  -0.00415318  0.33708090  0.00012754  1
  Cu  Cu92  1  0.66306986  0.67146575  0.00695536  1
  Cu  Cu93  1  0.66543982  0.67245412  0.49463756  1
  Cu  Cu94  1  0.83456681  0.16110581  0.74716877  1
  Cu  Cu95  1  0.50476338  0.50339260  0.25074779  1
  Cu  Cu96  1  0.67157871  0.32909996  0.00364491  1
  Cu  Cu97  1  0.34131328  0.33319458  -0.00467731  1
  Cu  Cu98  1  0.66876917  -0.00142164  0.48619410  1
  Cu  Cu99  1  0.83565600  0.49942395  0.75654265  1
  Cu  Cu100  1  0.16095102  0.16703905  0.25187341  1
  Cu  Cu101  1  0.15339027  0.83100222  0.75103503  1
  Cu  Cu102  1  0.50512123  0.16460721  0.24983125  1
  Cu  Cu103  1  0.33640434  -0.00401749  0.49050774  1
  Cu  Cu104  1  0.16467250  0.49463244  0.24602333  1
  Cu  Cu105  1  0.83422175  0.83626028  0.24780418  1
  Cu  Cu106  1  0.34847427  0.67323205  0.49335816  1
  Cu  Cu107  1  -0.00606114  0.66841625  0.00087205  1
  Cu  Cu108  1  -0.00436202  0.67001487  0.50480915  1
  Cu  Cu109  1  0.16076824  0.50473469  0.75567801  1
  Cu  Cu110  1  0.83329855  0.49934065  0.24829265  1
  Cu  Cu111  1  0.33682943  0.33825565  0.50017130  1
  Cu  Cu112  1  0.83513136  0.83689086  0.75287865  1
  Cu  Cu113  1  0.16376498  0.16399835  0.74707146  1
  Cu  Cu114  1  -0.00833137  0.00443730  0.49716992  1
  Se  Se115  1  0.07821746  0.08042154  0.06100102  1
  Se  Se116  1  0.08151890  0.08125559  0.55029890  1
  Se  Se117  1  0.08490696  0.41858773  0.04942007  1
  Se  Se118  1  0.07341462  0.40599243  0.55438201  1
  Se  Se119  1  0.07230669  0.74669292  0.06448061  1
  Se  Se120  1  0.07859060  0.74639550  0.56558515  1
  Se  Se121  1  0.42328432  0.08424765  0.05487781  1
  Se  Se122  1  0.41072935  0.07617075  0.55798590  1
  Se  Se123  1  0.41832441  0.40923534  0.06207632  1
  Se  Se124  1  0.41923250  0.41567408  0.55770737  1
  Se  Se125  1  0.41730486  0.75076247  0.06082962  1
  Se  Se126  1  0.42669989  0.76217206  0.54589938  1
  Se  Se127  1  0.75528417  0.08800188  0.05724356  1
  Se  Se128  1  0.74133317  0.08352713  0.54791055  1
  Se  Se129  1  0.75218782  0.41868584  0.05413017  1
  Se  Se130  1  0.74346356  0.40633887  0.55638824  1
  Se  Se131  1  0.75079707  0.75322415  0.05728319  1
  Se  Se132  1  0.75203155  0.75441388  0.54672989  1
  Se  Se133  1  0.26124591  0.25499709  0.05980030  1
  Se  Se134  1  0.24980763  0.25326805  0.54768606  1
  Se  Se135  1  0.24573972  0.58053344  0.05041202  1
  Se  Se136  1  0.26647862  0.59347732  0.55556391  1
  Se  Se137  1  0.25215623  0.91944857  0.06629361  1
  Se  Se138  1  0.25803432  0.92481549  0.56038097  1
  Se  Se139  1  0.58555440  0.24509043  0.05354634  1
  Se  Se140  1  0.58056932  0.25293475  0.56269455  1
  Se  Se141  1  0.58955137  0.58958389  0.07178479  1
  Se  Se142  1  0.58781918  0.58920100  0.55220585  1
  Se  Se143  1  0.58419756  0.91623788  0.05795295  1
  Se  Se144  1  0.58176812  0.92049477  0.54230872  1
  Se  Se145  1  0.91909712  0.25282101  0.05751497  1
  Se  Se146  1  0.91333531  0.24874524  0.54512116  1
  Se  Se147  1  0.90923333  0.58251083  0.05151493  1
  Se  Se148  1  0.91840029  0.58410766  0.56177076  1
  Se  Se149  1  0.91360940  0.91840149  0.04804136  1
  Se  Se150  1  0.91169721  0.91778058  0.55210476  1
  Se  Se151  1  0.08806189  0.23812944  0.44694467  1
  Se  Se152  1  0.07629281  0.25866082  0.93720743  1
  Se  Se153  1  0.07677601  0.59084525  0.44591165  1
  Se  Se154  1  0.08194184  0.58604131  0.95098314  1
  Se  Se155  1  0.07730581  0.92269588  0.44091543  1
  Se  Se156  1  0.07706119  0.92550058  0.94238752  1
  Se  Se157  1  0.41451621  0.25715407  0.43687279  1
  Se  Se158  1  0.42326381  0.24955289  0.94287900  1
  Se  Se159  1  0.42702647  0.58176674  0.44496802  1
  Se  Se160  1  0.41370914  0.58796954  0.94396839  1
  Se  Se161  1  0.42389710  0.91886460  0.43833499  1
  Se  Se162  1  0.42451021  0.90933794  0.95542859  1
  Se  Se163  1  0.73566990  0.24933726  0.43952701  1
  Se  Se164  1  0.75677829  0.24576810  0.95100780  1
  Se  Se165  1  0.74635555  0.59053230  0.43646016  1
  Se  Se166  1  0.73826345  0.58499239  0.94834022  1
  Se  Se167  1  0.75319648  0.91600578  0.43331948  1
  Se  Se168  1  0.75053551  0.91626070  0.95490633  1
  Se  Se169  1  0.24936557  0.08478000  0.44935367  1
  Se  Se170  1  0.26241915  0.07253210  0.94567110  1
  Se  Se171  1  0.25950601  0.41437861  0.43369421  1
  Se  Se172  1  0.25088908  0.41692704  0.95081775  1
  Se  Se173  1  0.25820108  0.74773681  0.43782457  1
  Se  Se174  1  0.25851652  0.74381865  0.94171026  1
  Se  Se175  1  0.59398884  0.08317987  0.42500328  1
  Se  Se176  1  0.58751970  0.08305115  0.95139250  1
  Se  Se177  1  0.58390708  0.42691901  0.45558844  1
  Se  Se178  1  0.58639999  0.40259087  0.94014994  1
  Se  Se179  1  0.58552377  0.75588785  0.43898622  1
  Se  Se180  1  0.57753498  0.75209073  0.95327402  1
  Se  Se181  1  0.90936328  0.08311406  0.43919826  1
  Se  Se182  1  0.91824434  0.09088305  0.95551394  1
  Se  Se183  1  0.92803055  0.40606065  0.44090733  1
  Se  Se184  1  0.91020773  0.42005546  0.94746411  1
  Se  Se185  1  0.91514417  0.75602420  0.45325663  1
  Se  Se186  1  0.91155955  0.75146955  0.94665535  1
  Se  Se187  1  0.24721958  0.24426847  0.31139671  1
  Se  Se188  1  0.24777458  0.24498399  0.80127080  1
  Se  Se189  1  0.24987801  0.57863684  0.29567746  1
  Se  Se190  1  0.24552280  0.57863279  0.81705521  1
  Se  Se191  1  0.24692249  0.91954546  0.30447714  1
  Se  Se192  1  0.23850663  0.90604590  0.81108050  1
  Se  Se193  1  0.58530605  0.25312011  0.29983409  1
  Se  Se194  1  0.59943730  0.25295610  0.80466746  1
  Se  Se195  1  0.58900191  0.58633549  0.30398532  1
  Se  Se196  1  0.57047926  0.56831026  0.80727299  1
  Se  Se197  1  0.56913161  0.89267605  0.29163048  1
  Se  Se198  1  0.58109205  0.91342796  0.81160586  1
  Se  Se199  1  0.91888959  0.25254373  0.30255186  1
  Se  Se200  1  0.91131827  0.24539916  0.80853800  1
  Se  Se201  1  0.91177468  0.57722828  0.31346237  1
  Se  Se202  1  0.91426322  0.58793760  0.80669279  1
  Se  Se203  1  0.92117847  0.91828551  0.29840977  1
  Se  Se204  1  0.91147730  0.92229196  0.80935877  1
  Se  Se205  1  0.07862258  0.08221760  0.30482067  1
  Se  Se206  1  0.07905448  0.08292830  0.79993190  1
  Se  Se207  1  0.08315516  0.41056427  0.29808363  1
  Se  Se208  1  0.08275861  0.42044957  0.81471923  1
  Se  Se209  1  0.09238784  0.75746770  0.31569850  1
  Se  Se210  1  0.07220798  0.74723431  0.80416924  1
  Se  Se211  1  0.41877629  0.08216719  0.30020454  1
  Se  Se212  1  0.42796086  0.08758492  0.81128906  1
  Se  Se213  1  0.42895082  0.41707720  0.31207389  1
  Se  Se214  1  0.41040822  0.41397860  0.79669861  1
  Se  Se215  1  0.39621906  0.72575837  0.30572053  1
  Se  Se216  1  0.42167190  0.75317609  0.80682793  1
  Se  Se217  1  0.73624347  0.06199459  0.28911802  1
  Se  Se218  1  0.75973461  0.08539518  0.81517222  1
  Se  Se219  1  0.75529294  0.41800516  0.30842002  1
  Se  Se220  1  0.74994426  0.41433722  0.80328852  1
  Se  Se221  1  0.75387918  0.74827264  0.29890116  1
  Se  Se222  1  0.75092672  0.75813355  0.81133272  1
  Se  Se223  1  0.25057333  0.08465987  0.20399584  1
  Se  Se224  1  0.24514176  0.08627542  0.68484552  1
  Se  Se225  1  0.24526291  0.41830376  0.18286272  1
  Se  Se226  1  0.23984765  0.42250158  0.69762422  1
  Se  Se227  1  0.24890947  0.74790413  0.19825866  1
  Se  Se228  1  0.23843189  0.75904047  0.68934160  1
  Se  Se229  1  0.58788527  0.08296612  0.19474561  1
  Se  Se230  1  0.56969662  0.09584113  0.69516349  1
  Se  Se231  1  0.58857918  0.41505808  0.20342853  1
  Se  Se232  1  0.58901564  0.41558553  0.69838228  1
  Se  Se233  1  0.57460338  0.77000953  0.20477475  1
  Se  Se234  1  0.58509575  0.75521383  0.68893408  1
  Se  Se235  1  0.91644571  0.07938433  0.20015759  1
  Se  Se236  1  0.91483711  0.07782754  0.69223322  1
  Se  Se237  1  0.91631574  0.41622264  0.19533727  1
  Se  Se238  1  0.90738117  0.41983035  0.68807601  1
  Se  Se239  1  0.91462801  0.75060512  0.18926203  1
  Se  Se240  1  0.91336843  0.74934233  0.69806099  1
  Se  Se241  1  0.08010423  0.25111956  0.19811656  1
  Se  Se242  1  0.08521451  0.24065483  0.68277922  1
  Se  Se243  1  0.08359668  0.57564232  0.18602952  1
  Se  Se244  1  0.07716001  0.58700248  0.70300509  1
  Se  Se245  1  0.08056885  0.91858449  0.20026490  1
  Se  Se246  1  0.07386032  0.92077218  0.70144546  1
  Se  Se247  1  0.42240631  0.24441000  0.18925138  1
  Se  Se248  1  0.40933511  0.25065983  0.70079969  1
  Se  Se249  1  0.41669983  0.58203420  0.19859764  1
  Se  Se250  1  0.42758401  0.57967966  0.68999928  1
  Se  Se251  1  0.40293952  0.93746837  0.19831070  1
  Se  Se252  1  0.42341694  0.91510143  0.69282750  1
  Se  Se253  1  0.73629286  0.26640888  0.19643710  1
  Se  Se254  1  0.74966161  0.24520496  0.69725543  1
  Se  Se255  1  0.74794439  0.58692302  0.20195099  1
  Se  Se256  1  0.75750766  0.57525544  0.68903479  1
  Se  Se257  1  0.75364385  0.91849880  0.19184973  1
  Se  Se258  1  0.75143568  0.91022997  0.68941751  1
