# generated using pymatgen
data_In86Cu29Se144
_symmetry_space_group_name_H-M   'P 1'
_cell_length_a   17.58156899
_cell_length_b   17.58127389
_cell_length_c   23.44919951
_cell_angle_alpha   89.98401133
_cell_angle_beta   89.98448782
_cell_angle_gamma   89.99142699
_symmetry_Int_Tables_number   1
_chemical_formula_structural   In86Cu29Se144
_chemical_formula_sum   'In86 Cu29 Se144'
_cell_volume   7248.29653981
_cell_formula_units_Z   1
loop_
 _symmetry_equiv_pos_site_id
 _symmetry_equiv_pos_as_xyz
  1  'x, y, z'
loop_
 _atom_site_type_symbol
 _atom_site_label
 _atom_site_symmetry_multiplicity
 _atom_site_fract_x
 _atom_site_fract_y
 _atom_site_fract_z
 _atom_site_occupancy
  In  In0  1  0.01892625  0.19646646  0.10001396  1
  In  In1  1  0.01490654  0.18700250  0.61821235  1
  In  In2  1  0.02506700  0.46815362  0.16402791  1
  In  In3  1  -0.00138530  0.48638556  0.62279330  1
  In  In4  1  -0.00851495  0.82500123  0.12041612  1
  In  In5  1  0.02007788  0.82130982  0.62343186  1
  In  In6  1  0.32847469  0.18706633  0.12757824  1
  In  In7  1  0.32425670  0.15611369  0.61088840  1
  In  In8  1  0.32463501  0.49640413  0.12826402  1
  In  In9  1  0.33742995  0.50783382  0.62078770  1
  In  In10  1  0.31637231  0.82962332  0.12332415  1
  In  In11  1  0.31713890  0.84362118  0.63148485  1
  In  In12  1  0.68105715  0.17072847  0.12286694  1
  In  In13  1  0.67843720  0.18443215  0.61588404  1
  In  In14  1  0.66371762  0.50213239  0.13346194  1
  In  In15  1  0.66109065  0.49740291  0.62348481  1
  In  In16  1  0.67292196  0.81093727  0.12556410  1
  In  In17  1  0.67339470  0.83285962  0.62469943  1
  In  In18  1  0.16887931  0.00229096  0.39088574  1
  In  In19  1  0.16816894  -0.00272462  0.87639617  1
  In  In20  1  0.16711729  0.33563467  0.36807604  1
  In  In21  1  0.16080464  0.33731945  0.88150542  1
  In  In22  1  0.16721599  0.65871528  0.37474401  1
  In  In23  1  0.17108350  0.66236850  0.88176909  1
  In  In24  1  0.50065618  0.00856037  0.38209957  1
  In  In25  1  0.49369241  0.01476153  0.86849540  1
  In  In26  1  0.50076147  0.34213602  0.37896948  1
  In  In27  1  0.50934384  0.33300987  0.87396548  1
  In  In28  1  0.48292659  0.65168409  0.36670533  1
  In  In29  1  0.48574422  0.66805373  0.87734782  1
  In  In30  1  0.84471009  0.00795395  0.37670253  1
  In  In31  1  0.83933348  -0.00133962  0.88325205  1
  In  In32  1  0.83356908  0.33710302  0.36521540  1
  In  In33  1  0.82343988  0.33345425  0.87269603  1
  In  In34  1  0.83889966  0.65822430  0.35581058  1
  In  In35  1  0.85007632  0.66334166  0.88458681  1
  In  In36  1  -0.00528029  0.17306062  0.38139988  1
  In  In37  1  -0.00102297  0.17662845  0.88137515  1
  In  In38  1  0.02954746  0.51811869  0.34236588  1
  In  In39  1  0.00406055  0.49717245  0.87690328  1
  In  In40  1  0.00973873  0.82367090  0.37907220  1
  In  In41  1  0.00630042  0.82626747  0.89078573  1
  In  In42  1  0.31642473  0.18608389  0.39538482  1
  In  In43  1  0.33114862  0.15853884  0.86817428  1
  In  In44  1  0.32707341  0.50189952  0.37477580  1
  In  In45  1  0.32325818  0.50998830  0.88238886  1
  In  In46  1  0.33187278  0.81741342  0.37572241  1
  In  In47  1  0.32320719  0.82518166  0.87116609  1
  In  In48  1  0.66463190  0.18311471  0.38223686  1
  In  In49  1  0.66391929  0.18236095  0.87158896  1
  In  In50  1  0.66676830  0.48817951  0.35958014  1
  In  In51  1  0.66694636  0.48148670  0.88021401  1
  In  In52  1  0.67657486  0.82549116  0.37239561  1
  In  In53  1  0.67397300  0.83689848  0.87813654  1
  In  In54  1  0.15888664  -0.00221917  0.11896674  1
  In  In55  1  0.18510676  0.01273699  0.60631446  1
  In  In56  1  0.16986075  0.33687445  0.12689852  1
  In  In57  1  0.15574792  0.32630679  0.61994961  1
  In  In58  1  0.16156429  0.66037664  0.13260696  1
  In  In59  1  0.16902486  0.67969389  0.60995778  1
  In  In60  1  0.50221785  0.00570162  0.12613669  1
  In  In61  1  0.47723635  0.00140633  0.62184702  1
  In  In62  1  0.48189173  0.34955702  0.13321162  1
  In  In63  1  0.50661883  0.34268868  0.61525020  1
  In  In64  1  0.50764976  0.64880424  0.13180826  1
  In  In65  1  0.49563222  0.64818692  0.61848407  1
  In  In66  1  0.84643464  0.01119935  0.11699377  1
  In  In67  1  0.81912617  0.00430823  0.62729165  1
  In  In68  1  0.84565443  0.32852229  0.13969987  1
  In  In69  1  0.85368216  0.32816355  0.63453105  1
  In  In70  1  0.83519318  0.65764748  0.13237322  1
  In  In71  1  0.83056580  0.65724617  0.62406315  1
  In  In72  1  0.50105107  0.83209701  0.00063451  1
  In  In73  1  0.49399718  0.83480571  0.49826911  1
  In  In74  1  0.33255261  0.33392262  0.74646927  1
  In  In75  1  0.66504197  -0.00193003  0.25055485  1
  In  In76  1  0.65987454  0.65887303  0.74234319  1
  In  In77  1  0.00296662  0.65428640  0.75440959  1
  In  In78  1  0.33431536  0.00142232  0.25842497  1
  In  In79  1  0.49867929  0.17041312  -0.00406551  1
  In  In80  1  0.84061456  0.83857369  0.49114595  1
  In  In81  1  0.65560600  0.00507921  0.75340147  1
  In  In82  1  0.00207944  0.00589146  0.75273224  1
  In  In83  1  -0.00006891  0.00107425  0.25353888  1
  In  In84  1  0.84405874  0.49449901  0.49169558  1
  In  In85  1  0.84383775  0.49567579  0.01153405  1
  Cu  Cu86  1  0.16494316  0.82129704  0.25262188  1
  Cu  Cu87  1  0.16721471  0.16831250  0.24968683  1
  Cu  Cu88  1  0.00401247  0.00317736  -0.00232300  1
  Cu  Cu89  1  0.67641982  0.33906652  0.49398087  1
  Cu  Cu90  1  0.16840825  0.50467046  0.75354844  1
  Cu  Cu91  1  0.32780479  0.66531412  0.49529542  1
  Cu  Cu92  1  0.66564870  0.66142523  0.49227518  1
  Cu  Cu93  1  0.00346482  0.66525497  0.00924988  1
  Cu  Cu94  1  0.83609325  0.16980834  0.24929547  1
  Cu  Cu95  1  0.66170223  0.01572974  0.50180058  1
  Cu  Cu96  1  0.83059693  0.82857194  0.24338136  1
  Cu  Cu97  1  0.33584087  0.34207048  0.49895689  1
  Cu  Cu98  1  0.66356988  0.33215499  0.00252114  1
  Cu  Cu99  1  0.32846586  -0.00066804  -0.00187237  1
  Cu  Cu100  1  0.48536157  0.82768748  0.74844199  1
  Cu  Cu101  1  0.00470527  0.33620950  0.49332676  1
  Cu  Cu102  1  0.32648893  0.34088069  0.00222440  1
  Cu  Cu103  1  -0.00765200  0.00500762  0.50446328  1
  Cu  Cu104  1  0.49681031  0.82693652  0.24920508  1
  Cu  Cu105  1  0.67850736  -0.00486606  -0.00053154  1
  Cu  Cu106  1  0.83988367  0.82162573  0.75825149  1
  Cu  Cu107  1  0.33171931  0.66048626  0.00398357  1
  Cu  Cu108  1  0.50132342  0.18318034  0.25783764  1
  Cu  Cu109  1  0.49505268  0.16753739  0.73994645  1
  Cu  Cu110  1  0.49439858  0.49852704  0.25159187  1
  Cu  Cu111  1  0.17129076  0.83534307  0.74948023  1
  Cu  Cu112  1  0.49917367  0.49769450  0.74585347  1
  Cu  Cu113  1  0.83712595  0.17204169  0.74922596  1
  Cu  Cu114  1  0.67283561  0.66136030  0.00957832  1
  Se  Se115  1  0.08968896  0.08708545  0.04803193  1
  Se  Se116  1  0.08123135  0.08877918  0.55135468  1
  Se  Se117  1  0.06673425  0.41160564  0.06904283  1
  Se  Se118  1  0.08576773  0.41898101  0.54945483  1
  Se  Se119  1  0.08961939  0.74953571  0.05956693  1
  Se  Se120  1  0.07167542  0.74322498  0.54134142  1
  Se  Se121  1  0.40784354  0.08095868  0.05889717  1
  Se  Se122  1  0.42064191  0.08597374  0.54478609  1
  Se  Se123  1  0.41284025  0.42304275  0.05338739  1
  Se  Se124  1  0.42010118  0.42630066  0.55117977  1
  Se  Se125  1  0.41430709  0.74334857  0.06272853  1
  Se  Se126  1  0.40801376  0.74418761  0.56014696  1
  Se  Se127  1  0.75361064  0.08660565  0.05088310  1
  Se  Se128  1  0.75522472  0.08984688  0.55177341  1
  Se  Se129  1  0.74423948  0.40833097  0.06578472  1
  Se  Se130  1  0.75622423  0.41215028  0.56041839  1
  Se  Se131  1  0.76294895  0.74357178  0.05521211  1
  Se  Se132  1  0.74647150  0.74266789  0.55073622  1
  Se  Se133  1  0.24600354  0.25171636  0.05161411  1
  Se  Se134  1  0.25148303  0.25836883  0.55182035  1
  Se  Se135  1  0.24445270  0.58236368  0.05896556  1
  Se  Se136  1  0.24742472  0.58104255  0.55107095  1
  Se  Se137  1  0.24582919  0.91610521  0.05184021  1
  Se  Se138  1  0.23749534  0.89881445  0.54963857  1
  Se  Se139  1  0.57922378  0.25582860  0.06523064  1
  Se  Se140  1  0.58878632  0.25759573  0.54740269  1
  Se  Se141  1  0.58481788  0.57632499  0.05497160  1
  Se  Se142  1  0.58668285  0.57840174  0.54874398  1
  Se  Se143  1  0.59457815  0.92162944  0.06180409  1
  Se  Se144  1  0.59063395  0.92310301  0.55936616  1
  Se  Se145  1  0.89368358  0.24327187  0.05744788  1
  Se  Se146  1  0.91922500  0.25704369  0.55071238  1
  Se  Se147  1  0.93540099  0.57915503  0.07244907  1
  Se  Se148  1  0.92602468  0.58914291  0.55614698  1
  Se  Se149  1  0.92156062  0.91902313  0.05244422  1
  Se  Se150  1  0.91888190  0.91950736  0.56664064  1
  Se  Se151  1  0.09005700  0.25116869  0.44193479  1
  Se  Se152  1  0.08668313  0.24986353  0.95120536  1
  Se  Se153  1  0.08131550  0.56941104  0.43602834  1
  Se  Se154  1  0.07833187  0.58536717  0.94604010  1
  Se  Se155  1  0.07108553  0.92074883  0.44798333  1
  Se  Se156  1  0.09007327  0.91691662  0.94973523  1
  Se  Se157  1  0.42334298  0.25688144  0.45063459  1
  Se  Se158  1  0.40417464  0.25983351  0.93823465  1
  Se  Se159  1  0.41483685  0.57981280  0.44772075  1
  Se  Se160  1  0.41851966  0.58129499  0.95061723  1
  Se  Se161  1  0.40237121  0.92311458  0.43988797  1
  Se  Se162  1  0.41479810  0.92415787  0.93883965  1
  Se  Se163  1  0.76413276  0.25658619  0.44366201  1
  Se  Se164  1  0.74565453  0.25094371  0.94711595  1
  Se  Se165  1  0.74967390  0.58515405  0.43313944  1
  Se  Se166  1  0.74954939  0.58075691  0.94475813  1
  Se  Se167  1  0.73870545  0.93146002  0.44039840  1
  Se  Se168  1  0.76000189  0.90776677  0.94916713  1
  Se  Se169  1  0.25672425  0.07953685  0.45556957  1
  Se  Se170  1  0.25118835  0.08545878  0.94308310  1
  Se  Se171  1  0.24716853  0.41519465  0.44253254  1
  Se  Se172  1  0.24265542  0.42379272  0.94881445  1
  Se  Se173  1  0.24200866  0.74961019  0.44636460  1
  Se  Se174  1  0.25301125  0.74838992  0.94966359  1
  Se  Se175  1  0.58023081  0.09632395  0.44714502  1
  Se  Se176  1  0.59392102  0.07458605  0.94109589  1
  Se  Se177  1  0.59341636  0.42456481  0.44287604  1
  Se  Se178  1  0.57654120  0.41427693  0.95222894  1
  Se  Se179  1  0.58300686  0.74354507  0.43596040  1
  Se  Se180  1  0.59448684  0.73829131  0.94271557  1
  Se  Se181  1  0.91158926  0.09050580  0.45170220  1
  Se  Se182  1  0.91792091  0.08701799  0.94777213  1
  Se  Se183  1  0.93530742  0.41561348  0.42691304  1
  Se  Se184  1  0.92055009  0.40627812  0.94290023  1
  Se  Se185  1  0.91598025  0.73291634  0.43720111  1
  Se  Se186  1  0.91784443  0.74875517  0.95811491  1
  Se  Se187  1  0.25500666  0.24461087  0.30559592  1
  Se  Se188  1  0.24264290  0.24943275  0.80835297  1
  Se  Se189  1  0.25989404  0.59347658  0.30381964  1
  Se  Se190  1  0.25046097  0.58898915  0.80546501  1
  Se  Se191  1  0.23768074  0.91003325  0.31185827  1
  Se  Se192  1  0.25180739  0.91963590  0.80423876  1
  Se  Se193  1  0.58920938  0.26273155  0.30857473  1
  Se  Se194  1  0.57567571  0.24686528  0.79798974  1
  Se  Se195  1  0.58168662  0.58344128  0.30194156  1
  Se  Se196  1  0.57591951  0.57675942  0.81251507  1
  Se  Se197  1  0.57298171  0.90784378  0.31155569  1
  Se  Se198  1  0.56947954  0.90347094  0.81023097  1
  Se  Se199  1  0.92275468  0.24867838  0.30318616  1
  Se  Se200  1  0.91508429  0.25202183  0.80870946  1
  Se  Se201  1  0.90659201  0.56367679  0.29005423  1
  Se  Se202  1  0.90314165  0.56838711  0.80832838  1
  Se  Se203  1  0.90814433  0.90494045  0.30955472  1
  Se  Se204  1  0.91877156  0.90513203  0.81399210  1
  Se  Se205  1  0.09333014  0.08678738  0.31350493  1
  Se  Se206  1  0.09030207  0.09494015  0.81148163  1
  Se  Se207  1  0.08629057  0.40330023  0.28934349  1
  Se  Se208  1  0.08727544  0.41999473  0.80586554  1
  Se  Se209  1  0.07863877  0.74175921  0.30461856  1
  Se  Se210  1  0.08735777  0.75679738  0.80970151  1
  Se  Se211  1  0.42141266  0.09742501  0.31354908  1
  Se  Se212  1  0.41253672  0.08394662  0.79322998  1
  Se  Se213  1  0.41407743  0.41699515  0.30842585  1
  Se  Se214  1  0.41829106  0.42350168  0.81160725  1
  Se  Se215  1  0.40969615  0.74571606  0.29964803  1
  Se  Se216  1  0.40710293  0.74238267  0.80276449  1
  Se  Se217  1  0.75503465  0.08977045  0.30986481  1
  Se  Se218  1  0.75723534  0.08790947  0.80964806  1
  Se  Se219  1  0.76132520  0.42122725  0.29156658  1
  Se  Se220  1  0.73704149  0.40918245  0.80282435  1
  Se  Se221  1  0.74686890  0.74588265  0.29735922  1
  Se  Se222  1  0.75310793  0.74188380  0.81136220  1
  Se  Se223  1  0.24451770  0.08432696  0.19020875  1
  Se  Se224  1  0.24853526  0.08474655  0.68855528  1
  Se  Se225  1  0.26590669  0.39687231  0.19755212  1
  Se  Se226  1  0.24329124  0.42490728  0.68760599  1
  Se  Se227  1  0.25266552  0.74477613  0.19865145  1
  Se  Se228  1  0.24356857  0.74436383  0.69345249  1
  Se  Se229  1  0.57605865  0.09910271  0.19568161  1
  Se  Se230  1  0.58059275  0.08894066  0.68091215  1
  Se  Se231  1  0.58070467  0.41503383  0.19940153  1
  Se  Se232  1  0.58309451  0.41430372  0.69497473  1
  Se  Se233  1  0.58120860  0.74660636  0.19610822  1
  Se  Se234  1  0.57090646  0.75712116  0.68616712  1
  Se  Se235  1  0.92184401  0.09504468  0.19014143  1
  Se  Se236  1  0.91159529  0.08966509  0.68838304  1
  Se  Se237  1  0.88874280  0.44111501  0.20419778  1
  Se  Se238  1  0.92367777  0.42102825  0.70171791  1
  Se  Se239  1  0.92090865  0.74594332  0.19719392  1
  Se  Se240  1  0.91447151  0.74974563  0.69085621  1
  Se  Se241  1  0.08355805  0.24529634  0.19207981  1
  Se  Se242  1  0.08161759  0.25628163  0.69948750  1
  Se  Se243  1  0.09021844  0.58212180  0.21052958  1
  Se  Se244  1  0.09348652  0.58086859  0.68577895  1
  Se  Se245  1  0.08766759  0.90745156  0.19377014  1
  Se  Se246  1  0.09040701  0.91625226  0.69167476  1
  Se  Se247  1  0.41147497  0.25591155  0.20237837  1
  Se  Se248  1  0.41780090  0.24915404  0.67923503  1
  Se  Se249  1  0.41080456  0.58046432  0.19700638  1
  Se  Se250  1  0.41506184  0.58424939  0.69775419  1
  Se  Se251  1  0.42062444  0.91225478  0.19035596  1
  Se  Se252  1  0.40886305  0.91953354  0.69801214  1
  Se  Se253  1  0.74584751  0.25126845  0.20065015  1
  Se  Se254  1  0.75182020  0.25425379  0.69583231  1
  Se  Se255  1  0.72801413  0.60408082  0.19595758  1
  Se  Se256  1  0.75943355  0.56696890  0.69501713  1
  Se  Se257  1  0.75666345  0.91648233  0.18526478  1
  Se  Se258  1  0.75610669  0.90676617  0.70348774  1
