# generated using pymatgen
data_In86Cu29Se144
_symmetry_space_group_name_H-M   'P 1'
_cell_length_a   17.58277940
_cell_length_b   17.58329890
_cell_length_c   23.43454169
_cell_angle_alpha   90.01484511
_cell_angle_beta   89.97974157
_cell_angle_gamma   90.00471113
_symmetry_Int_Tables_number   1
_chemical_formula_structural   In86Cu29Se144
_chemical_formula_sum   'In86 Cu29 Se144'
_cell_volume   7245.09872076
_cell_formula_units_Z   1
loop_
 _symmetry_equiv_pos_site_id
 _symmetry_equiv_pos_as_xyz
  1  'x, y, z'
loop_
 _atom_site_type_symbol
 _atom_site_label
 _atom_site_symmetry_multiplicity
 _atom_site_fract_x
 _atom_site_fract_y
 _atom_site_fract_z
 _atom_site_occupancy
  In  In0  1  -0.02665490  0.18320196  0.14777084  1
  In  In1  1  0.00263871  0.16593184  0.62988427  1
  In  In2  1  -0.00030275  0.50471955  0.13220586  1
  In  In3  1  -0.01386314  0.48827915  0.62510898  1
  In  In4  1  -0.04570972  0.86890416  0.16705797  1
  In  In5  1  0.00520545  0.84878988  0.60672376  1
  In  In6  1  0.33790317  0.16091161  0.13482644  1
  In  In7  1  0.33201967  0.16040617  0.61930716  1
  In  In8  1  0.34249310  0.49962046  0.14342713  1
  In  In9  1  0.35102815  0.50283012  0.61984892  1
  In  In10  1  0.34327934  0.82378131  0.13357162  1
  In  In11  1  0.32411401  0.84422553  0.62800235  1
  In  In12  1  0.67866950  0.16291388  0.13636786  1
  In  In13  1  0.65467846  0.17029324  0.62235699  1
  In  In14  1  0.65201524  0.49501794  0.14248514  1
  In  In15  1  0.66190381  0.51236181  0.62255577  1
  In  In16  1  0.66682410  0.84382372  0.12309459  1
  In  In17  1  0.67410402  0.83074941  0.62553976  1
  In  In18  1  0.15738683  -0.01773537  0.37269152  1
  In  In19  1  0.16675120  -0.00274463  0.86817401  1
  In  In20  1  0.16644480  0.32665091  0.36983272  1
  In  In21  1  0.16437424  0.34939984  0.87706059  1
  In  In22  1  0.17549766  0.67707132  0.37601895  1
  In  In23  1  0.16917225  0.65580621  0.87139041  1
  In  In24  1  0.50822376  0.01106495  0.36915480  1
  In  In25  1  0.48971279  -0.01070579  0.86664305  1
  In  In26  1  0.49763139  0.33028928  0.37817702  1
  In  In27  1  0.50448956  0.33690220  0.87978307  1
  In  In28  1  0.49574995  0.65725236  0.36009509  1
  In  In29  1  0.51445747  0.67366888  0.86534519  1
  In  In30  1  0.83221944  -0.00945973  0.36049133  1
  In  In31  1  0.83043062  -0.00124409  0.87426790  1
  In  In32  1  0.83096818  0.32019420  0.35455522  1
  In  In33  1  0.82515493  0.31233685  0.87861975  1
  In  In34  1  0.83957640  0.67996289  0.35817033  1
  In  In35  1  0.83579295  0.68518974  0.87955947  1
  In  In36  1  -0.01172528  0.15341752  0.35781944  1
  In  In37  1  -0.01007025  0.15158308  0.87139410  1
  In  In38  1  -0.00839334  0.49094159  0.36915730  1
  In  In39  1  0.00920326  0.50188788  0.87481034  1
  In  In40  1  -0.00036405  0.83621170  0.37291320  1
  In  In41  1  -0.01340366  0.83996799  0.87984724  1
  In  In42  1  0.34554401  0.17467839  0.37131077  1
  In  In43  1  0.34663426  0.16406669  0.87478729  1
  In  In44  1  0.34576165  0.49962037  0.37261628  1
  In  In45  1  0.32353406  0.50550965  0.87184254  1
  In  In46  1  0.32722679  0.82544693  0.37310040  1
  In  In47  1  0.34039785  0.83393328  0.86687838  1
  In  In48  1  0.66520792  0.15538184  0.36449262  1
  In  In49  1  0.68566665  0.16732075  0.88167321  1
  In  In50  1  0.65577079  0.49541486  0.36153488  1
  In  In51  1  0.65863582  0.49900247  0.87674190  1
  In  In52  1  0.67970292  0.83682484  0.35661624  1
  In  In53  1  0.66507931  0.83305178  0.87469002  1
  In  In54  1  0.16111923  0.00410946  0.12912087  1
  In  In55  1  0.16671805  0.00194885  0.62502055  1
  In  In56  1  0.16775151  0.33850669  0.13368980  1
  In  In57  1  0.15840256  0.32398162  0.62151441  1
  In  In58  1  0.16848445  0.66791163  0.13106336  1
  In  In59  1  0.16060490  0.68296530  0.62359488  1
  In  In60  1  0.51342964  -0.01087101  0.13069811  1
  In  In61  1  0.49595618  0.00300371  0.62581391  1
  In  In62  1  0.51261048  0.32365031  0.14702717  1
  In  In63  1  0.49088032  0.33309257  0.60593876  1
  In  In64  1  0.48975007  0.67248056  0.13420510  1
  In  In65  1  0.51028251  0.66386293  0.62392663  1
  In  In66  1  0.82372726  0.00401703  0.12963422  1
  In  In67  1  0.83902165  -0.00600550  0.63058162  1
  In  In68  1  0.83065386  0.33277590  0.13259191  1
  In  In69  1  0.84420011  0.34527571  0.62765738  1
  In  In70  1  0.80677111  0.70250221  0.15457981  1
  In  In71  1  0.81690075  0.67120462  0.62695273  1
  In  In72  1  0.83510641  0.50145464  0.00912054  1
  In  In73  1  0.17183293  0.50383762  0.48711291  1
  In  In74  1  0.50316725  0.82857098  0.49202283  1
  In  In75  1  -0.00253541  0.67361665  0.75143379  1
  In  In76  1  0.16600089  0.50399637  0.00364720  1
  In  In77  1  0.51805183  0.15724204  0.01730779  1
  In  In78  1  0.83008237  0.15651787  0.48679062  1
  In  In79  1  0.82684895  0.50450355  0.49760573  1
  In  In80  1  0.50424373  0.50295714  0.00347261  1
  In  In81  1  0.32619909  0.32863936  0.74744776  1
  In  In82  1  0.67044089  0.33353901  0.75258687  1
  In  In83  1  0.15796777  0.15983342  0.00079387  1
  In  In84  1  0.16175848  0.83014447  0.00195763  1
  In  In85  1  0.16908138  0.16333563  0.49878305  1
  Cu  Cu86  1  0.83534378  0.16180704  0.75203011  1
  Cu  Cu87  1  0.15969484  0.16713525  0.74679131  1
  Cu  Cu88  1  0.50368926  0.84112620  0.25135426  1
  Cu  Cu89  1  -0.01133969  0.32371124  0.00275442  1
  Cu  Cu90  1  0.50083925  0.15835536  0.74860048  1
  Cu  Cu91  1  0.50358067  0.50041735  0.74555990  1
  Cu  Cu92  1  0.34277962  0.67203221  0.00345850  1
  Cu  Cu93  1  0.50328936  0.82854182  0.74528601  1
  Cu  Cu94  1  0.17501012  0.15756125  0.25444399  1
  Cu  Cu95  1  0.67150605  -0.00326249  0.49147396  1
  Cu  Cu96  1  -0.00737025  0.67466744  0.49407405  1
  Cu  Cu97  1  0.16674419  0.83739096  0.74469939  1
  Cu  Cu98  1  0.33720989  -0.01519665  -0.00264271  1
  Cu  Cu99  1  0.34535322  0.32648521  0.01304654  1
  Cu  Cu100  1  0.67077426  0.67513258  0.00425475  1
  Cu  Cu101  1  0.49558824  0.16767595  0.25236228  1
  Cu  Cu102  1  0.33542675  0.00229263  0.50058246  1
  Cu  Cu103  1  0.66522486  0.66408145  0.49158468  1
  Cu  Cu104  1  -0.01744348  0.00135835  0.00759538  1
  Cu  Cu105  1  0.66952194  -0.00254315  -0.00034488  1
  Cu  Cu106  1  0.16584548  0.50257670  0.74721549  1
  Cu  Cu107  1  0.16987368  0.49784825  0.25869679  1
  Cu  Cu108  1  0.17076862  0.82769098  0.25182162  1
  Cu  Cu109  1  0.33700463  0.66660867  0.49717023  1
  Cu  Cu110  1  -0.00314862  0.32729550  0.49554989  1
  Cu  Cu111  1  0.83198765  0.83599581  0.75198277  1
  Cu  Cu112  1  0.65990150  0.33588334  0.49385584  1
  Cu  Cu113  1  0.83642478  0.49843644  0.24910914  1
  Cu  Cu114  1  -0.00759881  0.67926362  0.01505109  1
  Se  Se115  1  0.06386466  0.08373473  0.06518385  1
  Se  Se116  1  0.07183635  0.07800155  0.55479949  1
  Se  Se117  1  0.07397997  0.40661645  0.05704078  1
  Se  Se118  1  0.07640636  0.41375999  0.54984607  1
  Se  Se119  1  0.07624395  0.75595978  0.07220688  1
  Se  Se120  1  0.08302161  0.75182278  0.54583973  1
  Se  Se121  1  0.41012320  0.07016386  0.06023445  1
  Se  Se122  1  0.42102357  0.08474853  0.55135580  1
  Se  Se123  1  0.42129007  0.41147707  0.06975608  1
  Se  Se124  1  0.41545578  0.42440060  0.54250144  1
  Se  Se125  1  0.42426675  0.75551997  0.05538778  1
  Se  Se126  1  0.41276117  0.74967603  0.56021091  1
  Se  Se127  1  0.74474806  0.08386951  0.05610503  1
  Se  Se128  1  0.74348306  0.07872847  0.55769861  1
  Se  Se129  1  0.73835265  0.41895529  0.06749022  1
  Se  Se130  1  0.74098436  0.40792956  0.55793296  1
  Se  Se131  1  0.75460383  0.75546061  0.05866316  1
  Se  Se132  1  0.74406477  0.74671550  0.54927354  1
  Se  Se133  1  0.25222327  0.24870326  0.06193887  1
  Se  Se134  1  0.25868147  0.26138548  0.55373712  1
  Se  Se135  1  0.26459501  0.58672106  0.06183529  1
  Se  Se136  1  0.25163726  0.59124358  0.55861315  1
  Se  Se137  1  0.25408808  0.91676358  0.06212930  1
  Se  Se138  1  0.24871327  0.92238019  0.55286966  1
  Se  Se139  1  0.59710034  0.26276105  0.06755347  1
  Se  Se140  1  0.58140693  0.24704931  0.54639914  1
  Se  Se141  1  0.59163573  0.59329943  0.06461579  1
  Se  Se142  1  0.58178268  0.58365749  0.54659600  1
  Se  Se143  1  0.58078977  0.91636966  0.04883362  1
  Se  Se144  1  0.58861747  0.92057369  0.55456955  1
  Se  Se145  1  0.90727843  0.24597113  0.06047213  1
  Se  Se146  1  0.91563645  0.24857258  0.55575809  1
  Se  Se147  1  0.91343672  0.59598325  0.07110945  1
  Se  Se148  1  0.92112667  0.59165634  0.55748535  1
  Se  Se149  1  0.90997238  0.91377288  0.06488500  1
  Se  Se150  1  0.89506787  0.90945363  0.55088550  1
  Se  Se151  1  0.07168688  0.24430611  0.43574708  1
  Se  Se152  1  0.07589369  0.25666529  0.93860930  1
  Se  Se153  1  0.06958351  0.58907839  0.43619647  1
  Se  Se154  1  0.07069299  0.60068725  0.95065297  1
  Se  Se155  1  0.08268072  0.90854918  0.44828959  1
  Se  Se156  1  0.07435542  0.93241429  0.94687791  1
  Se  Se157  1  0.42118613  0.24449191  0.44843384  1
  Se  Se158  1  0.42243325  0.24865616  0.95128669  1
  Se  Se159  1  0.42176576  0.58901367  0.44207475  1
  Se  Se160  1  0.41380874  0.58889890  0.93820751  1
  Se  Se161  1  0.41429390  0.92440730  0.43661963  1
  Se  Se162  1  0.42081971  0.90591255  0.94321163  1
  Se  Se163  1  0.74395781  0.25854847  0.43597322  1
  Se  Se164  1  0.74984508  0.24861814  0.95840386  1
  Se  Se165  1  0.74730088  0.58928630  0.42862830  1
  Se  Se166  1  0.74510367  0.58981017  0.94363943  1
  Se  Se167  1  0.75127128  0.91497284  0.43536398  1
  Se  Se168  1  0.75005611  0.91420601  0.94367055  1
  Se  Se169  1  0.25544580  0.07678421  0.43470829  1
  Se  Se170  1  0.25960925  0.07394505  0.94242742  1
  Se  Se171  1  0.25956162  0.40499534  0.43741494  1
  Se  Se172  1  0.26582410  0.40847780  0.95077012  1
  Se  Se173  1  0.25100722  0.75423146  0.45237451  1
  Se  Se174  1  0.25469499  0.74039016  0.94098013  1
  Se  Se175  1  0.58853575  0.08553168  0.44431916  1
  Se  Se176  1  0.58495949  0.07543882  0.93724064  1
  Se  Se177  1  0.58219917  0.42377886  0.44136028  1
  Se  Se178  1  0.59731651  0.40388247  0.95168607  1
  Se  Se179  1  0.59285713  0.74729745  0.42761931  1
  Se  Se180  1  0.58364417  0.74780649  0.94541145  1
  Se  Se181  1  0.92560794  0.06574249  0.43670491  1
  Se  Se182  1  0.90704778  0.08476642  0.94760567  1
  Se  Se183  1  0.90860433  0.40334100  0.43903281  1
  Se  Se184  1  0.92109838  0.41380823  0.94113658  1
  Se  Se185  1  0.90832963  0.75353928  0.43941634  1
  Se  Se186  1  0.91384524  0.75961501  0.95498858  1
  Se  Se187  1  0.25400377  0.24858128  0.30277319  1
  Se  Se188  1  0.23887270  0.24184375  0.81419436  1
  Se  Se189  1  0.25080885  0.58150345  0.31261678  1
  Se  Se190  1  0.25214200  0.58617367  0.79606138  1
  Se  Se191  1  0.25293449  0.91471030  0.30398958  1
  Se  Se192  1  0.25185102  0.91600090  0.80194831  1
  Se  Se193  1  0.58057157  0.24885735  0.30636634  1
  Se  Se194  1  0.57712965  0.24075123  0.81120956  1
  Se  Se195  1  0.59922685  0.59943038  0.29613160  1
  Se  Se196  1  0.59010484  0.57925195  0.79986393  1
  Se  Se197  1  0.58873694  0.92670052  0.29995020  1
  Se  Se198  1  0.58265914  0.91265395  0.80253220  1
  Se  Se199  1  0.93801881  0.26182542  0.29480420  1
  Se  Se200  1  0.91557583  0.24714834  0.80606407  1
  Se  Se201  1  0.92119246  0.58203763  0.30079541  1
  Se  Se202  1  0.91216105  0.58357377  0.81454082  1
  Se  Se203  1  0.91478900  0.90218199  0.29497226  1
  Se  Se204  1  0.91748510  0.91964809  0.80321127  1
  Se  Se205  1  0.08705503  0.07330370  0.30180404  1
  Se  Se206  1  0.08194403  0.08013758  0.80261727  1
  Se  Se207  1  0.08280433  0.41220749  0.30495167  1
  Se  Se208  1  0.08446999  0.41988705  0.80115058  1
  Se  Se209  1  0.08539054  0.74841889  0.30716245  1
  Se  Se210  1  0.09053282  0.76197322  0.81345687  1
  Se  Se211  1  0.41247404  0.07970680  0.30164069  1
  Se  Se212  1  0.41042375  0.07976689  0.79897526  1
  Se  Se213  1  0.43355341  0.42272438  0.30363282  1
  Se  Se214  1  0.42160985  0.42032269  0.80672379  1
  Se  Se215  1  0.41864065  0.75735887  0.30243243  1
  Se  Se216  1  0.41864197  0.74516637  0.79949026  1
  Se  Se217  1  0.78115356  0.10926933  0.30758855  1
  Se  Se218  1  0.74720589  0.08295184  0.80403772  1
  Se  Se219  1  0.74836199  0.41514678  0.29798264  1
  Se  Se220  1  0.75892545  0.42065992  0.81452571  1
  Se  Se221  1  0.75174567  0.74838102  0.28545956  1
  Se  Se222  1  0.75030257  0.75027906  0.80420719  1
  Se  Se223  1  0.25445609  0.07359268  0.19789340  1
  Se  Se224  1  0.24711097  0.08988049  0.69238182  1
  Se  Se225  1  0.25272262  0.41401742  0.20334350  1
  Se  Se226  1  0.24415237  0.42255671  0.68398378  1
  Se  Se227  1  0.25610205  0.74342620  0.20057569  1
  Se  Se228  1  0.24947461  0.75048476  0.69542183  1
  Se  Se229  1  0.58058732  0.08669192  0.19736233  1
  Se  Se230  1  0.58670126  0.08061896  0.69391398  1
  Se  Se231  1  0.55054425  0.43767646  0.21110667  1
  Se  Se232  1  0.57554526  0.41238293  0.68579340  1
  Se  Se233  1  0.58169812  0.75959683  0.19159975  1
  Se  Se234  1  0.58993857  0.74712687  0.69324050  1
  Se  Se235  1  0.92944902  0.06142033  0.19731808  1
  Se  Se236  1  0.91978664  0.08197145  0.69634152  1
  Se  Se237  1  0.92122914  0.41455658  0.19668199  1
  Se  Se238  1  0.91943679  0.41530699  0.70462082  1
  Se  Se239  1  0.94038039  0.72725919  0.19476188  1
  Se  Se240  1  0.91262968  0.76002557  0.68677712  1
  Se  Se241  1  0.09488352  0.23986255  0.19543575  1
  Se  Se242  1  0.07829657  0.25638075  0.69825978  1
  Se  Se243  1  0.09217874  0.57792393  0.19833097  1
  Se  Se244  1  0.08291654  0.57949471  0.68606081  1
  Se  Se245  1  0.09051280  0.91302942  0.19838095  1
  Se  Se246  1  0.08091222  0.91420985  0.68902936  1
  Se  Se247  1  0.40832030  0.25235460  0.20325333  1
  Se  Se248  1  0.42478848  0.24651948  0.68948808  1
  Se  Se249  1  0.40840712  0.59775517  0.20660866  1
  Se  Se250  1  0.42062027  0.58581610  0.69390263  1
  Se  Se251  1  0.41566640  0.92142145  0.19749452  1
  Se  Se252  1  0.41986280  0.91447075  0.69408007  1
  Se  Se253  1  0.74296231  0.26021457  0.20358825  1
  Se  Se254  1  0.75899142  0.24340377  0.68829179  1
  Se  Se255  1  0.74992827  0.57783697  0.19672303  1
  Se  Se256  1  0.76452189  0.56402757  0.68992235  1
  Se  Se257  1  0.74880266  0.91465179  0.19862682  1
  Se  Se258  1  0.74731002  0.91785134  0.69713849  1
