# generated using pymatgen
data_In86Cu29Se144
_symmetry_space_group_name_H-M   'P 1'
_cell_length_a   17.65406769
_cell_length_b   17.66334235
_cell_length_c   23.51051766
_cell_angle_alpha   89.97996647
_cell_angle_beta   89.99996143
_cell_angle_gamma   89.98048870
_symmetry_Int_Tables_number   1
_chemical_formula_structural   In86Cu29Se144
_chemical_formula_sum   'In86 Cu29 Se144'
_cell_volume   7331.28012176
_cell_formula_units_Z   1
loop_
 _symmetry_equiv_pos_site_id
 _symmetry_equiv_pos_as_xyz
  1  'x, y, z'
loop_
 _atom_site_type_symbol
 _atom_site_label
 _atom_site_symmetry_multiplicity
 _atom_site_fract_x
 _atom_site_fract_y
 _atom_site_fract_z
 _atom_site_occupancy
  In  In0  1  -0.01548925  0.15677464  0.12405385  1
  In  In1  1  -0.00434107  0.15675772  0.61873607  1
  In  In2  1  0.00914671  0.51091093  0.11386758  1
  In  In3  1  0.01000222  0.49837049  0.63066289  1
  In  In4  1  -0.00972647  0.82633549  0.12758000  1
  In  In5  1  -0.00554601  0.83643018  0.63226199  1
  In  In6  1  0.33052410  0.15867080  0.12779177  1
  In  In7  1  0.33236399  0.16504378  0.62748403  1
  In  In8  1  0.31512591  0.48662760  0.10382287  1
  In  In9  1  0.31380630  0.50113227  0.62841558  1
  In  In10  1  0.32929292  0.84615151  0.12874711  1
  In  In11  1  0.34299300  0.83285530  0.62725546  1
  In  In12  1  0.66468237  0.17037304  0.11830027  1
  In  In13  1  0.65786648  0.16271815  0.62244475  1
  In  In14  1  0.67014159  0.50328499  0.11221115  1
  In  In15  1  0.67154685  0.50370065  0.63198897  1
  In  In16  1  0.67087129  0.81882808  0.12648311  1
  In  In17  1  0.67654317  0.82589315  0.63779147  1
  In  In18  1  0.16961334  0.00964233  0.37610150  1
  In  In19  1  0.15666329  -0.00792956  0.86661629  1
  In  In20  1  0.17640697  0.32735364  0.38161203  1
  In  In21  1  0.18492871  0.33673339  0.87536483  1
  In  In22  1  0.15219448  0.67847867  0.37728078  1
  In  In23  1  0.16159156  0.67953339  0.88910303  1
  In  In24  1  0.49700306  0.01411607  0.37744386  1
  In  In25  1  0.50561052  0.00777910  0.87233730  1
  In  In26  1  0.48695486  0.33179286  0.37372820  1
  In  In27  1  0.48122530  0.34077444  0.88463652  1
  In  In28  1  0.50957369  0.65791319  0.36858380  1
  In  In29  1  0.49850862  0.65468425  0.87854987  1
  In  In30  1  0.85008275  -0.00065207  0.37235003  1
  In  In31  1  0.83861589  0.00107978  0.88002666  1
  In  In32  1  0.82683957  0.33072292  0.37673786  1
  In  In33  1  0.83037332  0.33644306  0.88228203  1
  In  In34  1  0.88330425  0.72102913  0.32274184  1
  In  In35  1  0.83780509  0.66847171  0.87425644  1
  In  In36  1  0.00990738  0.16688871  0.38369392  1
  In  In37  1  -0.00197939  0.15133747  0.87639553  1
  In  In38  1  0.00359606  0.51555677  0.37230696  1
  In  In39  1  -0.01289140  0.51790923  0.88339154  1
  In  In40  1  0.05161539  0.87570075  0.30284083  1
  In  In41  1  0.00430788  0.83363242  0.88088803  1
  In  In42  1  0.33047399  0.16777227  0.37666143  1
  In  In43  1  0.34174637  0.17375597  0.87032743  1
  In  In44  1  0.33871124  0.48845171  0.37204695  1
  In  In45  1  0.33776993  0.49966630  0.88982766  1
  In  In46  1  0.32023568  0.84200818  0.37106702  1
  In  In47  1  0.31452645  0.83308432  0.87816909  1
  In  In48  1  0.66790481  0.16051203  0.38649699  1
  In  In49  1  0.67280588  0.15842701  0.87924510  1
  In  In50  1  0.67168470  0.51599464  0.37089254  1
  In  In51  1  0.66436082  0.50549609  0.87535576  1
  In  In52  1  0.68246195  0.82978627  0.36909161  1
  In  In53  1  0.67732813  0.84926822  0.87083269  1
  In  In54  1  0.16432861  -0.00411675  0.12704773  1
  In  In55  1  0.15743217  0.00592853  0.63093165  1
  In  In56  1  0.16738881  0.33918224  0.12390558  1
  In  In57  1  0.17533581  0.33980837  0.62429871  1
  In  In58  1  0.16457602  0.66203410  0.12240726  1
  In  In59  1  0.16629713  0.65092306  0.62480114  1
  In  In60  1  0.48307943  -0.00188378  0.12450773  1
  In  In61  1  0.49306114  0.00943108  0.63612090  1
  In  In62  1  0.48239084  0.32410071  0.11124196  1
  In  In63  1  0.49826476  0.31619798  0.62643586  1
  In  In64  1  0.51021723  0.66380382  0.12384352  1
  In  In65  1  0.50543916  0.67328101  0.62817293  1
  In  In66  1  0.83618698  -0.00404229  0.12415843  1
  In  In67  1  0.82864413  0.00411005  0.63247107  1
  In  In68  1  0.82906675  0.33048485  0.11161648  1
  In  In69  1  0.84437447  0.33041879  0.62667543  1
  In  In70  1  0.83256197  0.66735384  0.11985669  1
  In  In71  1  0.83565526  0.66369827  0.63949683  1
  In  In72  1  0.33208373  0.66761747  0.75478955  1
  In  In73  1  0.66175141  0.33574398  0.25142022  1
  In  In74  1  0.50023756  0.83706905  0.00090944  1
  In  In75  1  0.66488250  -0.00576509  0.24237364  1
  In  In76  1  0.84232506  0.82773999  0.48906640  1
  In  In77  1  0.66233419  0.33171188  0.76014718  1
  In  In78  1  0.00299114  0.33721459  0.74846945  1
  In  In79  1  0.16081079  0.84010471  0.49203556  1
  In  In80  1  0.33398733  0.66453724  0.24562935  1
  In  In81  1  0.00397085  0.33750132  0.24621445  1
  In  In82  1  0.49975187  0.49290724  0.49417882  1
  In  In83  1  0.16033769  0.16044875  0.00084533  1
  In  In84  1  0.50200840  0.83498247  0.50914837  1
  In  In85  1  0.83588018  0.49799670  0.49805013  1
  Cu  Cu86  1  0.67201812  0.00041913  0.00030084  1
  Cu  Cu87  1  0.15995430  0.83194293  0.75423799  1
  Cu  Cu88  1  0.83577189  0.16306709  0.24967676  1
  Cu  Cu89  1  0.66681239  0.00268041  0.50810537  1
  Cu  Cu90  1  0.49499728  0.49676641  0.75865797  1
  Cu  Cu91  1  0.48758526  0.16737701  0.25076370  1
  Cu  Cu92  1  0.66701629  0.32616172  0.49883939  1
  Cu  Cu93  1  0.16885382  0.16445239  0.75185504  1
  Cu  Cu94  1  0.17461642  0.50060571  0.24482961  1
  Cu  Cu95  1  0.00567162  0.33325931  0.50702257  1
  Cu  Cu96  1  0.66030678  0.33285699  -0.00538099  1
  Cu  Cu97  1  0.67355112  0.66613381  0.49839007  1
  Cu  Cu98  1  0.16716561  0.16592305  0.25383966  1
  Cu  Cu99  1  0.83540698  0.50649277  0.23607731  1
  Cu  Cu100  1  0.00193102  0.33288776  -0.00060310  1
  Cu  Cu101  1  0.00397781  0.66489569  0.49879568  1
  Cu  Cu102  1  0.33465351  0.32873486  0.50090005  1
  Cu  Cu103  1  0.50251064  0.83685413  0.75148601  1
  Cu  Cu104  1  0.66982015  0.66899653  -0.00366882  1
  Cu  Cu105  1  -0.00310334  0.67087501  0.00172243  1
  Cu  Cu106  1  0.16320331  0.50416945  0.75505943  1
  Cu  Cu107  1  0.49820750  0.83658486  0.24599261  1
  Cu  Cu108  1  0.84143281  0.83382611  0.75895801  1
  Cu  Cu109  1  0.83201055  0.16348201  0.75250230  1
  Cu  Cu110  1  0.49661788  0.16302435  0.75148834  1
  Cu  Cu111  1  0.33083368  0.00458931  0.50318611  1
  Cu  Cu112  1  0.32700914  0.00532110  0.00187115  1
  Cu  Cu113  1  0.00479260  -0.00058196  0.49592882  1
  Cu  Cu114  1  0.49732128  0.49222966  0.24230773  1
  Se  Se115  1  0.06962607  0.06940323  0.05680198  1
  Se  Se116  1  0.08662761  0.08086984  0.55139079  1
  Se  Se117  1  0.08593435  0.41500145  0.05202628  1
  Se  Se118  1  0.08630217  0.42014238  0.55765962  1
  Se  Se119  1  0.07949933  0.74993791  0.05880863  1
  Se  Se120  1  0.07794704  0.74985895  0.56021251  1
  Se  Se121  1  0.41414871  0.08540311  0.05296949  1
  Se  Se122  1  0.41732104  0.08187003  0.55864181  1
  Se  Se123  1  0.43044827  0.43312503  0.05027821  1
  Se  Se124  1  0.41259280  0.41108632  0.56212392  1
  Se  Se125  1  0.41427382  0.75287567  0.06573930  1
  Se  Se126  1  0.40799620  0.73549800  0.55572860  1
  Se  Se127  1  0.75124525  0.08248939  0.05893154  1
  Se  Se128  1  0.75273639  0.08513142  0.55935606  1
  Se  Se129  1  0.74826013  0.41508607  0.04536976  1
  Se  Se130  1  0.74243163  0.40887010  0.55957124  1
  Se  Se131  1  0.75151256  0.75229509  0.04959838  1
  Se  Se132  1  0.75345815  0.74474505  0.55899242  1
  Se  Se133  1  0.25198685  0.25063784  0.05729967  1
  Se  Se134  1  0.25120003  0.24930621  0.55794046  1
  Se  Se135  1  0.25361631  0.59674402  0.04978728  1
  Se  Se136  1  0.25341016  0.58570462  0.55297277  1
  Se  Se137  1  0.24751942  0.91956172  0.05470749  1
  Se  Se138  1  0.25352528  0.91891205  0.56039818  1
  Se  Se139  1  0.58061476  0.24890101  0.05024651  1
  Se  Se140  1  0.58071083  0.24730833  0.55150340  1
  Se  Se141  1  0.58336110  0.58699311  0.04695016  1
  Se  Se142  1  0.59027872  0.58643665  0.55532629  1
  Se  Se143  1  0.59105816  0.92408335  0.06433535  1
  Se  Se144  1  0.59392961  0.92013014  0.56985727  1
  Se  Se145  1  0.91997029  0.24721649  0.05131981  1
  Se  Se146  1  0.91744623  0.24989268  0.55383566  1
  Se  Se147  1  0.91268663  0.58246012  0.05015206  1
  Se  Se148  1  0.92293002  0.58920547  0.56130403  1
  Se  Se149  1  0.90766271  0.90541357  0.05701140  1
  Se  Se150  1  0.92040882  0.92239196  0.55629757  1
  Se  Se151  1  0.08877762  0.25222852  0.45079133  1
  Se  Se152  1  0.07950287  0.25503337  0.93576358  1
  Se  Se153  1  0.08867666  0.58203357  0.44762901  1
  Se  Se154  1  0.08163584  0.58566155  0.95109171  1
  Se  Se155  1  0.06731011  0.91676509  0.42770547  1
  Se  Se156  1  0.09916703  0.90910851  0.94462937  1
  Se  Se157  1  0.41788837  0.24699510  0.44649543  1
  Se  Se158  1  0.41758888  0.24086139  0.94906084  1
  Se  Se159  1  0.41378967  0.58956057  0.43806412  1
  Se  Se160  1  0.40976973  0.59692827  0.95221040  1
  Se  Se161  1  0.40978117  0.92113096  0.44439555  1
  Se  Se162  1  0.40884019  0.92530923  0.94041626  1
  Se  Se163  1  0.75567367  0.24594692  0.44853807  1
  Se  Se164  1  0.74845725  0.24915228  0.94626594  1
  Se  Se165  1  0.75858045  0.59488032  0.43780653  1
  Se  Se166  1  0.75154233  0.58519067  0.94203053  1
  Se  Se167  1  0.74439253  0.92724980  0.44243247  1
  Se  Se168  1  0.75479549  0.91668436  0.94920862  1
  Se  Se169  1  0.24872926  0.08677246  0.44844248  1
  Se  Se170  1  0.25113952  0.07995060  0.93490861  1
  Se  Se171  1  0.25689640  0.41646794  0.44677933  1
  Se  Se172  1  0.25063870  0.41482637  0.95250670  1
  Se  Se173  1  0.25770321  0.74523511  0.44268429  1
  Se  Se174  1  0.26262933  0.74312860  0.95385347  1
  Se  Se175  1  0.58078348  0.08103643  0.45293503  1
  Se  Se176  1  0.58506996  0.08009566  0.94819402  1
  Se  Se177  1  0.59645701  0.40865552  0.43354600  1
  Se  Se178  1  0.58177777  0.41907306  0.94088045  1
  Se  Se179  1  0.58872737  0.74730902  0.44248795  1
  Se  Se180  1  0.58942710  0.75165844  0.93708597  1
  Se  Se181  1  0.91806276  0.08419594  0.44578024  1
  Se  Se182  1  0.91213521  0.08937174  0.95000146  1
  Se  Se183  1  0.92943881  0.40863243  0.43888803  1
  Se  Se184  1  0.91831066  0.41711264  0.94706289  1
  Se  Se185  1  0.93092646  0.74003844  0.43222942  1
  Se  Se186  1  0.91496966  0.75215387  0.94599387  1
  Se  Se187  1  0.24984359  0.25057159  0.30520442  1
  Se  Se188  1  0.25157611  0.24982954  0.80182356  1
  Se  Se189  1  0.24582722  0.58028632  0.31209989  1
  Se  Se190  1  0.24357819  0.58239134  0.81696029  1
  Se  Se191  1  0.22724933  0.91005922  0.30499277  1
  Se  Se192  1  0.24934562  0.91475454  0.80061683  1
  Se  Se193  1  0.57863360  0.23702827  0.31029895  1
  Se  Se194  1  0.57174412  0.24237584  0.81680831  1
  Se  Se195  1  0.58094069  0.57472332  0.29548701  1
  Se  Se196  1  0.58009452  0.58346597  0.80358831  1
  Se  Se197  1  0.57637427  0.91263501  0.31266261  1
  Se  Se198  1  0.58490763  0.92207399  0.80370107  1
  Se  Se199  1  0.91352470  0.24755344  0.30787340  1
  Se  Se200  1  0.91132396  0.24821184  0.80904883  1
  Se  Se201  1  0.91768402  0.57810533  0.29791009  1
  Se  Se202  1  0.91932114  0.58812966  0.80332799  1
  Se  Se203  1  0.90199975  0.88671744  0.31529669  1
  Se  Se204  1  0.92262255  0.91868186  0.81148686  1
  Se  Se205  1  0.08002279  0.08748189  0.30693638  1
  Se  Se206  1  0.08001083  0.08356245  0.80033476  1
  Se  Se207  1  0.09397154  0.42254800  0.30894202  1
  Se  Se208  1  0.08547812  0.42266193  0.81607996  1
  Se  Se209  1  0.07378117  0.73079179  0.29514311  1
  Se  Se210  1  0.08356081  0.74685851  0.81006115  1
  Se  Se211  1  0.40940598  0.08185362  0.30556072  1
  Se  Se212  1  0.41306141  0.07859418  0.80363048  1
  Se  Se213  1  0.41629701  0.41118653  0.29784150  1
  Se  Se214  1  0.40651493  0.42044502  0.80994287  1
  Se  Se215  1  0.42157540  0.75738282  0.31079667  1
  Se  Se216  1  0.42228934  0.75923883  0.81392129  1
  Se  Se217  1  0.75191954  0.08497509  0.30851462  1
  Se  Se218  1  0.75280673  0.07943888  0.80773438  1
  Se  Se219  1  0.76206848  0.42745184  0.30300207  1
  Se  Se220  1  0.75863073  0.42468820  0.80733585  1
  Se  Se221  1  0.73562936  0.72114584  0.31148793  1
  Se  Se222  1  0.75155706  0.75353515  0.80760286  1
  Se  Se223  1  0.24426436  0.08030621  0.19589279  1
  Se  Se224  1  0.25013035  0.08092576  0.69605568  1
  Se  Se225  1  0.25508882  0.41736293  0.19111568  1
  Se  Se226  1  0.24543911  0.41832177  0.70318065  1
  Se  Se227  1  0.24139782  0.75702993  0.19288559  1
  Se  Se228  1  0.24145500  0.75497186  0.69080984  1
  Se  Se229  1  0.57338155  0.09209568  0.19082687  1
  Se  Se230  1  0.58758171  0.08498156  0.70023775  1
  Se  Se231  1  0.57982632  0.41591009  0.18140938  1
  Se  Se232  1  0.57283202  0.41865173  0.69311639  1
  Se  Se233  1  0.58035663  0.75009904  0.19724840  1
  Se  Se234  1  0.58343796  0.74821267  0.70145371  1
  Se  Se235  1  0.91463580  0.07486530  0.19967331  1
  Se  Se236  1  0.91841170  0.08560097  0.69649490  1
  Se  Se237  1  0.91223652  0.41894926  0.18154938  1
  Se  Se238  1  0.90563836  0.42962179  0.69574725  1
  Se  Se239  1  0.91339680  0.73828158  0.19730140  1
  Se  Se240  1  0.92067576  0.74987214  0.70184798  1
  Se  Se241  1  0.08704939  0.23888519  0.18767331  1
  Se  Se242  1  0.08859300  0.24348384  0.68871063  1
  Se  Se243  1  0.08622287  0.57820002  0.19331468  1
  Se  Se244  1  0.08174197  0.58710645  0.70121747  1
  Se  Se245  1  0.06864825  0.92110840  0.19446052  1
  Se  Se246  1  0.08072893  0.91712772  0.69791330  1
  Se  Se247  1  0.41243065  0.25019208  0.19185598  1
  Se  Se248  1  0.41366185  0.24770394  0.69945638  1
  Se  Se249  1  0.41743930  0.57385073  0.18360046  1
  Se  Se250  1  0.42069324  0.57655129  0.69131318  1
  Se  Se251  1  0.41132204  0.92226845  0.20207374  1
  Se  Se252  1  0.41488175  0.91591540  0.69920825  1
  Se  Se253  1  0.75622092  0.24618772  0.19299076  1
  Se  Se254  1  0.75353709  0.24692942  0.69355714  1
  Se  Se255  1  0.74468079  0.58345562  0.18628193  1
  Se  Se256  1  0.73823922  0.59260970  0.70029889  1
  Se  Se257  1  0.75946153  0.90048138  0.19583863  1
  Se  Se258  1  0.75748676  0.91373216  0.70149737  1
