# generated using pymatgen
data_In86Cu29Se144
_symmetry_space_group_name_H-M   'P 1'
_cell_length_a   17.57773564
_cell_length_b   17.57858442
_cell_length_c   23.44418296
_cell_angle_alpha   89.98847778
_cell_angle_beta   90.00163539
_cell_angle_gamma   89.99394757
_symmetry_Int_Tables_number   1
_chemical_formula_structural   In86Cu29Se144
_chemical_formula_sum   'In86 Cu29 Se144'
_cell_volume   7244.05798900
_cell_formula_units_Z   1
loop_
 _symmetry_equiv_pos_site_id
 _symmetry_equiv_pos_as_xyz
  1  'x, y, z'
loop_
 _atom_site_type_symbol
 _atom_site_label
 _atom_site_symmetry_multiplicity
 _atom_site_fract_x
 _atom_site_fract_y
 _atom_site_fract_z
 _atom_site_occupancy
  In  In0  1  -0.01105424  0.15383574  0.11208203  1
  In  In1  1  0.00016684  0.16406470  0.64190056  1
  In  In2  1  -0.00475174  0.49459937  0.11278368  1
  In  In3  1  -0.00840414  0.50869703  0.63830711  1
  In  In4  1  -0.00365327  0.85073808  0.13153990  1
  In  In5  1  -0.00120432  0.83570727  0.62377439  1
  In  In6  1  0.35497502  0.17607402  0.10597736  1
  In  In7  1  0.34054183  0.16051952  0.62961979  1
  In  In8  1  0.32457722  0.48545238  0.11670397  1
  In  In9  1  0.33514964  0.48749989  0.62997193  1
  In  In10  1  0.32645228  0.83808648  0.12387862  1
  In  In11  1  0.33116314  0.85004368  0.62209341  1
  In  In12  1  0.66778571  0.16886136  0.12611903  1
  In  In13  1  0.67121163  0.18229503  0.62526662  1
  In  In14  1  0.65658978  0.48901404  0.11759831  1
  In  In15  1  0.66299478  0.49108498  0.61859103  1
  In  In16  1  0.68103581  0.83396198  0.13319841  1
  In  In17  1  0.67070133  0.82054537  0.62006671  1
  In  In18  1  0.15138358  -0.00219519  0.37055020  1
  In  In19  1  0.17419435  0.01454252  0.86970272  1
  In  In20  1  0.16667397  0.32099495  0.37161101  1
  In  In21  1  0.16792848  0.33156239  0.87567333  1
  In  In22  1  0.18118478  0.67574154  0.38534365  1
  In  In23  1  0.15054810  0.66873348  0.87079630  1
  In  In24  1  0.53837279  -0.00313850  0.37653632  1
  In  In25  1  0.49320872  0.01855113  0.88100159  1
  In  In26  1  0.50228553  0.33207177  0.37458360  1
  In  In27  1  0.49767850  0.33679898  0.86903454  1
  In  In28  1  0.48715605  0.66113445  0.38126911  1
  In  In29  1  0.49424681  0.65478214  0.87256876  1
  In  In30  1  0.81960405  -0.01870855  0.35617937  1
  In  In31  1  0.84096472  -0.00601180  0.88287844  1
  In  In32  1  0.82757623  0.34763244  0.37520546  1
  In  In33  1  0.83251954  0.33594333  0.87658589  1
  In  In34  1  0.83097714  0.67061047  0.38658564  1
  In  In35  1  0.84165166  0.65888719  0.87954172  1
  In  In36  1  0.00865889  0.15834553  0.37323966  1
  In  In37  1  -0.00076787  0.16770291  0.87733823  1
  In  In38  1  -0.00749571  0.49923239  0.38378774  1
  In  In39  1  -0.00073657  0.50042311  0.87417070  1
  In  In40  1  -0.02170401  0.84722704  0.39449623  1
  In  In41  1  -0.00858216  0.82585868  0.86857300  1
  In  In42  1  0.33996570  0.18224494  0.36771777  1
  In  In43  1  0.33036728  0.16787592  0.87619017  1
  In  In44  1  0.34653108  0.50034264  0.37741825  1
  In  In45  1  0.34988985  0.47891586  0.88220820  1
  In  In46  1  0.33345343  0.82448993  0.38163079  1
  In  In47  1  0.31612677  0.83976969  0.87076078  1
  In  In48  1  0.65644403  0.15561228  0.36837568  1
  In  In49  1  0.65537305  0.18309197  0.88520815  1
  In  In50  1  0.66794268  0.49527266  0.37615513  1
  In  In51  1  0.67079780  0.49225440  0.87741856  1
  In  In52  1  0.67257598  0.84882731  0.37161124  1
  In  In53  1  0.67081158  0.84908412  0.87880514  1
  In  In54  1  0.16079160  -0.00002620  0.11886982  1
  In  In55  1  0.16731290  -0.00386143  0.62784789  1
  In  In56  1  0.17370735  0.33544100  0.11536533  1
  In  In57  1  0.16974077  0.32755074  0.63932157  1
  In  In58  1  0.17231549  0.65910251  0.12085913  1
  In  In59  1  0.14698424  0.66622288  0.62214228  1
  In  In60  1  0.49840923  0.01598355  0.12381501  1
  In  In61  1  0.48917896  -0.00149141  0.62201940  1
  In  In62  1  0.50134670  0.32972079  0.12435069  1
  In  In63  1  0.50419861  0.33616622  0.62775058  1
  In  In64  1  0.51189915  0.65680656  0.12235100  1
  In  In65  1  0.50873254  0.65932491  0.62186641  1
  In  In66  1  0.83111188  0.00024397  0.12795643  1
  In  In67  1  0.84151089  0.00744613  0.62589235  1
  In  In68  1  0.82517214  0.32450942  0.11681287  1
  In  In69  1  0.82129776  0.34330036  0.63772386  1
  In  In70  1  0.83716634  0.67043435  0.11845492  1
  In  In71  1  0.85200020  0.67020202  0.61113473  1
  In  In72  1  0.00101368  0.67192218  0.25394179  1
  In  In73  1  0.67243149  0.65950363  0.75024246  1
  In  In74  1  0.50388368  0.82863887  0.00310216  1
  In  In75  1  0.16095243  0.83443622  0.00369857  1
  In  In76  1  0.16885080  0.50133026  0.50837003  1
  In  In77  1  -0.00487192  0.32580387  0.24628360  1
  In  In78  1  0.33950091  0.00767187  0.24272275  1
  In  In79  1  0.17085203  0.16219548  0.50261410  1
  In  In80  1  0.82968119  0.16587166  0.50181042  1
  In  In81  1  0.50361233  0.83310287  0.49683617  1
  In  In82  1  0.33789279  0.66221035  0.26034726  1
  In  In83  1  0.66615992  0.00750022  0.75154147  1
  In  In84  1  0.66604766  0.67023642  0.25602305  1
  In  In85  1  0.32513355  0.66292395  0.74286811  1
  Cu  Cu86  1  0.66670531  0.33239555  -0.00022137  1
  Cu  Cu87  1  0.66112896  0.33615929  0.50098633  1
  Cu  Cu88  1  -0.00034732  -0.00041088  -0.00174291  1
  Cu  Cu89  1  -0.00600880  0.66681516  -0.00486695  1
  Cu  Cu90  1  0.83641146  0.50196852  0.75205042  1
  Cu  Cu91  1  0.67077374  0.66207425  0.00000778  1
  Cu  Cu92  1  0.49350010  0.48838654  0.24729640  1
  Cu  Cu93  1  0.15756250  0.84360163  0.74872611  1
  Cu  Cu94  1  0.16626325  0.49085767  0.24446545  1
  Cu  Cu95  1  0.83244477  0.16847089  0.75822998  1
  Cu  Cu96  1  0.16830745  0.16682947  0.24348957  1
  Cu  Cu97  1  0.82337485  0.50168911  0.24836453  1
  Cu  Cu98  1  0.67312768  0.65946582  0.49893756  1
  Cu  Cu99  1  0.83338434  0.16631491  0.24223949  1
  Cu  Cu100  1  0.83675335  0.83160849  0.74828767  1
  Cu  Cu101  1  0.16624793  0.83543958  0.25418505  1
  Cu  Cu102  1  0.48959097  0.83899767  0.74779031  1
  Cu  Cu103  1  0.33180856  0.65382164  -0.00211687  1
  Cu  Cu104  1  0.00356277  0.33540501  -0.00696414  1
  Cu  Cu105  1  0.49544959  0.17271845  0.75389515  1
  Cu  Cu106  1  0.67504081  0.00478194  0.00414177  1
  Cu  Cu107  1  0.33598861  0.00755024  0.49780089  1
  Cu  Cu108  1  -0.00598434  -0.00591954  0.49984998  1
  Cu  Cu109  1  0.16399053  0.16805016  0.75687816  1
  Cu  Cu110  1  0.50343594  0.17158189  0.24730685  1
  Cu  Cu111  1  0.34288052  0.33724796  0.50044520  1
  Cu  Cu112  1  -0.00725986  0.33498568  0.51063945  1
  Cu  Cu113  1  0.33817413  0.33056928  -0.00482362  1
  Cu  Cu114  1  0.16834799  0.49824272  0.75504056  1
  Se  Se115  1  0.08714500  0.08392751  0.04657952  1
  Se  Se116  1  0.06971178  0.08090715  0.55926968  1
  Se  Se117  1  0.08671823  0.41769922  0.04897604  1
  Se  Se118  1  0.08137394  0.40803586  0.56807133  1
  Se  Se119  1  0.07007852  0.74302285  0.06382254  1
  Se  Se120  1  0.08171058  0.75708775  0.55286990  1
  Se  Se121  1  0.42164563  0.07586281  0.04305566  1
  Se  Se122  1  0.41882525  0.08908231  0.55139182  1
  Se  Se123  1  0.42016570  0.41275341  0.05277228  1
  Se  Se124  1  0.42204573  0.42017838  0.55609058  1
  Se  Se125  1  0.40615996  0.73726964  0.06069794  1
  Se  Se126  1  0.41540375  0.74957272  0.56312576  1
  Se  Se127  1  0.75623998  0.08934978  0.05800673  1
  Se  Se128  1  0.73856725  0.07625153  0.56115481  1
  Se  Se129  1  0.75162073  0.41868605  0.05079432  1
  Se  Se130  1  0.75434591  0.41150113  0.55295616  1
  Se  Se131  1  0.74566094  0.75080031  0.05494650  1
  Se  Se132  1  0.75460079  0.74763151  0.54886237  1
  Se  Se133  1  0.25145041  0.24760377  0.04721304  1
  Se  Se134  1  0.25720370  0.25884339  0.55918848  1
  Se  Se135  1  0.24393376  0.57413934  0.04971809  1
  Se  Se136  1  0.25829731  0.59039961  0.56826648  1
  Se  Se137  1  0.26137197  0.92800903  0.05002160  1
  Se  Se138  1  0.24930525  0.92759334  0.55010890  1
  Se  Se139  1  0.58445877  0.24809021  0.05462540  1
  Se  Se140  1  0.58119117  0.25073962  0.55456482  1
  Se  Se141  1  0.58198284  0.57787537  0.04661216  1
  Se  Se142  1  0.58511933  0.57946973  0.54964255  1
  Se  Se143  1  0.59261937  0.92095183  0.06209227  1
  Se  Se144  1  0.59134193  0.92164389  0.55958169  1
  Se  Se145  1  0.92035383  0.25484359  0.05017748  1
  Se  Se146  1  0.91729380  0.24998244  0.56920009  1
  Se  Se147  1  0.91143808  0.58216309  0.04952351  1
  Se  Se148  1  0.92415087  0.56867769  0.55263425  1
  Se  Se149  1  0.91636483  0.91954261  0.05555547  1
  Se  Se150  1  0.90870102  0.91627910  0.55551115  1
  Se  Se151  1  0.07249788  0.25629387  0.44834943  1
  Se  Se152  1  0.08703984  0.24723256  0.94537427  1
  Se  Se153  1  0.08216992  0.58856974  0.44357527  1
  Se  Se154  1  0.08142587  0.58523802  0.94542848  1
  Se  Se155  1  0.08761392  0.91778576  0.44936021  1
  Se  Se156  1  0.07796487  0.91923459  0.93571056  1
  Se  Se157  1  0.41904757  0.24930407  0.44572641  1
  Se  Se158  1  0.42176519  0.24965390  0.94020334  1
  Se  Se159  1  0.40709004  0.58615273  0.45288334  1
  Se  Se160  1  0.42222673  0.57603950  0.94797375  1
  Se  Se161  1  0.41819796  0.92960727  0.43554002  1
  Se  Se162  1  0.41383590  0.91223568  0.93886343  1
  Se  Se163  1  0.74224980  0.25606330  0.43951091  1
  Se  Se164  1  0.75526687  0.25075639  0.94917375  1
  Se  Se165  1  0.75374142  0.57304446  0.44582062  1
  Se  Se166  1  0.75190174  0.57970705  0.94415745  1
  Se  Se167  1  0.75378895  0.92218172  0.44366482  1
  Se  Se168  1  0.75458166  0.91552691  0.95350472  1
  Se  Se169  1  0.25571758  0.08104346  0.43161122  1
  Se  Se170  1  0.25271259  0.08156665  0.94604075  1
  Se  Se171  1  0.25041015  0.40717333  0.44184717  1
  Se  Se172  1  0.24927344  0.41488460  0.94709628  1
  Se  Se173  1  0.25761070  0.75372958  0.45760269  1
  Se  Se174  1  0.25223147  0.74108831  0.94308547  1
  Se  Se175  1  0.58412439  0.09164635  0.45130805  1
  Se  Se176  1  0.58757209  0.08315786  0.95035387  1
  Se  Se177  1  0.57922459  0.41920433  0.44480074  1
  Se  Se178  1  0.58248259  0.41249638  0.94354237  1
  Se  Se179  1  0.59510578  0.74182690  0.43606881  1
  Se  Se180  1  0.59124917  0.74083509  0.93619552  1
  Se  Se181  1  0.91804595  0.07790797  0.43899378  1
  Se  Se182  1  0.91533724  0.08690341  0.94868878  1
  Se  Se183  1  0.91327610  0.41370789  0.45134860  1
  Se  Se184  1  0.91622354  0.42030006  0.94483229  1
  Se  Se185  1  0.92751192  0.73531806  0.45262176  1
  Se  Se186  1  0.91201430  0.75571776  0.94642309  1
  Se  Se187  1  0.24916964  0.25150211  0.29663872  1
  Se  Se188  1  0.25168008  0.25177155  0.80500526  1
  Se  Se189  1  0.23801830  0.57137038  0.31162059  1
  Se  Se190  1  0.24885722  0.57897199  0.81590751  1
  Se  Se191  1  0.25386238  0.91496265  0.30900403  1
  Se  Se192  1  0.24689467  0.92410748  0.79782496  1
  Se  Se193  1  0.58616119  0.25322377  0.30327051  1
  Se  Se194  1  0.58590400  0.25200917  0.80295903  1
  Se  Se195  1  0.56878546  0.57527056  0.30739115  1
  Se  Se196  1  0.57723341  0.57055755  0.80416771  1
  Se  Se197  1  0.58482340  0.91066138  0.29615420  1
  Se  Se198  1  0.57151084  0.91607940  0.80972300  1
  Se  Se199  1  0.90686205  0.24146189  0.31263336  1
  Se  Se200  1  0.91741702  0.25285506  0.80862886  1
  Se  Se201  1  0.90689827  0.57690348  0.30841571  1
  Se  Se202  1  0.92017312  0.58748925  0.80294766  1
  Se  Se203  1  0.93673758  0.92366076  0.30681965  1
  Se  Se204  1  0.91319208  0.91906149  0.80370603  1
  Se  Se205  1  0.08430760  0.08480183  0.29611331  1
  Se  Se206  1  0.07649927  0.08287225  0.80449109  1
  Se  Se207  1  0.08200172  0.42007715  0.30921304  1
  Se  Se208  1  0.08323105  0.41568287  0.80756788  1
  Se  Se209  1  0.09105378  0.75630227  0.31672753  1
  Se  Se210  1  0.07890484  0.75169318  0.79742030  1
  Se  Se211  1  0.42944751  0.08646733  0.31027576  1
  Se  Se212  1  0.41299560  0.08500301  0.80337901  1
  Se  Se213  1  0.41101584  0.41010828  0.30513887  1
  Se  Se214  1  0.41359011  0.41456955  0.79775058  1
  Se  Se215  1  0.43008945  0.76209222  0.30751881  1
  Se  Se216  1  0.41519054  0.75471944  0.80849877  1
  Se  Se217  1  0.74953167  0.08591612  0.29917122  1
  Se  Se218  1  0.75093047  0.08983844  0.81940464  1
  Se  Se219  1  0.74272661  0.41550749  0.30002426  1
  Se  Se220  1  0.75222184  0.41776056  0.80338069  1
  Se  Se221  1  0.76525973  0.75681927  0.30824934  1
  Se  Se222  1  0.75385955  0.75776594  0.81085858  1
  Se  Se223  1  0.25059022  0.09339527  0.18009707  1
  Se  Se224  1  0.24219408  0.08988588  0.69314636  1
  Se  Se225  1  0.25071971  0.40886667  0.19406363  1
  Se  Se226  1  0.25320208  0.41478922  0.70368659  1
  Se  Se227  1  0.24400026  0.75125160  0.19620307  1
  Se  Se228  1  0.23959050  0.76242899  0.68793782  1
  Se  Se229  1  0.58551678  0.08462624  0.19626979  1
  Se  Se230  1  0.57385881  0.09229653  0.68988887  1
  Se  Se231  1  0.58409888  0.41275075  0.19502449  1
  Se  Se232  1  0.59822527  0.40899220  0.69444691  1
  Se  Se233  1  0.57449975  0.75465632  0.19182989  1
  Se  Se234  1  0.57551673  0.75700762  0.69575031  1
  Se  Se235  1  0.92124529  0.08314080  0.19453083  1
  Se  Se236  1  0.91159689  0.08057556  0.70559946  1
  Se  Se237  1  0.90826355  0.42302684  0.18989145  1
  Se  Se238  1  0.92001123  0.41211341  0.70298149  1
  Se  Se239  1  0.90849728  0.75866655  0.19456417  1
  Se  Se240  1  0.91607493  0.74870918  0.69212709  1
  Se  Se241  1  0.08489851  0.24344858  0.18200725  1
  Se  Se242  1  0.07871162  0.25372286  0.70659402  1
  Se  Se243  1  0.08464545  0.57493834  0.19061152  1
  Se  Se244  1  0.08670512  0.58442496  0.70248263  1
  Se  Se245  1  0.09147993  0.92136341  0.19749823  1
  Se  Se246  1  0.07299291  0.92505038  0.69471011  1
  Se  Se247  1  0.41445239  0.24679096  0.19228474  1
  Se  Se248  1  0.41527515  0.25382819  0.69460237  1
  Se  Se249  1  0.41716446  0.57478064  0.18881118  1
  Se  Se250  1  0.42819973  0.57624174  0.69433296  1
  Se  Se251  1  0.42599079  0.90883312  0.18766429  1
  Se  Se252  1  0.40893557  0.92588834  0.69777043  1
  Se  Se253  1  0.74951516  0.25477097  0.19596634  1
  Se  Se254  1  0.74756084  0.24965481  0.70453853  1
  Se  Se255  1  0.74799090  0.58259615  0.18656706  1
  Se  Se256  1  0.76165745  0.57977505  0.68402765  1
  Se  Se257  1  0.75276181  0.92134763  0.20175444  1
  Se  Se258  1  0.75110395  0.91013565  0.69129100  1
