# generated using pymatgen
data_In86Cu29Se144
_symmetry_space_group_name_H-M   'P 1'
_cell_length_a   17.58343728
_cell_length_b   17.58380488
_cell_length_c   23.44870555
_cell_angle_alpha   89.98701785
_cell_angle_beta   90.00955592
_cell_angle_gamma   89.98424438
_symmetry_Int_Tables_number   1
_chemical_formula_structural   In86Cu29Se144
_chemical_formula_sum   'In86 Cu29 Se144'
_cell_volume   7249.95768981
_cell_formula_units_Z   1
loop_
 _symmetry_equiv_pos_site_id
 _symmetry_equiv_pos_as_xyz
  1  'x, y, z'
loop_
 _atom_site_type_symbol
 _atom_site_label
 _atom_site_symmetry_multiplicity
 _atom_site_fract_x
 _atom_site_fract_y
 _atom_site_fract_z
 _atom_site_occupancy
  In  In0  1  -0.00278231  0.16717535  0.11468054  1
  In  In1  1  0.00351691  0.18151676  0.62032839  1
  In  In2  1  -0.00257991  0.49868423  0.11368337  1
  In  In3  1  0.00502331  0.49871253  0.64256285  1
  In  In4  1  -0.00339931  0.83240314  0.11267579  1
  In  In5  1  -0.00904612  0.82874384  0.62537080  1
  In  In6  1  0.34461580  0.17584250  0.12099609  1
  In  In7  1  0.33333548  0.16668818  0.62136502  1
  In  In8  1  0.32097187  0.49477759  0.12096842  1
  In  In9  1  0.33200643  0.48945602  0.62630409  1
  In  In10  1  0.33622327  0.83525002  0.11628827  1
  In  In11  1  0.34352617  0.84504219  0.61635269  1
  In  In12  1  0.65764656  0.15603646  0.11636897  1
  In  In13  1  0.66468506  0.16031098  0.62676060  1
  In  In14  1  0.67975321  0.50089194  0.11861392  1
  In  In15  1  0.67434086  0.49399021  0.63526933  1
  In  In16  1  0.66332345  0.83539739  0.12388210  1
  In  In17  1  0.66417196  0.83142947  0.62980890  1
  In  In18  1  0.16330311  0.00511856  0.38594410  1
  In  In19  1  0.16488005  0.00102048  0.88113310  1
  In  In20  1  0.17013679  0.31614317  0.38015280  1
  In  In21  1  0.15580407  0.33887350  0.87945845  1
  In  In22  1  0.17257833  0.67243743  0.37705640  1
  In  In23  1  0.15962529  0.66858081  0.87475999  1
  In  In24  1  0.50631446  -0.00507483  0.38129813  1
  In  In25  1  0.50906496  -0.00638380  0.87566984  1
  In  In26  1  0.49246924  0.33596608  0.37506938  1
  In  In27  1  0.50321098  0.31318400  0.87159957  1
  In  In28  1  0.51705259  0.66436871  0.37345048  1
  In  In29  1  0.51517850  0.67871573  0.86826707  1
  In  In30  1  0.82033032  0.00866801  0.38262438  1
  In  In31  1  0.82043086  0.01259133  0.87863929  1
  In  In32  1  0.82516198  0.32594328  0.38426064  1
  In  In33  1  0.83328709  0.33160189  0.87014566  1
  In  In34  1  0.82861238  0.68048035  0.37669295  1
  In  In35  1  0.83380825  0.66764574  0.87690025  1
  In  In36  1  -0.00041924  0.17305918  0.39200560  1
  In  In37  1  -0.00338863  0.17390287  0.87461191  1
  In  In38  1  -0.01380329  0.50406175  0.37613202  1
  In  In39  1  0.00057978  0.49474606  0.87002419  1
  In  In40  1  -0.00716961  0.84186680  0.38808962  1
  In  In41  1  0.00407533  0.82488454  0.87743594  1
  In  In42  1  0.33184157  0.16965783  0.37924669  1
  In  In43  1  0.33691457  0.16096807  0.88388778  1
  In  In44  1  0.34720579  0.49390441  0.37033506  1
  In  In45  1  0.32249360  0.49214534  0.87814154  1
  In  In46  1  0.32848164  0.84263039  0.38299453  1
  In  In47  1  0.33390462  0.83319314  0.87977489  1
  In  In48  1  0.67401894  0.16005954  0.38394629  1
  In  In49  1  0.66356421  0.16555849  0.86775098  1
  In  In50  1  0.65888791  0.50053836  0.37201541  1
  In  In51  1  0.67894967  0.51104579  0.86707842  1
  In  In52  1  0.66574309  0.83485540  0.37762562  1
  In  In53  1  0.66803229  0.83998790  0.87356127  1
  In  In54  1  0.16349676  -0.00248603  0.11562943  1
  In  In55  1  0.17227696  0.00696338  0.62223853  1
  In  In56  1  0.17038119  0.33563072  0.11798429  1
  In  In57  1  0.15897479  0.32406018  0.63204158  1
  In  In58  1  0.16627527  0.66399136  0.11385748  1
  In  In59  1  0.14947161  0.66923750  0.63360727  1
  In  In60  1  0.51602446  0.01479569  0.12057292  1
  In  In61  1  0.51475939  0.00885718  0.62452072  1
  In  In62  1  0.49959952  0.30958063  0.12436565  1
  In  In63  1  0.51640826  0.31767139  0.63176292  1
  In  In64  1  0.50082209  0.68411625  0.12064491  1
  In  In65  1  0.50490823  0.68160749  0.62688908  1
  In  In66  1  0.82044222  -0.00944778  0.11736672  1
  In  In67  1  0.82498943  -0.01091644  0.62400885  1
  In  In68  1  0.83029714  0.33396501  0.11288795  1
  In  In69  1  0.83736901  0.32484738  0.62687508  1
  In  In70  1  0.82698666  0.66440436  0.11599295  1
  In  In71  1  0.82648368  0.67339026  0.63580687  1
  In  In72  1  0.66585390  0.33140986  0.25128830  1
  In  In73  1  0.33579448  0.67027966  0.75614290  1
  In  In74  1  0.49954782  0.49936646  -0.00890433  1
  In  In75  1  0.34093941  0.00719951  0.74307319  1
  In  In76  1  0.32679349  0.33304680  0.74973969  1
  In  In77  1  0.33859052  0.00288361  0.24844061  1
  In  In78  1  0.16687804  0.50183998  0.51197310  1
  In  In79  1  -0.00418403  0.00250636  0.25478554  1
  In  In80  1  0.00338907  0.67114439  0.23294877  1
  In  In81  1  0.50505472  0.50247756  0.49379739  1
  In  In82  1  -0.00496254  0.00321157  0.75525294  1
  In  In83  1  0.34399124  0.66809989  0.24622652  1
  In  In84  1  0.83745813  0.49353560  0.50956833  1
  In  In85  1  0.00223007  0.33194349  0.25801037  1
  Cu  Cu86  1  0.82524758  0.15937039  0.25067883  1
  Cu  Cu87  1  -0.00171257  0.66340481  -0.00626321  1
  Cu  Cu88  1  0.82911342  0.16625457  0.74811903  1
  Cu  Cu89  1  0.33028884  0.32761535  -0.00253076  1
  Cu  Cu90  1  0.83316622  0.50084628  0.75521452  1
  Cu  Cu91  1  0.33594103  0.33198404  0.50165890  1
  Cu  Cu92  1  0.81545914  0.83756207  0.25014946  1
  Cu  Cu93  1  0.33154353  -0.00339577  0.00037195  1
  Cu  Cu94  1  0.67205568  0.32982097  -0.00699663  1
  Cu  Cu95  1  0.50850941  0.83690649  0.25101104  1
  Cu  Cu96  1  0.66688329  -0.00034668  -0.00306376  1
  Cu  Cu97  1  0.66773871  -0.00657855  0.50386502  1
  Cu  Cu98  1  0.67212228  0.67140343  0.50385686  1
  Cu  Cu99  1  0.17334556  0.17030758  0.25141813  1
  Cu  Cu100  1  -0.00336564  0.33220107  -0.00680139  1
  Cu  Cu101  1  0.17562333  0.48657401  0.24814054  1
  Cu  Cu102  1  0.33546092  0.00252265  0.50119084  1
  Cu  Cu103  1  0.00081265  -0.00058064  0.50878015  1
  Cu  Cu104  1  0.50153039  0.49931913  0.75061477  1
  Cu  Cu105  1  0.32973840  0.66816063  -0.00354917  1
  Cu  Cu106  1  0.16815541  0.83439647  0.75023963  1
  Cu  Cu107  1  -0.00267235  -0.00074989  -0.00712530  1
  Cu  Cu108  1  -0.00008891  0.67139089  0.50541852  1
  Cu  Cu109  1  0.33015103  0.67964305  0.50174281  1
  Cu  Cu110  1  0.50462775  0.49654469  0.24781354  1
  Cu  Cu111  1  0.83035723  0.82848487  0.75182740  1
  Cu  Cu112  1  0.83373600  0.50586973  0.24162804  1
  Cu  Cu113  1  0.66763956  0.67511747  -0.00583558  1
  Cu  Cu114  1  0.16289421  0.83047566  0.25045473  1
  Se  Se115  1  0.08028411  0.08153525  0.04971962  1
  Se  Se116  1  0.08334168  0.08708860  0.55727995  1
  Se  Se117  1  0.08115281  0.41242366  0.05054414  1
  Se  Se118  1  0.07118118  0.41207890  0.56275852  1
  Se  Se119  1  0.08203036  0.74740076  0.04872664  1
  Se  Se120  1  0.08501506  0.75374999  0.55744226  1
  Se  Se121  1  0.41475878  0.07949387  0.05536586  1
  Se  Se122  1  0.41850159  0.08185486  0.55763977  1
  Se  Se123  1  0.41499720  0.40943757  0.05641863  1
  Se  Se124  1  0.42111657  0.41066471  0.55911929  1
  Se  Se125  1  0.41596952  0.75169982  0.04652942  1
  Se  Se126  1  0.42355313  0.75367300  0.55191954  1
  Se  Se127  1  0.75170622  0.08540122  0.04910001  1
  Se  Se128  1  0.74972618  0.07895554  0.55622602  1
  Se  Se129  1  0.75126931  0.41954721  0.04417404  1
  Se  Se130  1  0.73817340  0.40527174  0.55854264  1
  Se  Se131  1  0.74836562  0.75640991  0.05281986  1
  Se  Se132  1  0.75383415  0.75240548  0.55965845  1
  Se  Se133  1  0.24869088  0.24401881  0.05335331  1
  Se  Se134  1  0.25000727  0.25777898  0.55962596  1
  Se  Se135  1  0.25004292  0.57969991  0.04787220  1
  Se  Se136  1  0.25962492  0.59687103  0.56562160  1
  Se  Se137  1  0.24550484  0.91098181  0.05028112  1
  Se  Se138  1  0.24861710  0.91981083  0.55301571  1
  Se  Se139  1  0.58642757  0.24954211  0.04746079  1
  Se  Se140  1  0.57600385  0.23469377  0.55508292  1
  Se  Se141  1  0.58669926  0.59082702  0.05382935  1
  Se  Se142  1  0.59290854  0.58535659  0.56094758  1
  Se  Se143  1  0.58214661  0.91818913  0.05294611  1
  Se  Se144  1  0.58293690  0.91159416  0.55721587  1
  Se  Se145  1  0.91304817  0.24885608  0.04763960  1
  Se  Se146  1  0.90568064  0.24226408  0.55117510  1
  Se  Se147  1  0.91338574  0.58287892  0.04957801  1
  Se  Se148  1  0.92438804  0.58879485  0.56681537  1
  Se  Se149  1  0.91337622  0.91871246  0.04918109  1
  Se  Se150  1  0.91427296  0.91290238  0.55501657  1
  Se  Se151  1  0.08921770  0.25138749  0.45562721  1
  Se  Se152  1  0.08401401  0.24539481  0.94770453  1
  Se  Se153  1  0.07625988  0.58950216  0.44335214  1
  Se  Se154  1  0.08187775  0.57907099  0.94166319  1
  Se  Se155  1  0.08494682  0.91699239  0.45257367  1
  Se  Se156  1  0.08336773  0.91280515  0.94530868  1
  Se  Se157  1  0.41880911  0.25103247  0.44694496  1
  Se  Se158  1  0.42112880  0.24737535  0.94955631  1
  Se  Se159  1  0.40733563  0.59708659  0.44030185  1
  Se  Se160  1  0.41111878  0.59412580  0.93235951  1
  Se  Se161  1  0.41856422  0.91627054  0.44969473  1
  Se  Se162  1  0.41740785  0.91878380  0.94446347  1
  Se  Se163  1  0.75725313  0.23935196  0.45425241  1
  Se  Se164  1  0.75118608  0.24466072  0.93780812  1
  Se  Se165  1  0.74672089  0.58364435  0.44408041  1
  Se  Se166  1  0.74950378  0.58466819  0.94701981  1
  Se  Se167  1  0.75193288  0.91112496  0.44849266  1
  Se  Se168  1  0.75283990  0.91630083  0.94626381  1
  Se  Se169  1  0.25094019  0.08756698  0.44945092  1
  Se  Se170  1  0.24790862  0.08228951  0.95003197  1
  Se  Se171  1  0.25830937  0.41895633  0.44397557  1
  Se  Se172  1  0.24499808  0.41443572  0.95064830  1
  Se  Se173  1  0.24267391  0.75793674  0.44862970  1
  Se  Se174  1  0.24510008  0.75048248  0.94272735  1
  Se  Se175  1  0.58587180  0.07919810  0.45057687  1
  Se  Se176  1  0.58518194  0.08472100  0.94288131  1
  Se  Se177  1  0.59634042  0.40377320  0.44326670  1
  Se  Se178  1  0.59102702  0.41126323  0.93282066  1
  Se  Se179  1  0.58453186  0.74821654  0.44786122  1
  Se  Se180  1  0.58194231  0.75912838  0.94539697  1
  Se  Se181  1  0.91897671  0.07636225  0.44828677  1
  Se  Se182  1  0.91622361  0.08685226  0.94243210  1
  Se  Se183  1  0.92804866  0.40502180  0.44609534  1
  Se  Se184  1  0.91367677  0.41633791  0.94058561  1
  Se  Se185  1  0.91296322  0.74901571  0.45068758  1
  Se  Se186  1  0.91415602  0.75226533  0.94723381  1
  Se  Se187  1  0.25583119  0.25265139  0.30454536  1
  Se  Se188  1  0.24696834  0.24522143  0.81682224  1
  Se  Se189  1  0.24736834  0.57811834  0.30593705  1
  Se  Se190  1  0.24252200  0.57519079  0.80611396  1
  Se  Se191  1  0.23862895  0.91658327  0.30747033  1
  Se  Se192  1  0.24853208  0.91692893  0.80653935  1
  Se  Se193  1  0.58185128  0.24411810  0.31456147  1
  Se  Se194  1  0.58873805  0.25284511  0.79655341  1
  Se  Se195  1  0.58711189  0.58276239  0.29753600  1
  Se  Se196  1  0.58416462  0.58527061  0.80131312  1
  Se  Se197  1  0.58720536  0.92002771  0.30692237  1
  Se  Se198  1  0.59603661  0.92793661  0.80168724  1
  Se  Se199  1  0.90763366  0.23797909  0.31049911  1
  Se  Se200  1  0.91539037  0.24764737  0.80000686  1
  Se  Se201  1  0.91224407  0.58835982  0.30100874  1
  Se  Se202  1  0.91610624  0.58547895  0.80701105  1
  Se  Se203  1  0.90400256  0.90939763  0.31007978  1
  Se  Se204  1  0.90717393  0.91095410  0.81403298  1
  Se  Se205  1  0.08777411  0.09537863  0.31137528  1
  Se  Se206  1  0.09238908  0.09076658  0.80832918  1
  Se  Se207  1  0.09220705  0.42594246  0.31675591  1
  Se  Se208  1  0.07590165  0.40445694  0.80200077  1
  Se  Se209  1  0.07948726  0.75511513  0.30985873  1
  Se  Se210  1  0.08366709  0.75145435  0.80131173  1
  Se  Se211  1  0.42416492  0.08716200  0.31289801  1
  Se  Se212  1  0.42593747  0.09108795  0.80972151  1
  Se  Se213  1  0.41904535  0.41275171  0.29661076  1
  Se  Se214  1  0.42206059  0.42138659  0.81120887  1
  Se  Se215  1  0.42236157  0.76142682  0.31172048  1
  Se  Se216  1  0.42763900  0.76880260  0.80384773  1
  Se  Se217  1  0.74254658  0.07927649  0.30476451  1
  Se  Se218  1  0.74637487  0.07996246  0.79810866  1
  Se  Se219  1  0.76293159  0.42387399  0.30812928  1
  Se  Se220  1  0.74697845  0.41320076  0.80167488  1
  Se  Se221  1  0.74119050  0.74717694  0.30431437  1
  Se  Se222  1  0.74744526  0.74740479  0.80809147  1
  Se  Se223  1  0.24229124  0.08583920  0.18804553  1
  Se  Se224  1  0.23954955  0.09865947  0.69647109  1
  Se  Se225  1  0.25566499  0.40450584  0.19403925  1
  Se  Se226  1  0.23416258  0.42819865  0.69603727  1
  Se  Se227  1  0.24368513  0.75347965  0.18969488  1
  Se  Se228  1  0.25271473  0.76073182  0.68845782  1
  Se  Se229  1  0.58342512  0.09322554  0.19784225  1
  Se  Se230  1  0.59002307  0.07831750  0.70188698  1
  Se  Se231  1  0.58117871  0.41875355  0.18264287  1
  Se  Se232  1  0.58341080  0.41361534  0.69910272  1
  Se  Se233  1  0.58522639  0.74884472  0.19624334  1
  Se  Se234  1  0.59484289  0.73857250  0.70020591  1
  Se  Se235  1  0.90953473  0.08706883  0.18823242  1
  Se  Se236  1  0.91066203  0.08656535  0.68717836  1
  Se  Se237  1  0.91392456  0.41785829  0.18987893  1
  Se  Se238  1  0.90908922  0.41546998  0.69767452  1
  Se  Se239  1  0.90256438  0.76502392  0.18853266  1
  Se  Se240  1  0.92059059  0.74855686  0.70205829  1
  Se  Se241  1  0.08514913  0.24342248  0.19155697  1
  Se  Se242  1  0.07188480  0.25302300  0.70196870  1
  Se  Se243  1  0.09592637  0.56739935  0.18814182  1
  Se  Se244  1  0.08187080  0.58822655  0.70768881  1
  Se  Se245  1  0.08232526  0.91059680  0.19088882  1
  Se  Se246  1  0.08759622  0.91666631  0.69142587  1
  Se  Se247  1  0.41913620  0.24369790  0.20042479  1
  Se  Se248  1  0.42006623  0.24005935  0.69717250  1
  Se  Se249  1  0.42631070  0.57464927  0.18279747  1
  Se  Se250  1  0.42070632  0.57696670  0.68997076  1
  Se  Se251  1  0.42556886  0.91087576  0.18810717  1
  Se  Se252  1  0.43099109  0.91060727  0.69186832  1
  Se  Se253  1  0.75616526  0.24652840  0.18796988  1
  Se  Se254  1  0.74631053  0.24969368  0.69404671  1
  Se  Se255  1  0.74794235  0.58828512  0.19199601  1
  Se  Se256  1  0.74852394  0.58437688  0.70223864  1
  Se  Se257  1  0.73910543  0.92428608  0.19514704  1
  Se  Se258  1  0.74836898  0.91395300  0.69981706  1
