# generated using pymatgen
data_In86Cu29Se144
_symmetry_space_group_name_H-M   'P 1'
_cell_length_a   17.58242019
_cell_length_b   17.57874670
_cell_length_c   23.44031321
_cell_angle_alpha   89.99827277
_cell_angle_beta   90.00047520
_cell_angle_gamma   90.00944280
_symmetry_Int_Tables_number   1
_chemical_formula_structural   In86Cu29Se144
_chemical_formula_sum   'In86 Cu29 Se144'
_cell_volume   7244.85949712
_cell_formula_units_Z   1
loop_
 _symmetry_equiv_pos_site_id
 _symmetry_equiv_pos_as_xyz
  1  'x, y, z'
loop_
 _atom_site_type_symbol
 _atom_site_label
 _atom_site_symmetry_multiplicity
 _atom_site_fract_x
 _atom_site_fract_y
 _atom_site_fract_z
 _atom_site_occupancy
  In  In0  1  -0.00966724  0.17661257  0.12145473  1
  In  In1  1  -0.00159207  0.17558405  0.62554108  1
  In  In2  1  0.01305488  0.49740648  0.12349747  1
  In  In3  1  -0.04221687  0.50219690  0.63526158  1
  In  In4  1  -0.01396459  0.82265761  0.11821338  1
  In  In5  1  -0.00846908  0.83722569  0.61781316  1
  In  In6  1  0.34210330  0.16727485  0.13048184  1
  In  In7  1  0.33606705  0.16239227  0.63581203  1
  In  In8  1  0.33710403  0.50517315  0.12317000  1
  In  In9  1  0.34505415  0.49283654  0.63093553  1
  In  In10  1  0.33334357  0.83246300  0.12061650  1
  In  In11  1  0.33688932  0.82507079  0.63513895  1
  In  In12  1  0.65929145  0.15361875  0.11982816  1
  In  In13  1  0.68550217  0.15028784  0.65067963  1
  In  In14  1  0.66046565  0.51290831  0.11109304  1
  In  In15  1  0.66966361  0.50336147  0.63422846  1
  In  In16  1  0.67761685  0.83702789  0.11073991  1
  In  In17  1  0.69652647  0.80893403  0.65879268  1
  In  In18  1  0.17148674  -0.01055426  0.37010415  1
  In  In19  1  0.16429930  -0.01463245  0.87985186  1
  In  In20  1  0.17481720  0.32539827  0.37503186  1
  In  In21  1  0.17510539  0.33876303  0.87144171  1
  In  In22  1  0.16680622  0.66739612  0.36512105  1
  In  In23  1  0.17285919  0.65301996  0.88378127  1
  In  In24  1  0.49940221  -0.00660704  0.36607204  1
  In  In25  1  0.49404221  -0.00800823  0.87184629  1
  In  In26  1  0.50373128  0.34775168  0.37682404  1
  In  In27  1  0.51939605  0.35599309  0.86925948  1
  In  In28  1  0.49363175  0.66541276  0.37422920  1
  In  In29  1  0.49774718  0.67271988  0.87951306  1
  In  In30  1  0.82705941  0.00748337  0.38628392  1
  In  In31  1  0.82409430  -0.00412166  0.87002309  1
  In  In32  1  0.83278388  0.33417755  0.38726902  1
  In  In33  1  0.80980920  0.32278156  0.84403088  1
  In  In34  1  0.84355798  0.66269621  0.38636669  1
  In  In35  1  0.82964383  0.67797193  0.86676528  1
  In  In36  1  -0.00786762  0.16227894  0.37961902  1
  In  In37  1  -0.03179274  0.16882387  0.86677241  1
  In  In38  1  -0.00609228  0.50139065  0.37811081  1
  In  In39  1  0.00703762  0.50120562  0.87437959  1
  In  In40  1  -0.00346748  0.82852619  0.37636540  1
  In  In41  1  -0.00292140  0.83495939  0.88390095  1
  In  In42  1  0.33477606  0.16587418  0.36787489  1
  In  In43  1  0.34046264  0.17121923  0.87154410  1
  In  In44  1  0.34009254  0.50965609  0.36768933  1
  In  In45  1  0.33199861  0.50185786  0.87594901  1
  In  In46  1  0.33246820  0.82889150  0.36142365  1
  In  In47  1  0.33199509  0.83093305  0.87908675  1
  In  In48  1  0.67610472  0.16069692  0.38242689  1
  In  In49  1  0.68580556  0.17069188  0.86048077  1
  In  In50  1  0.66885177  0.50227016  0.38897027  1
  In  In51  1  0.66091173  0.49647314  0.86935878  1
  In  In52  1  0.66694815  0.84313837  0.37405140  1
  In  In53  1  0.66244211  0.82880174  0.87129517  1
  In  In54  1  0.18086686  -0.00032381  0.12398270  1
  In  In55  1  0.16558920  0.00774749  0.62801012  1
  In  In56  1  0.17231057  0.34974031  0.11794317  1
  In  In57  1  0.16936201  0.33624494  0.63282164  1
  In  In58  1  0.16712024  0.66734008  0.12328096  1
  In  In59  1  0.16652012  0.67349690  0.62865065  1
  In  In60  1  0.51037639  -0.00675493  0.12787664  1
  In  In61  1  0.50169781  -0.00566753  0.63194111  1
  In  In62  1  0.49500171  0.32918120  0.11842026  1
  In  In63  1  0.49942476  0.33857922  0.63348023  1
  In  In64  1  0.49381291  0.65507153  0.11003145  1
  In  In65  1  0.51200709  0.65738909  0.63331037  1
  In  In66  1  0.82257785  -0.00725437  0.11767054  1
  In  In67  1  0.82608843  -0.00604190  0.62006540  1
  In  In68  1  0.84496153  0.33024306  0.11900675  1
  In  In69  1  0.82732536  0.33007188  0.63461823  1
  In  In70  1  0.83138034  0.67682685  0.12398133  1
  In  In71  1  0.83183988  0.66051723  0.61843000  1
  In  In72  1  0.16064030  0.16598410  0.00267761  1
  In  In73  1  0.15956521  0.83384631  0.49165796  1
  In  In74  1  0.50794185  0.17083232  0.51190297  1
  In  In75  1  -0.00003071  0.66513345  0.74880464  1
  In  In76  1  0.00348326  -0.00247294  0.25479159  1
  In  In77  1  0.50836971  0.16946414  -0.00710802  1
  In  In78  1  0.83026720  0.49647546  -0.01250995  1
  In  In79  1  0.66355746  0.32811928  0.24897590  1
  In  In80  1  0.00768685  0.33696421  0.25625702  1
  In  In81  1  -0.00022240  -0.00147746  0.75001121  1
  In  In82  1  0.50836822  0.83092894  0.50154480  1
  In  In83  1  0.66161412  0.67108077  0.24322068  1
  In  In84  1  0.16044162  0.50030530  0.49964567  1
  In  In85  1  0.15821469  0.17191007  0.50640251  1
  Cu  Cu86  1  0.67317574  -0.00095142  -0.00645294  1
  Cu  Cu87  1  0.49861411  0.16341936  0.24787906  1
  Cu  Cu88  1  0.32861685  0.66656512  -0.00047289  1
  Cu  Cu89  1  0.83377177  0.50471649  0.25785640  1
  Cu  Cu90  1  0.32716353  -0.00602352  0.49834782  1
  Cu  Cu91  1  0.34006425  0.65697100  0.49783861  1
  Cu  Cu92  1  0.33655303  0.34635645  -0.00247112  1
  Cu  Cu93  1  0.82597783  0.15681535  0.25261550  1
  Cu  Cu94  1  0.34379632  0.33772876  0.50376372  1
  Cu  Cu95  1  0.17665416  0.17372342  0.24698792  1
  Cu  Cu96  1  0.49578973  0.49852579  0.24664720  1
  Cu  Cu97  1  0.33589990  -0.00508272  -0.00048492  1
  Cu  Cu98  1  -0.01250644  0.34310071  0.50990198  1
  Cu  Cu99  1  0.17016347  0.83262898  0.24428260  1
  Cu  Cu100  1  0.67457043  0.66524701  0.51196492  1
  Cu  Cu101  1  0.49558280  0.83227107  0.24175197  1
  Cu  Cu102  1  0.17638440  0.50766910  0.24229508  1
  Cu  Cu103  1  0.17360205  0.15900373  0.75541736  1
  Cu  Cu104  1  -0.00701924  0.32657122  -0.00749701  1
  Cu  Cu105  1  0.49112505  0.50722064  0.75478672  1
  Cu  Cu106  1  0.17093381  0.50255125  0.75183244  1
  Cu  Cu107  1  0.49442213  0.16886888  0.75452546  1
  Cu  Cu108  1  0.66781540  -0.00298219  0.50893815  1
  Cu  Cu109  1  0.49424685  0.83702072  0.75829721  1
  Cu  Cu110  1  0.17335496  0.82863150  0.75619562  1
  Cu  Cu111  1  0.67099863  0.33770891  0.51119723  1
  Cu  Cu112  1  -0.00805947  -0.00487817  -0.00358209  1
  Cu  Cu113  1  0.82806899  0.83170938  0.24327909  1
  Cu  Cu114  1  -0.00024186  0.66286759  -0.00122970  1
  Se  Se115  1  0.07009007  0.07247189  0.06176253  1
  Se  Se116  1  0.06973803  0.07280974  0.55698597  1
  Se  Se117  1  0.07546327  0.40908815  0.04755828  1
  Se  Se118  1  0.07511085  0.41721315  0.56748810  1
  Se  Se119  1  0.08053384  0.74765495  0.05413208  1
  Se  Se120  1  0.07659391  0.74132476  0.55474360  1
  Se  Se121  1  0.41708029  0.08085206  0.05558387  1
  Se  Se122  1  0.40829921  0.07318434  0.55803584  1
  Se  Se123  1  0.42196837  0.42306975  0.05360326  1
  Se  Se124  1  0.42660748  0.41964157  0.55614977  1
  Se  Se125  1  0.41424369  0.75126862  0.04982833  1
  Se  Se126  1  0.41444736  0.74152587  0.55904758  1
  Se  Se127  1  0.75075212  0.08585573  0.04942150  1
  Se  Se128  1  0.74392777  0.09026522  0.55924219  1
  Se  Se129  1  0.74774539  0.41034443  0.05840212  1
  Se  Se130  1  0.75424133  0.42108660  0.56435394  1
  Se  Se131  1  0.74572373  0.73661912  0.04892812  1
  Se  Se132  1  0.74829457  0.75923128  0.56196799  1
  Se  Se133  1  0.26225668  0.25535307  0.05567230  1
  Se  Se134  1  0.26191002  0.25573072  0.56002704  1
  Se  Se135  1  0.24744669  0.58138764  0.05462847  1
  Se  Se136  1  0.25521623  0.58604130  0.56031373  1
  Se  Se137  1  0.24779626  0.91422724  0.05013848  1
  Se  Se138  1  0.25115513  0.91473717  0.56063951  1
  Se  Se139  1  0.59780581  0.25981197  0.05362190  1
  Se  Se140  1  0.59892805  0.25306049  0.57357277  1
  Se  Se141  1  0.58194461  0.58551341  0.03828562  1
  Se  Se142  1  0.58671760  0.58056632  0.55805659  1
  Se  Se143  1  0.58589902  0.92208912  0.04958339  1
  Se  Se144  1  0.59399958  0.91218921  0.56861880  1
  Se  Se145  1  0.90946666  0.24225289  0.04391418  1
  Se  Se146  1  0.90906080  0.25229938  0.55895516  1
  Se  Se147  1  0.91829579  0.58062083  0.05848866  1
  Se  Se148  1  0.92832181  0.59062486  0.55271863  1
  Se  Se149  1  0.90860479  0.91138534  0.05138987  1
  Se  Se150  1  0.91431329  0.92076434  0.55062126  1
  Se  Se151  1  0.06980892  0.26711717  0.44538192  1
  Se  Se152  1  0.07566676  0.24614569  0.93316914  1
  Se  Se153  1  0.07814488  0.59765341  0.44093192  1
  Se  Se154  1  0.08367034  0.57534827  0.95128251  1
  Se  Se155  1  0.07036516  0.93409772  0.44048402  1
  Se  Se156  1  0.08389176  0.91176062  0.95379240  1
  Se  Se157  1  0.41629471  0.25083234  0.44296747  1
  Se  Se158  1  0.41680815  0.26497588  0.93894059  1
  Se  Se159  1  0.42409774  0.57533195  0.44546291  1
  Se  Se160  1  0.41302409  0.58472185  0.94552245  1
  Se  Se161  1  0.40910677  0.91492588  0.43986405  1
  Se  Se162  1  0.41958617  0.91270346  0.94714779  1
  Se  Se163  1  0.74537363  0.25196882  0.45160795  1
  Se  Se164  1  0.75552224  0.25678491  0.93274058  1
  Se  Se165  1  0.75570028  0.58311383  0.45341009  1
  Se  Se166  1  0.74268908  0.59358562  0.93522407  1
  Se  Se167  1  0.74611796  0.91537717  0.44944998  1
  Se  Se168  1  0.75100449  0.90938516  0.94127754  1
  Se  Se169  1  0.25076147  0.08153400  0.44265121  1
  Se  Se170  1  0.25680369  0.08101000  0.94286747  1
  Se  Se171  1  0.25895070  0.41224668  0.44299701  1
  Se  Se172  1  0.24483203  0.42199269  0.94680095  1
  Se  Se173  1  0.26097632  0.74176934  0.43989163  1
  Se  Se174  1  0.24418478  0.75112197  0.94756404  1
  Se  Se175  1  0.58183777  0.07015388  0.44629435  1
  Se  Se176  1  0.59523906  0.07979170  0.93153256  1
  Se  Se177  1  0.58608173  0.41418434  0.45332932  1
  Se  Se178  1  0.58775596  0.42498224  0.95007578  1
  Se  Se179  1  0.59678890  0.73707337  0.44129903  1
  Se  Se180  1  0.56805502  0.76948584  0.94461588  1
  Se  Se181  1  0.90593523  0.09706632  0.45098887  1
  Se  Se182  1  0.91053923  0.07623428  0.94062940  1
  Se  Se183  1  0.91155191  0.42607289  0.45049091  1
  Se  Se184  1  0.91627809  0.40355552  0.92868465  1
  Se  Se185  1  0.90728805  0.76557071  0.44857497  1
  Se  Se186  1  0.91450159  0.74302899  0.94480380  1
  Se  Se187  1  0.25866711  0.25722794  0.30065063  1
  Se  Se188  1  0.25321142  0.24995885  0.80433185  1
  Se  Se189  1  0.25707582  0.59092305  0.29916066  1
  Se  Se190  1  0.25196295  0.58706742  0.80467651  1
  Se  Se191  1  0.25333463  0.91915224  0.29587955  1
  Se  Se192  1  0.25189663  0.91788307  0.80756820  1
  Se  Se193  1  0.57668487  0.23943659  0.31420933  1
  Se  Se194  1  0.58041863  0.24920087  0.80712877  1
  Se  Se195  1  0.58270736  0.57301576  0.30754905  1
  Se  Se196  1  0.57645040  0.58853018  0.80791860  1
  Se  Se197  1  0.58162021  0.90986118  0.29860274  1
  Se  Se198  1  0.58515362  0.92066057  0.80290703  1
  Se  Se199  1  0.90557673  0.24551658  0.30737872  1
  Se  Se200  1  0.92798856  0.26626967  0.79058728  1
  Se  Se201  1  0.91862101  0.58765447  0.30737517  1
  Se  Se202  1  0.90950968  0.57464279  0.80689926  1
  Se  Se203  1  0.90331442  0.91316203  0.30829748  1
  Se  Se204  1  0.91319266  0.90266716  0.80557418  1
  Se  Se205  1  0.09422737  0.09800660  0.30906211  1
  Se  Se206  1  0.08594363  0.08729267  0.81644392  1
  Se  Se207  1  0.10081528  0.43084089  0.31099397  1
  Se  Se208  1  0.08788195  0.41887752  0.80416872  1
  Se  Se209  1  0.08459294  0.75928621  0.30377344  1
  Se  Se210  1  0.08822852  0.75097324  0.81436997  1
  Se  Se211  1  0.41504236  0.07916394  0.30183010  1
  Se  Se212  1  0.41279164  0.07940149  0.80459127  1
  Se  Se213  1  0.41671131  0.41479769  0.30319864  1
  Se  Se214  1  0.41293540  0.41659290  0.80663492  1
  Se  Se215  1  0.42116897  0.74500431  0.29879686  1
  Se  Se216  1  0.41071694  0.74925078  0.80703660  1
  Se  Se217  1  0.74433071  0.07577492  0.30761261  1
  Se  Se218  1  0.75794699  0.07869548  0.79324791  1
  Se  Se219  1  0.75203704  0.41993740  0.31141023  1
  Se  Se220  1  0.74860418  0.43526029  0.79246256  1
  Se  Se221  1  0.75339507  0.75083084  0.30897347  1
  Se  Se222  1  0.74426057  0.75235369  0.79685059  1
  Se  Se223  1  0.25447104  0.08468142  0.19527671  1
  Se  Se224  1  0.25327047  0.07432425  0.70076617  1
  Se  Se225  1  0.25563561  0.41757756  0.19277193  1
  Se  Se226  1  0.25498226  0.41748116  0.69896129  1
  Se  Se227  1  0.25293643  0.74898510  0.19153430  1
  Se  Se228  1  0.25206373  0.74211146  0.70196356  1
  Se  Se229  1  0.58645048  0.08150535  0.19820462  1
  Se  Se230  1  0.57482347  0.08215499  0.70217824  1
  Se  Se231  1  0.58212335  0.42437601  0.18733940  1
  Se  Se232  1  0.57797288  0.42552984  0.70111377  1
  Se  Se233  1  0.57554114  0.75596856  0.17853863  1
  Se  Se234  1  0.57511761  0.75278509  0.70350123  1
  Se  Se235  1  0.91262055  0.08486743  0.19156271  1
  Se  Se236  1  0.91194712  0.08711875  0.68961294  1
  Se  Se237  1  0.91223049  0.42263787  0.19562708  1
  Se  Se238  1  0.93388993  0.38972380  0.70123719  1
  Se  Se239  1  0.91662908  0.74645896  0.19836579  1
  Se  Se240  1  0.91212003  0.75719654  0.69088082  1
  Se  Se241  1  0.09199660  0.24862305  0.18791688  1
  Se  Se242  1  0.09547614  0.23805374  0.69430719  1
  Se  Se243  1  0.08274397  0.58518504  0.19478524  1
  Se  Se244  1  0.08524591  0.57079114  0.68648551  1
  Se  Se245  1  0.08572920  0.91180023  0.18601661  1
  Se  Se246  1  0.09221975  0.90318952  0.69200362  1
  Se  Se247  1  0.42214974  0.25492949  0.19713609  1
  Se  Se248  1  0.41380454  0.25349449  0.69948630  1
  Se  Se249  1  0.42049507  0.58824451  0.19280157  1
  Se  Se250  1  0.41119739  0.59058685  0.69795844  1
  Se  Se251  1  0.41336028  0.91932628  0.19069827  1
  Se  Se252  1  0.41198520  0.91745090  0.69942452  1
  Se  Se253  1  0.75716380  0.24236744  0.18846964  1
  Se  Se254  1  0.73329610  0.26688599  0.70633862  1
  Se  Se255  1  0.75428079  0.57330246  0.19027026  1
  Se  Se256  1  0.75053719  0.59631337  0.69605528  1
  Se  Se257  1  0.74420783  0.91490504  0.19189879  1
  Se  Se258  1  0.74255362  0.93585622  0.70050749  1
