# generated using pymatgen
data_In86Cu29Se144
_symmetry_space_group_name_H-M   'P 1'
_cell_length_a   17.58272946
_cell_length_b   17.58746149
_cell_length_c   23.43727498
_cell_angle_alpha   90.02927622
_cell_angle_beta   90.00218631
_cell_angle_gamma   90.00124189
_symmetry_Int_Tables_number   1
_chemical_formula_structural   In86Cu29Se144
_chemical_formula_sum   'In86 Cu29 Se144'
_cell_volume   7247.63830132
_cell_formula_units_Z   1
loop_
 _symmetry_equiv_pos_site_id
 _symmetry_equiv_pos_as_xyz
  1  'x, y, z'
loop_
 _atom_site_type_symbol
 _atom_site_label
 _atom_site_symmetry_multiplicity
 _atom_site_fract_x
 _atom_site_fract_y
 _atom_site_fract_z
 _atom_site_occupancy
  In  In0  1  0.00832326  0.17697485  0.12006448  1
  In  In1  1  0.00234642  0.16903383  0.62852252  1
  In  In2  1  -0.00494106  0.49735618  0.12723548  1
  In  In3  1  -0.02250712  0.50073840  0.62392986  1
  In  In4  1  -0.01221567  0.81731075  0.11044499  1
  In  In5  1  -0.00316937  0.84220814  0.62814477  1
  In  In6  1  0.33224101  0.16343609  0.12631534  1
  In  In7  1  0.32902159  0.15789056  0.60636505  1
  In  In8  1  0.31781271  0.49813762  0.13111735  1
  In  In9  1  0.32057459  0.49618943  0.62160015  1
  In  In10  1  0.33323097  0.83909917  0.11731281  1
  In  In11  1  0.33354314  0.83800999  0.62267829  1
  In  In12  1  0.66163910  0.16406144  0.11429979  1
  In  In13  1  0.67716147  0.17967160  0.61722827  1
  In  In14  1  0.68676169  0.49713173  0.12552959  1
  In  In15  1  0.67341485  0.49149449  0.63144652  1
  In  In16  1  0.66049848  0.82573862  0.12307965  1
  In  In17  1  0.67482823  0.81720956  0.62908763  1
  In  In18  1  0.18216938  0.00502431  0.36823879  1
  In  In19  1  0.15818821  0.01375135  0.88746558  1
  In  In20  1  0.15886557  0.32609255  0.36815560  1
  In  In21  1  0.15210657  0.33866982  0.88493152  1
  In  In22  1  0.16065491  0.68098471  0.36876018  1
  In  In23  1  0.14733913  0.67096431  0.89668782  1
  In  In24  1  0.49536719  0.01114118  0.37590777  1
  In  In25  1  0.49064265  0.00442852  0.88916530  1
  In  In26  1  0.49088640  0.33609113  0.36845760  1
  In  In27  1  0.50137618  0.32400381  0.87410105  1
  In  In28  1  0.51356295  0.65965542  0.37254890  1
  In  In29  1  0.51507529  0.66999976  0.87651261  1
  In  In30  1  0.83769902  0.00172811  0.38279732  1
  In  In31  1  0.84539123  -0.00889317  0.87805074  1
  In  In32  1  0.84373390  0.33056689  0.38203555  1
  In  In33  1  0.83446426  0.33271383  0.87305259  1
  In  In34  1  0.83564141  0.66508799  0.38016911  1
  In  In35  1  0.83407284  0.67416426  0.88496282  1
  In  In36  1  -0.00410326  0.17680276  0.37992018  1
  In  In37  1  -0.00241679  0.16649307  0.87665899  1
  In  In38  1  -0.00796206  0.49705800  0.37449727  1
  In  In39  1  0.00537264  0.49402795  0.88549963  1
  In  In40  1  -0.00225665  0.82504211  0.36915158  1
  In  In41  1  -0.01078004  0.83585343  0.88251414  1
  In  In42  1  0.33099828  0.16621808  0.37372695  1
  In  In43  1  0.33145782  0.16372558  0.88824986  1
  In  In44  1  0.35261493  0.49496206  0.36472821  1
  In  In45  1  0.31960961  0.49319137  0.88086517  1
  In  In46  1  0.32042832  0.83978293  0.36822600  1
  In  In47  1  0.32989234  0.84876637  0.89433339  1
  In  In48  1  0.66939784  0.16898581  0.38460718  1
  In  In49  1  0.65992960  0.17478545  0.87477189  1
  In  In50  1  0.67400210  0.52263854  0.37296675  1
  In  In51  1  0.67939846  0.50969053  0.86811651  1
  In  In52  1  0.68245279  0.82516801  0.38042226  1
  In  In53  1  0.67643673  0.82329792  0.88264345  1
  In  In54  1  0.17896622  0.00786462  0.11216119  1
  In  In55  1  0.15219891  -0.00321574  0.62578093  1
  In  In56  1  0.16318339  0.32997035  0.12966287  1
  In  In57  1  0.17226208  0.32126218  0.62839861  1
  In  In58  1  0.14707975  0.65212038  0.10903785  1
  In  In59  1  0.16086297  0.66570150  0.61948915  1
  In  In60  1  0.48301364  -0.00998288  0.11198792  1
  In  In61  1  0.49031422  0.00724766  0.62234236  1
  In  In62  1  0.49971105  0.31696074  0.12671341  1
  In  In63  1  0.51223725  0.33395566  0.62404784  1
  In  In64  1  0.50107830  0.67972560  0.13106948  1
  In  In65  1  0.50966338  0.67728004  0.62591971  1
  In  In66  1  0.82703127  -0.00243253  0.11600696  1
  In  In67  1  0.84225696  0.01289952  0.62124115  1
  In  In68  1  0.84145368  0.34342120  0.11782998  1
  In  In69  1  0.83573869  0.33145864  0.62896384  1
  In  In70  1  0.83560910  0.66292235  0.12729036  1
  In  In71  1  0.81609132  0.64190495  0.59908998  1
  In  In72  1  -0.00883682  0.66683848  0.74842643  1
  In  In73  1  0.50673667  0.49742343  0.49067202  1
  In  In74  1  0.66743874  0.00055371  0.75554810  1
  In  In75  1  0.16219680  0.84226697  0.49703038  1
  In  In76  1  0.32832968  0.66794710  0.24654838  1
  In  In77  1  0.33075661  0.00045975  0.75036365  1
  In  In78  1  0.66103785  -0.00175058  0.25255059  1
  In  In79  1  0.49886944  0.50021144  0.00289218  1
  In  In80  1  0.33610047  0.66568250  0.75094270  1
  In  In81  1  0.00385248  0.00022700  0.23653681  1
  In  In82  1  0.16292699  0.49897613  0.49100497  1
  In  In83  1  0.50078418  0.83542784  0.49523524  1
  In  In84  1  0.66432782  0.33852972  0.24776151  1
  In  In85  1  0.33819942  0.32646241  0.75923883  1
  Cu  Cu86  1  0.83340092  0.82221475  0.25104345  1
  Cu  Cu87  1  0.83328221  0.82911548  0.75374650  1
  Cu  Cu88  1  -0.00192439  0.32664228  0.00136079  1
  Cu  Cu89  1  0.16750891  0.16771768  0.24627213  1
  Cu  Cu90  1  0.49153701  0.16108116  0.24771693  1
  Cu  Cu91  1  0.33724363  0.32773961  0.49352151  1
  Cu  Cu92  1  0.15934796  0.50018317  0.76097488  1
  Cu  Cu93  1  -0.00284998  0.00014306  0.00145178  1
  Cu  Cu94  1  0.66539429  -0.00156777  0.50211545  1
  Cu  Cu95  1  0.50795982  0.50475205  0.74892818  1
  Cu  Cu96  1  0.50021181  0.83647180  0.24553525  1
  Cu  Cu97  1  0.00166764  0.33327376  0.50448373  1
  Cu  Cu98  1  0.83953364  0.16861724  0.74844038  1
  Cu  Cu99  1  0.33485585  0.66631327  0.00779377  1
  Cu  Cu100  1  0.67029710  0.66921000  0.00265257  1
  Cu  Cu101  1  0.83333233  0.17456441  0.24996437  1
  Cu  Cu102  1  0.50248778  0.17173161  0.74718025  1
  Cu  Cu103  1  0.16156906  0.83722217  0.75305379  1
  Cu  Cu104  1  0.32421291  0.32925196  0.00370013  1
  Cu  Cu105  1  0.67330058  0.33316492  0.50227542  1
  Cu  Cu106  1  0.15774627  0.16459388  0.75374440  1
  Cu  Cu107  1  0.67014450  0.33481061  -0.00176073  1
  Cu  Cu108  1  0.00307831  0.01010806  0.50116408  1
  Cu  Cu109  1  0.16349457  0.83403634  0.24028005  1
  Cu  Cu110  1  0.15723673  0.49690604  0.24905942  1
  Cu  Cu111  1  0.83284881  0.49613130  0.74942691  1
  Cu  Cu112  1  0.83815601  0.50463598  0.25083080  1
  Cu  Cu113  1  0.50932947  0.82648038  0.75774685  1
  Cu  Cu114  1  0.67187462  0.00258614  -0.00599151  1
  Se  Se115  1  0.08117605  0.08538484  0.05212208  1
  Se  Se116  1  0.08717243  0.08983388  0.55606760  1
  Se  Se117  1  0.07776268  0.40915936  0.06012869  1
  Se  Se118  1  0.08358576  0.41419427  0.56401746  1
  Se  Se119  1  0.09076158  0.75716795  0.04580764  1
  Se  Se120  1  0.07287863  0.74916731  0.55501305  1
  Se  Se121  1  0.43092551  0.10427014  0.05648496  1
  Se  Se122  1  0.42318349  0.08335562  0.54486605  1
  Se  Se123  1  0.40814791  0.40981578  0.06224098  1
  Se  Se124  1  0.41141393  0.41154322  0.55580319  1
  Se  Se125  1  0.42149071  0.74996788  0.05568757  1
  Se  Se126  1  0.40937150  0.74244932  0.55724932  1
  Se  Se127  1  0.75272534  0.08798532  0.04818687  1
  Se  Se128  1  0.75016691  0.08431686  0.55306557  1
  Se  Se129  1  0.75481059  0.41999647  0.04723730  1
  Se  Se130  1  0.75414273  0.41522257  0.55813225  1
  Se  Se131  1  0.75381547  0.75054583  0.05815686  1
  Se  Se132  1  0.75632260  0.75860210  0.55040563  1
  Se  Se133  1  0.24395610  0.24614729  0.05933643  1
  Se  Se134  1  0.24758892  0.25351929  0.54832992  1
  Se  Se135  1  0.25149043  0.57677156  0.05293968  1
  Se  Se136  1  0.25647068  0.59239269  0.55114164  1
  Se  Se137  1  0.25472654  0.91862645  0.04519902  1
  Se  Se138  1  0.25625241  0.93048674  0.55721123  1
  Se  Se139  1  0.58204015  0.25338325  0.04825240  1
  Se  Se140  1  0.58205332  0.25097422  0.54954726  1
  Se  Se141  1  0.58981145  0.58871306  0.06327128  1
  Se  Se142  1  0.58789963  0.58195785  0.56109475  1
  Se  Se143  1  0.59400255  0.92434239  0.05722354  1
  Se  Se144  1  0.58917802  0.91827248  0.56515414  1
  Se  Se145  1  0.91095681  0.24482640  0.05307194  1
  Se  Se146  1  0.91836415  0.24967897  0.55882480  1
  Se  Se147  1  0.91194080  0.57716096  0.05801356  1
  Se  Se148  1  0.93423590  0.59198656  0.54650647  1
  Se  Se149  1  0.91083935  0.91479034  0.04955810  1
  Se  Se150  1  0.92199632  0.92416437  0.55461197  1
  Se  Se151  1  0.08553864  0.25361206  0.44797361  1
  Se  Se152  1  0.08366119  0.24155273  0.95012794  1
  Se  Se153  1  0.07617986  0.59699303  0.43795409  1
  Se  Se154  1  0.08697153  0.56835504  0.95833055  1
  Se  Se155  1  0.07504766  0.93074474  0.43312273  1
  Se  Se156  1  0.07979517  0.91672294  0.94689254  1
  Se  Se157  1  0.42285506  0.24781911  0.44010778  1
  Se  Se158  1  0.41454752  0.25685095  0.94756659  1
  Se  Se159  1  0.41004757  0.59187500  0.44007304  1
  Se  Se160  1  0.41029425  0.59006682  0.93935695  1
  Se  Se161  1  0.40426941  0.92273493  0.44051201  1
  Se  Se162  1  0.43152074  0.90871849  0.95834524  1
  Se  Se163  1  0.75756998  0.24867092  0.44954603  1
  Se  Se164  1  0.74999069  0.25034161  0.94250926  1
  Se  Se165  1  0.75883401  0.57770499  0.45052561  1
  Se  Se166  1  0.74946945  0.58381446  0.94773586  1
  Se  Se167  1  0.75080819  0.91928973  0.44776832  1
  Se  Se168  1  0.75597243  0.91447220  0.94596288  1
  Se  Se169  1  0.24530409  0.08847771  0.44356412  1
  Se  Se170  1  0.26658407  0.06455983  0.95144736  1
  Se  Se171  1  0.26100399  0.41262216  0.43387641  1
  Se  Se172  1  0.24165212  0.41587859  0.95304230  1
  Se  Se173  1  0.25570703  0.74632070  0.44243340  1
  Se  Se174  1  0.25302402  0.74648036  0.94954507  1
  Se  Se175  1  0.58428550  0.08098784  0.44688390  1
  Se  Se176  1  0.58561453  0.08799920  0.94572538  1
  Se  Se177  1  0.59826202  0.40686864  0.43273500  1
  Se  Se178  1  0.58883537  0.41672112  0.93793822  1
  Se  Se179  1  0.59480688  0.73722142  0.44829181  1
  Se  Se180  1  0.58349958  0.75222696  0.95226006  1
  Se  Se181  1  0.91594115  0.09097647  0.44816301  1
  Se  Se182  1  0.91455689  0.08433692  0.94664610  1
  Se  Se183  1  0.91968578  0.41832781  0.45184704  1
  Se  Se184  1  0.91494682  0.41064677  0.94729086  1
  Se  Se185  1  0.90501075  0.76902330  0.44069150  1
  Se  Se186  1  0.93454690  0.73447507  0.95049218  1
  Se  Se187  1  0.25055822  0.24949525  0.30271322  1
  Se  Se188  1  0.24114880  0.24070482  0.81538392  1
  Se  Se189  1  0.24074477  0.57585820  0.31004364  1
  Se  Se190  1  0.23841504  0.58745976  0.81454456  1
  Se  Se191  1  0.24728806  0.91742788  0.29247979  1
  Se  Se192  1  0.24318377  0.91363236  0.81343179  1
  Se  Se193  1  0.58123003  0.23683349  0.30519961  1
  Se  Se194  1  0.58560288  0.25544616  0.79876812  1
  Se  Se195  1  0.57051997  0.56507757  0.30213645  1
  Se  Se196  1  0.58829953  0.58938822  0.80241731  1
  Se  Se197  1  0.57700213  0.90619440  0.31607617  1
  Se  Se198  1  0.57804940  0.91451631  0.81857762  1
  Se  Se199  1  0.91775135  0.25353375  0.30451622  1
  Se  Se200  1  0.92097744  0.25137878  0.80482775  1
  Se  Se201  1  0.91934198  0.58830419  0.30585283  1
  Se  Se202  1  0.91134658  0.57455752  0.81309383  1
  Se  Se203  1  0.90964729  0.91827620  0.30200057  1
  Se  Se204  1  0.92007609  0.91227857  0.80240120  1
  Se  Se205  1  0.08295409  0.08855674  0.30619820  1
  Se  Se206  1  0.07936605  0.07877614  0.80763156  1
  Se  Se207  1  0.07567204  0.41529755  0.30558058  1
  Se  Se208  1  0.07630090  0.41295075  0.80778974  1
  Se  Se209  1  0.07972971  0.75270152  0.29393396  1
  Se  Se210  1  0.08617054  0.75042676  0.81019186  1
  Se  Se211  1  0.40945293  0.07846018  0.30216899  1
  Se  Se212  1  0.42275689  0.09287216  0.80833494  1
  Se  Se213  1  0.42158682  0.41256969  0.29138135  1
  Se  Se214  1  0.42470302  0.43083491  0.81125050  1
  Se  Se215  1  0.42198430  0.75524326  0.30973140  1
  Se  Se216  1  0.41627661  0.75822473  0.81607935  1
  Se  Se217  1  0.75663747  0.09046662  0.30832411  1
  Se  Se218  1  0.76074505  0.09005385  0.81209506  1
  Se  Se219  1  0.75816095  0.42056352  0.31103477  1
  Se  Se220  1  0.74865472  0.41305810  0.80243062  1
  Se  Se221  1  0.74953401  0.74179434  0.30530030  1
  Se  Se222  1  0.75294596  0.74502120  0.80773909  1
  Se  Se223  1  0.24726901  0.07996665  0.19483076  1
  Se  Se224  1  0.24390145  0.09351996  0.69065086  1
  Se  Se225  1  0.24487764  0.41245817  0.20183143  1
  Se  Se226  1  0.24554444  0.42227527  0.70243869  1
  Se  Se227  1  0.24070951  0.74933247  0.18027169  1
  Se  Se228  1  0.24009318  0.75813491  0.69186809  1
  Se  Se229  1  0.57543412  0.08463284  0.18803318  1
  Se  Se230  1  0.58247491  0.08874764  0.68927727  1
  Se  Se231  1  0.57747937  0.42383131  0.18332611  1
  Se  Se232  1  0.58496488  0.41299039  0.69921031  1
  Se  Se233  1  0.58935683  0.75016633  0.20292118  1
  Se  Se234  1  0.59070025  0.74472098  0.70315472  1
  Se  Se235  1  0.90557549  0.09190042  0.18607128  1
  Se  Se236  1  0.92226218  0.08226494  0.69829532  1
  Se  Se237  1  0.91420791  0.41308380  0.19872430  1
  Se  Se238  1  0.91977611  0.41277908  0.70004654  1
  Se  Se239  1  0.92104802  0.74841926  0.19477493  1
  Se  Se240  1  0.90315696  0.75050692  0.68473521  1
  Se  Se241  1  0.07696830  0.25080999  0.20061298  1
  Se  Se242  1  0.08286219  0.25428326  0.69966380  1
  Se  Se243  1  0.08080220  0.58410891  0.19411849  1
  Se  Se244  1  0.08771609  0.57517456  0.69125545  1
  Se  Se245  1  0.08742899  0.91016651  0.17427612  1
  Se  Se246  1  0.07775832  0.92028011  0.70132799  1
  Se  Se247  1  0.41036086  0.24999247  0.19855925  1
  Se  Se248  1  0.41554051  0.24279774  0.68526092  1
  Se  Se249  1  0.42099391  0.57776067  0.19000219  1
  Se  Se250  1  0.42217707  0.57400116  0.68628307  1
  Se  Se251  1  0.41400932  0.91577812  0.19288513  1
  Se  Se252  1  0.42914594  0.90614963  0.69687019  1
  Se  Se253  1  0.75043810  0.24659001  0.18621784  1
  Se  Se254  1  0.75014242  0.24898314  0.69785925  1
  Se  Se255  1  0.75004939  0.58523253  0.20007770  1
  Se  Se256  1  0.75820165  0.58450086  0.69159204  1
  Se  Se257  1  0.75589881  0.91069561  0.19433232  1
  Se  Se258  1  0.75753518  0.91492168  0.69263687  1
