# generated using pymatgen
data_In86Cu29Se144
_symmetry_space_group_name_H-M   'P 1'
_cell_length_a   17.58740614
_cell_length_b   17.58982239
_cell_length_c   23.45130517
_cell_angle_alpha   89.97881340
_cell_angle_beta   89.99489037
_cell_angle_gamma   89.99207899
_symmetry_Int_Tables_number   1
_chemical_formula_structural   In86Cu29Se144
_chemical_formula_sum   'In86 Cu29 Se144'
_cell_volume   7254.87993667
_cell_formula_units_Z   1
loop_
 _symmetry_equiv_pos_site_id
 _symmetry_equiv_pos_as_xyz
  1  'x, y, z'
loop_
 _atom_site_type_symbol
 _atom_site_label
 _atom_site_symmetry_multiplicity
 _atom_site_fract_x
 _atom_site_fract_y
 _atom_site_fract_z
 _atom_site_occupancy
  In  In0  1  -0.00033524  0.15431793  0.12673027  1
  In  In1  1  0.00219469  0.17237623  0.63093882  1
  In  In2  1  -0.00172625  0.49529690  0.11007498  1
  In  In3  1  -0.01578334  0.51895935  0.64001719  1
  In  In4  1  0.00848407  0.84068222  0.12844186  1
  In  In5  1  0.00474542  0.83111146  0.61740970  1
  In  In6  1  0.34165126  0.18012982  0.11931274  1
  In  In7  1  0.31535216  0.15320822  0.61574673  1
  In  In8  1  0.32573800  0.48793645  0.11257606  1
  In  In9  1  0.32471310  0.50017058  0.62929100  1
  In  In10  1  0.33496140  0.82460394  0.12535047  1
  In  In11  1  0.34608868  0.84117855  0.61806972  1
  In  In12  1  0.66451474  0.18135515  0.12954670  1
  In  In13  1  0.67197037  0.17393242  0.61795799  1
  In  In14  1  0.64964849  0.48588661  0.10508621  1
  In  In15  1  0.67958496  0.49278140  0.63463109  1
  In  In16  1  0.66194274  0.84152179  0.12528566  1
  In  In17  1  0.65752932  0.82661431  0.62281890  1
  In  In18  1  0.15696329  0.01406899  0.38176249  1
  In  In19  1  0.18007573  0.01409731  0.85462937  1
  In  In20  1  0.17028557  0.31517392  0.37573230  1
  In  In21  1  0.16117896  0.33944400  0.87965080  1
  In  In22  1  0.17286706  0.67193559  0.38786631  1
  In  In23  1  0.15338427  0.65961977  0.86590328  1
  In  In24  1  0.49721627  0.00190631  0.38193850  1
  In  In25  1  0.49043279  0.01007241  0.88145660  1
  In  In26  1  0.49146782  0.31858451  0.35555651  1
  In  In27  1  0.50668518  0.32802766  0.87674244  1
  In  In28  1  0.50694592  0.66539351  0.37951614  1
  In  In29  1  0.52107954  0.65299030  0.89013448  1
  In  In30  1  0.84003088  -0.00304528  0.38866923  1
  In  In31  1  0.84740263  -0.00330881  0.86941705  1
  In  In32  1  0.82176223  0.33928473  0.38306556  1
  In  In33  1  0.84346179  0.34484798  0.86812677  1
  In  In34  1  0.83620512  0.66751097  0.39511286  1
  In  In35  1  0.82221216  0.65241489  0.86387610  1
  In  In36  1  0.01494680  0.15557296  0.38506835  1
  In  In37  1  0.02324446  0.18775574  0.85119451  1
  In  In38  1  -0.00827602  0.48772402  0.37964816  1
  In  In39  1  -0.00000553  0.49415655  0.87272798  1
  In  In40  1  -0.01052585  0.84322765  0.39628105  1
  In  In41  1  0.00626220  0.83621197  0.85954424  1
  In  In42  1  0.33177848  0.17154151  0.37672605  1
  In  In43  1  0.33776815  0.16087670  0.87904052  1
  In  In44  1  0.34341717  0.49606438  0.36963051  1
  In  In45  1  0.33374108  0.50361642  0.88099290  1
  In  In46  1  0.32858146  0.83252845  0.39535807  1
  In  In47  1  0.33409262  0.84560279  0.87072257  1
  In  In48  1  0.65584521  0.17908277  0.38280540  1
  In  In49  1  0.65088588  0.16945348  0.87460582  1
  In  In50  1  0.67286228  0.49750669  0.37458058  1
  In  In51  1  0.67488183  0.50239549  0.87556739  1
  In  In52  1  0.66830592  0.83354614  0.38767855  1
  In  In53  1  0.66594213  0.82087612  0.87139253  1
  In  In54  1  0.15265895  0.00290207  0.12908585  1
  In  In55  1  0.17016982  0.00773688  0.63097151  1
  In  In56  1  0.17176461  0.33463033  0.11719572  1
  In  In57  1  0.16043846  0.31535280  0.62944142  1
  In  In58  1  0.17270344  0.66491336  0.12067774  1
  In  In59  1  0.14769283  0.66429806  0.62024956  1
  In  In60  1  0.49764766  0.00415873  0.11847272  1
  In  In61  1  0.48926133  -0.00246184  0.62122850  1
  In  In62  1  0.49754681  0.32848565  0.12168540  1
  In  In63  1  0.51147081  0.33417659  0.62749390  1
  In  In64  1  0.50312402  0.66545511  0.11016998  1
  In  In65  1  0.50019974  0.68431231  0.62869158  1
  In  In66  1  0.84161806  0.00626774  0.12945880  1
  In  In67  1  0.84443277  0.01185296  0.61695912  1
  In  In68  1  0.82469797  0.33362925  0.12526827  1
  In  In69  1  0.83241272  0.33621821  0.62428809  1
  In  In70  1  0.84076030  0.66136061  0.12230952  1
  In  In71  1  0.83714193  0.66272266  0.62063444  1
  In  In72  1  0.83143149  0.16601402  0.00336296  1
  In  In73  1  0.15746653  0.49641927  0.50785418  1
  In  In74  1  0.33375848  0.67246547  0.75417918  1
  In  In75  1  0.16731033  0.82919631  -0.00330525  1
  In  In76  1  0.67304203  0.00251601  0.74595120  1
  In  In77  1  0.66780704  0.66298100  0.25164396  1
  In  In78  1  0.00055309  0.66460095  0.25898173  1
  In  In79  1  0.82806950  0.82716566  -0.00622488  1
  In  In80  1  0.50070467  0.50175606  0.49716509  1
  In  In81  1  0.66910874  0.00787134  0.24812723  1
  In  In82  1  0.32776751  0.01086004  0.25541787  1
  In  In83  1  0.00151387  0.32619387  0.25420566  1
  In  In84  1  0.33160068  0.32998903  0.75091293  1
  In  In85  1  0.33452340  0.66462492  0.24696794  1
  Cu  Cu86  1  -0.00760812  0.33047365  0.50449280  1
  Cu  Cu87  1  0.33440662  0.66484350  -0.00165778  1
  Cu  Cu88  1  0.16927064  0.49649638  0.24223542  1
  Cu  Cu89  1  0.32892042  0.00189169  -0.00206227  1
  Cu  Cu90  1  0.83844005  0.82637090  0.74024986  1
  Cu  Cu91  1  0.66794367  0.33538802  -0.00173643  1
  Cu  Cu92  1  -0.00612323  0.66010942  -0.01119207  1
  Cu  Cu93  1  0.82482066  0.49311628  0.25036538  1
  Cu  Cu94  1  0.66305713  0.66582565  0.50557868  1
  Cu  Cu95  1  0.15775564  0.84374494  0.25975864  1
  Cu  Cu96  1  0.33646267  0.00589466  0.50054396  1
  Cu  Cu97  1  0.84109495  0.16133706  0.25635933  1
  Cu  Cu98  1  0.49844838  0.48805442  0.23772970  1
  Cu  Cu99  1  0.49611834  0.83600004  0.25475929  1
  Cu  Cu100  1  0.33758666  0.33033250  -0.00358822  1
  Cu  Cu101  1  0.83412103  0.50023078  0.74987960  1
  Cu  Cu102  1  0.50170126  0.83638014  0.74923978  1
  Cu  Cu103  1  0.66419544  0.33242466  0.50156390  1
  Cu  Cu104  1  0.00595210  0.00530683  0.50871653  1
  Cu  Cu105  1  0.50924242  0.50494890  0.75341269  1
  Cu  Cu106  1  0.33417760  0.33160666  0.49706748  1
  Cu  Cu107  1  0.16646302  0.83246418  0.74011353  1
  Cu  Cu108  1  0.66637583  -0.00224284  0.50501434  1
  Cu  Cu109  1  0.49467521  0.16615966  0.75222844  1
  Cu  Cu110  1  0.83024921  0.17089643  0.74115841  1
  Cu  Cu111  1  0.00429721  0.33180585  -0.00923349  1
  Cu  Cu112  1  0.00601494  0.00195548  -0.00404238  1
  Cu  Cu113  1  0.65755351  -0.00271626  -0.00018717  1
  Cu  Cu114  1  0.84225997  0.83630534  0.26522256  1
  Se  Se115  1  0.08504338  0.08516043  0.05193631  1
  Se  Se116  1  0.08730476  0.09107498  0.56086129  1
  Se  Se117  1  0.08737790  0.41494744  0.04737286  1
  Se  Se118  1  0.07025907  0.40799444  0.56857510  1
  Se  Se119  1  0.06912029  0.74008677  0.05513290  1
  Se  Se120  1  0.09413817  0.75759379  0.54635325  1
  Se  Se121  1  0.41310318  0.08468874  0.05154601  1
  Se  Se122  1  0.42034855  0.09163511  0.55223930  1
  Se  Se123  1  0.42189580  0.41465370  0.04959587  1
  Se  Se124  1  0.40901347  0.41267828  0.55997039  1
  Se  Se125  1  0.41360197  0.75316861  0.05048323  1
  Se  Se126  1  0.41924167  0.74745840  0.55211956  1
  Se  Se127  1  0.73932846  0.07281166  0.06285761  1
  Se  Se128  1  0.75059524  0.08599388  0.55137059  1
  Se  Se129  1  0.75725281  0.41552180  0.04919728  1
  Se  Se130  1  0.74671819  0.41743118  0.55406421  1
  Se  Se131  1  0.74227205  0.74490039  0.06187253  1
  Se  Se132  1  0.74822734  0.74908286  0.55666486  1
  Se  Se133  1  0.25010042  0.24835950  0.04789124  1
  Se  Se134  1  0.24699197  0.25384779  0.55171901  1
  Se  Se135  1  0.24679552  0.58291643  0.04949960  1
  Se  Se136  1  0.25549055  0.58947666  0.55735997  1
  Se  Se137  1  0.25179221  0.92140985  0.06153928  1
  Se  Se138  1  0.25458442  0.92748756  0.55931017  1
  Se  Se139  1  0.58650193  0.24962882  0.05168215  1
  Se  Se140  1  0.57756774  0.24969667  0.55178372  1
  Se  Se141  1  0.59072353  0.59078561  0.04402497  1
  Se  Se142  1  0.58589624  0.58349392  0.56650616  1
  Se  Se143  1  0.57669174  0.91307444  0.05374555  1
  Se  Se144  1  0.57948604  0.91639143  0.55665314  1
  Se  Se145  1  0.92688882  0.25760319  0.05983013  1
  Se  Se146  1  0.91263151  0.24524178  0.55925729  1
  Se  Se147  1  0.91179818  0.58105274  0.04707097  1
  Se  Se148  1  0.91877944  0.57726326  0.55329504  1
  Se  Se149  1  0.92210873  0.92072996  0.05408757  1
  Se  Se150  1  0.91784238  0.91712518  0.55210802  1
  Se  Se151  1  0.08310627  0.25390300  0.45183331  1
  Se  Se152  1  0.08469488  0.24154266  0.94291546  1
  Se  Se153  1  0.07210230  0.58481587  0.44142797  1
  Se  Se154  1  0.08493855  0.57863706  0.94240085  1
  Se  Se155  1  0.08883355  0.92315088  0.45276724  1
  Se  Se156  1  0.08298453  0.92022472  0.93531972  1
  Se  Se157  1  0.42075548  0.25576343  0.44117566  1
  Se  Se158  1  0.42164912  0.24635471  0.94423132  1
  Se  Se159  1  0.40341887  0.59291476  0.44276275  1
  Se  Se160  1  0.42053912  0.57934181  0.95001569  1
  Se  Se161  1  0.42140573  0.91731207  0.45251647  1
  Se  Se162  1  0.41310071  0.91719802  0.94728204  1
  Se  Se163  1  0.75044429  0.24687687  0.45182670  1
  Se  Se164  1  0.74791157  0.25436326  0.93738287  1
  Se  Se165  1  0.74184710  0.58031357  0.44983308  1
  Se  Se166  1  0.74982309  0.59034603  0.94549646  1
  Se  Se167  1  0.75308919  0.91385925  0.45413307  1
  Se  Se168  1  0.74342827  0.92811818  0.93725596  1
  Se  Se169  1  0.25255772  0.08814759  0.44639876  1
  Se  Se170  1  0.24381743  0.07901194  0.94167168  1
  Se  Se171  1  0.25342891  0.41620152  0.44041446  1
  Se  Se172  1  0.25252525  0.41563659  0.94590576  1
  Se  Se173  1  0.23921933  0.75694954  0.46098036  1
  Se  Se174  1  0.25468451  0.74044037  0.93328925  1
  Se  Se175  1  0.58568030  0.08094110  0.44768727  1
  Se  Se176  1  0.57942354  0.08763866  0.94925958  1
  Se  Se177  1  0.58264401  0.40698398  0.43656971  1
  Se  Se178  1  0.58654611  0.41758430  0.94168785  1
  Se  Se179  1  0.58058524  0.74900906  0.45083669  1
  Se  Se180  1  0.58023835  0.76296546  0.94815121  1
  Se  Se181  1  0.92060949  0.08677240  0.45333835  1
  Se  Se182  1  0.92330520  0.08443329  0.94018784  1
  Se  Se183  1  0.90943196  0.41619252  0.45292131  1
  Se  Se184  1  0.91583851  0.41779911  0.94692710  1
  Se  Se185  1  0.92123787  0.74606973  0.46014567  1
  Se  Se186  1  0.92241732  0.74788637  0.93027135  1
  Se  Se187  1  0.25495177  0.24978251  0.30242547  1
  Se  Se188  1  0.24523431  0.24356192  0.81371596  1
  Se  Se189  1  0.23968059  0.57996538  0.30812639  1
  Se  Se190  1  0.24539501  0.57093025  0.80384969  1
  Se  Se191  1  0.24878486  0.91273091  0.31745245  1
  Se  Se192  1  0.25227254  0.91303064  0.79429885  1
  Se  Se193  1  0.59717825  0.25162710  0.29853213  1
  Se  Se194  1  0.58176916  0.25148058  0.79871248  1
  Se  Se195  1  0.56988856  0.56933926  0.30423822  1
  Se  Se196  1  0.59096890  0.58860063  0.80616978  1
  Se  Se197  1  0.58381886  0.91133565  0.31036102  1
  Se  Se198  1  0.58033172  0.92032200  0.80994172  1
  Se  Se199  1  0.91277645  0.24448763  0.32011263  1
  Se  Se200  1  0.91165222  0.25227071  0.79841174  1
  Se  Se201  1  0.90158922  0.57471230  0.31159497  1
  Se  Se202  1  0.92205493  0.58205182  0.80234319  1
  Se  Se203  1  0.92363825  0.92076434  0.31527974  1
  Se  Se204  1  0.91551937  0.91439400  0.79385453  1
  Se  Se205  1  0.09080015  0.09336498  0.30386432  1
  Se  Se206  1  0.05733852  0.05887807  0.80633902  1
  Se  Se207  1  0.09218496  0.42296702  0.30976258  1
  Se  Se208  1  0.07148037  0.40071740  0.80551185  1
  Se  Se209  1  0.08509200  0.75747835  0.31914141  1
  Se  Se210  1  0.08518164  0.74731768  0.79350850  1
  Se  Se211  1  0.43033764  0.09240765  0.30815572  1
  Se  Se212  1  0.41313818  0.08044200  0.80317513  1
  Se  Se213  1  0.41078490  0.41365888  0.29450624  1
  Se  Se214  1  0.42322563  0.42403145  0.80888912  1
  Se  Se215  1  0.41723140  0.75507804  0.31377369  1
  Se  Se216  1  0.42956244  0.75362553  0.81475407  1
  Se  Se217  1  0.75656926  0.08595869  0.31715340  1
  Se  Se218  1  0.75720636  0.09425877  0.81058261  1
  Se  Se219  1  0.74393389  0.40915390  0.30324645  1
  Se  Se220  1  0.74832057  0.41672101  0.80221056  1
  Se  Se221  1  0.75785730  0.75146838  0.31551649  1
  Se  Se222  1  0.75357668  0.75238991  0.79921516  1
  Se  Se223  1  0.24658101  0.09220832  0.18567782  1
  Se  Se224  1  0.25262504  0.08893807  0.70109004  1
  Se  Se225  1  0.25191665  0.41408114  0.19073013  1
  Se  Se226  1  0.23688584  0.41905655  0.69437163  1
  Se  Se227  1  0.23395431  0.76135654  0.19768870  1
  Se  Se228  1  0.25050634  0.75229274  0.68297812  1
  Se  Se229  1  0.57225295  0.09259355  0.19226118  1
  Se  Se230  1  0.57776694  0.08959863  0.68866921  1
  Se  Se231  1  0.58944298  0.41101297  0.18798066  1
  Se  Se232  1  0.58604166  0.41622000  0.69974980  1
  Se  Se233  1  0.57379553  0.75418999  0.19373385  1
  Se  Se234  1  0.58766689  0.75006152  0.70303897  1
  Se  Se235  1  0.92305740  0.07801089  0.20335406  1
  Se  Se236  1  0.91613366  0.08354456  0.69631593  1
  Se  Se237  1  0.91651830  0.42315053  0.19217967  1
  Se  Se238  1  0.91525609  0.41327587  0.69746833  1
  Se  Se239  1  0.91205297  0.75716410  0.19563114  1
  Se  Se240  1  0.92397619  0.74585928  0.68765109  1
  Se  Se241  1  0.08902292  0.24523562  0.18821939  1
  Se  Se242  1  0.08600933  0.24261860  0.70641853  1
  Se  Se243  1  0.08445552  0.57824745  0.18879559  1
  Se  Se244  1  0.09381374  0.57859656  0.69835454  1
  Se  Se245  1  0.07596173  0.92348816  0.20375365  1
  Se  Se246  1  0.08139101  0.91620077  0.68964350  1
  Se  Se247  1  0.41654159  0.25331482  0.19517479  1
  Se  Se248  1  0.41834376  0.24375451  0.68634444  1
  Se  Se249  1  0.42153520  0.57798200  0.18273755  1
  Se  Se250  1  0.42462551  0.57829315  0.69266742  1
  Se  Se251  1  0.41731258  0.91423847  0.19395318  1
  Se  Se252  1  0.41650295  0.91801986  0.69779633  1
  Se  Se253  1  0.76142244  0.24371295  0.19916969  1
  Se  Se254  1  0.74397942  0.25488760  0.69302187  1
  Se  Se255  1  0.75149697  0.57492704  0.18693183  1
  Se  Se256  1  0.75392639  0.58878574  0.69715639  1
  Se  Se257  1  0.76215320  0.90694707  0.19688509  1
  Se  Se258  1  0.75835133  0.91243647  0.68336014  1
