# generated using pymatgen
data_In86Cu29Se144
_symmetry_space_group_name_H-M   'P 1'
_cell_length_a   17.57226739
_cell_length_b   17.56973602
_cell_length_c   23.42964165
_cell_angle_alpha   90.01471531
_cell_angle_beta   90.00657221
_cell_angle_gamma   89.98220992
_symmetry_Int_Tables_number   1
_chemical_formula_structural   In86Cu29Se144
_chemical_formula_sum   'In86 Cu29 Se144'
_cell_volume   7233.66925994
_cell_formula_units_Z   1
loop_
 _symmetry_equiv_pos_site_id
 _symmetry_equiv_pos_as_xyz
  1  'x, y, z'
loop_
 _atom_site_type_symbol
 _atom_site_label
 _atom_site_symmetry_multiplicity
 _atom_site_fract_x
 _atom_site_fract_y
 _atom_site_fract_z
 _atom_site_occupancy
  In  In0  1  0.00587200  0.15557524  0.13687359  1
  In  In1  1  0.00169656  0.17105160  0.62496730  1
  In  In2  1  0.00346346  0.48466693  0.12710409  1
  In  In3  1  -0.03361424  0.49560308  0.62753227  1
  In  In4  1  0.01477177  0.85145962  0.11547388  1
  In  In5  1  0.00103833  0.84529321  0.62268392  1
  In  In6  1  0.32501214  0.13678450  0.10424822  1
  In  In7  1  0.33513721  0.15938276  0.61635820  1
  In  In8  1  0.33284697  0.51473873  0.12673531  1
  In  In9  1  0.33673203  0.50679414  0.62986286  1
  In  In10  1  0.32522004  0.84308524  0.11990773  1
  In  In11  1  0.32009553  0.83112289  0.63169227  1
  In  In12  1  0.66573510  0.16288909  0.12940386  1
  In  In13  1  0.66105630  0.15329265  0.62054568  1
  In  In14  1  0.65549450  0.49855847  0.12601280  1
  In  In15  1  0.68691363  0.50249735  0.63036420  1
  In  In16  1  0.68591159  0.84684550  0.10055560  1
  In  In17  1  0.67559992  0.82675415  0.63558431  1
  In  In18  1  0.17622629  0.00839380  0.36199844  1
  In  In19  1  0.15485242  0.00610206  0.88845118  1
  In  In20  1  0.14716241  0.33279125  0.36925595  1
  In  In21  1  0.16544472  0.32901140  0.87986647  1
  In  In22  1  0.16875725  0.66564922  0.36672899  1
  In  In23  1  0.17068439  0.65787785  0.88008926  1
  In  In24  1  0.50580637  0.00527807  0.36278599  1
  In  In25  1  0.51491782  -0.01869899  0.90362181  1
  In  In26  1  0.50001316  0.31218213  0.37291663  1
  In  In27  1  0.49330642  0.33152855  0.88007315  1
  In  In28  1  0.49408878  0.67884929  0.37034843  1
  In  In29  1  0.51402541  0.68717643  0.87375024  1
  In  In30  1  0.83404811  0.00226121  0.37561775  1
  In  In31  1  0.82738598  -0.00782154  0.86608798  1
  In  In32  1  0.83172046  0.32927203  0.37598159  1
  In  In33  1  0.83842403  0.32041207  0.86634242  1
  In  In34  1  0.84061862  0.66792123  0.39459218  1
  In  In35  1  0.82949460  0.67678556  0.87386734  1
  In  In36  1  -0.00287076  0.16705143  0.37548661  1
  In  In37  1  0.01238289  0.16547554  0.86254577  1
  In  In38  1  -0.00375576  0.49330700  0.37690887  1
  In  In39  1  0.01148282  0.50115569  0.87269957  1
  In  In40  1  -0.01323309  0.83381436  0.37450578  1
  In  In41  1  -0.01334104  0.84382648  0.88151059  1
  In  In42  1  0.34280485  0.15622210  0.37816455  1
  In  In43  1  0.33748302  0.15170922  0.89220100  1
  In  In44  1  0.32410498  0.51155907  0.37108103  1
  In  In45  1  0.32097375  0.49977267  0.87733666  1
  In  In46  1  0.32839748  0.83804775  0.35287352  1
  In  In47  1  0.34080468  0.83136526  0.88832350  1
  In  In48  1  0.66379274  0.16305324  0.37268396  1
  In  In49  1  0.66962522  0.15014474  0.87967329  1
  In  In50  1  0.68528905  0.49943063  0.37948631  1
  In  In51  1  0.65803666  0.50531683  0.87137135  1
  In  In52  1  0.67420267  0.84259834  0.37085056  1
  In  In53  1  0.67046620  0.84004473  0.88146476  1
  In  In54  1  0.16300223  -0.00033549  0.12366487  1
  In  In55  1  0.15333227  0.00820094  0.63222169  1
  In  In56  1  0.16150886  0.31861139  0.11988124  1
  In  In57  1  0.15894863  0.31256056  0.62225982  1
  In  In58  1  0.18280155  0.68307835  0.11057710  1
  In  In59  1  0.16690346  0.67387024  0.63247392  1
  In  In60  1  0.50576735  -0.00700183  0.11591400  1
  In  In61  1  0.50267452  0.01220267  0.62544514  1
  In  In62  1  0.51009528  0.32613565  0.13201827  1
  In  In63  1  0.50936025  0.32366353  0.62485214  1
  In  In64  1  0.48805629  0.67374984  0.12287687  1
  In  In65  1  0.49620430  0.68079063  0.63498971  1
  In  In66  1  0.83244125  -0.00040031  0.12860948  1
  In  In67  1  0.83327925  -0.00059383  0.62135924  1
  In  In68  1  0.83748132  0.32522039  0.13718112  1
  In  In69  1  0.84398106  0.33891882  0.62096913  1
  In  In70  1  0.82633632  0.67895074  0.12252590  1
  In  In71  1  0.82872524  0.65785029  0.61441138  1
  In  In72  1  0.83938156  0.50673449  -0.00747517  1
  In  In73  1  0.33758361  0.32767619  0.24826162  1
  In  In74  1  0.00547544  0.67152232  0.25008029  1
  In  In75  1  0.49548551  0.50333933  0.00699504  1
  In  In76  1  0.15960378  0.49587012  0.49352974  1
  In  In77  1  0.50594803  0.49309772  0.50758382  1
  In  In78  1  0.66103953  0.66957370  0.24862405  1
  In  In79  1  0.33343279  -0.00178564  0.75825832  1
  In  In80  1  0.50464866  0.84136337  0.49164842  1
  In  In81  1  0.16149716  0.83913411  0.50054085  1
  In  In82  1  0.83406364  0.15693842  0.00552502  1
  In  In83  1  -0.00438102  0.66357998  0.74841447  1
  In  In84  1  0.32877451  0.32984340  0.75999789  1
  In  In85  1  0.67106389  0.33670680  0.74428494  1
  Cu  Cu86  1  0.32865311  0.33171538  0.00179468  1
  Cu  Cu87  1  0.16450345  0.49403423  0.75320454  1
  Cu  Cu88  1  0.17034569  0.50811246  0.24600400  1
  Cu  Cu89  1  0.67075545  0.00009406  0.49537991  1
  Cu  Cu90  1  0.67350334  0.66769464  0.50834420  1
  Cu  Cu91  1  0.67550569  0.33619581  0.00834096  1
  Cu  Cu92  1  -0.00580806  0.00203167  0.00300047  1
  Cu  Cu93  1  0.83278880  0.83999470  0.75079114  1
  Cu  Cu94  1  0.50267241  0.49535785  0.24793340  1
  Cu  Cu95  1  0.16695718  0.82673020  0.75697718  1
  Cu  Cu96  1  0.00175971  0.66611050  -0.00347575  1
  Cu  Cu97  1  0.33080880  0.67077619  0.49843670  1
  Cu  Cu98  1  0.83209381  0.83926942  0.24844568  1
  Cu  Cu99  1  0.33207282  0.00414326  0.49403160  1
  Cu  Cu100  1  0.49861958  0.51903734  0.74998139  1
  Cu  Cu101  1  -0.00544404  0.33092776  0.49845346  1
  Cu  Cu102  1  0.49857136  0.15442489  0.24504267  1
  Cu  Cu103  1  0.32952870  0.32362013  0.49773975  1
  Cu  Cu104  1  0.32917072  0.66507120  -0.00085712  1
  Cu  Cu105  1  0.82779691  0.16465353  0.25689953  1
  Cu  Cu106  1  -0.00065197  0.00814567  0.49991890  1
  Cu  Cu107  1  0.50079368  0.84112008  0.76245996  1
  Cu  Cu108  1  0.83941124  0.15895082  0.74511213  1
  Cu  Cu109  1  0.16331917  0.16759618  0.24564641  1
  Cu  Cu110  1  0.83378938  0.49461413  0.25355555  1
  Cu  Cu111  1  0.00866243  0.32571363  -0.00092766  1
  Cu  Cu112  1  0.66928171  0.32410288  0.50149451  1
  Cu  Cu113  1  0.49774400  0.83491425  0.24020218  1
  Cu  Cu114  1  0.50131501  0.16254785  0.75528098  1
  Se  Se115  1  0.07770056  0.08615870  0.05601846  1
  Se  Se116  1  0.08595239  0.08716220  0.55425617  1
  Se  Se117  1  0.08677544  0.41308901  0.05308327  1
  Se  Se118  1  0.07461109  0.41177966  0.56103259  1
  Se  Se119  1  0.08278442  0.75387357  0.04883321  1
  Se  Se120  1  0.07773950  0.74172807  0.55885426  1
  Se  Se121  1  0.45036260  0.10291237  0.05239293  1
  Se  Se122  1  0.42170449  0.08054513  0.54822347  1
  Se  Se123  1  0.40928720  0.40715116  0.06587242  1
  Se  Se124  1  0.40462126  0.40375149  0.56141468  1
  Se  Se125  1  0.40751169  0.75248612  0.05249167  1
  Se  Se126  1  0.40972280  0.75480063  0.55594908  1
  Se  Se127  1  0.73525903  0.06877144  0.05549311  1
  Se  Se128  1  0.75222557  0.08364996  0.55062221  1
  Se  Se129  1  0.75687896  0.41769515  0.06351257  1
  Se  Se130  1  0.74671346  0.41235710  0.55544038  1
  Se  Se131  1  0.75478711  0.74344363  0.04177015  1
  Se  Se132  1  0.75290751  0.76000802  0.55560566  1
  Se  Se133  1  0.24733296  0.24173587  0.05064305  1
  Se  Se134  1  0.24700784  0.24143654  0.55137730  1
  Se  Se135  1  0.24786816  0.57627135  0.04921664  1
  Se  Se136  1  0.25111933  0.58849545  0.55617929  1
  Se  Se137  1  0.25780557  0.93816848  0.04911813  1
  Se  Se138  1  0.25536917  0.92893860  0.56055532  1
  Se  Se139  1  0.59127432  0.25230403  0.05840077  1
  Se  Se140  1  0.58135122  0.24220541  0.55169308  1
  Se  Se141  1  0.59087026  0.59760157  0.05733173  1
  Se  Se142  1  0.58535009  0.59382511  0.56608573  1
  Se  Se143  1  0.56830055  0.89466422  0.04424054  1
  Se  Se144  1  0.59136829  0.92163162  0.55986445  1
  Se  Se145  1  0.92424380  0.25214159  0.06113380  1
  Se  Se146  1  0.91403039  0.24558082  0.55292365  1
  Se  Se147  1  0.92581154  0.58850985  0.06301416  1
  Se  Se148  1  0.92371079  0.58666693  0.54946925  1
  Se  Se149  1  0.90967290  0.91816179  0.05490275  1
  Se  Se150  1  0.91833841  0.91936732  0.55010326  1
  Se  Se151  1  0.08168229  0.25080688  0.44579737  1
  Se  Se152  1  0.08475197  0.23777957  0.94423131  1
  Se  Se153  1  0.07605978  0.59638549  0.43839545  1
  Se  Se154  1  0.08467992  0.57705315  0.94924398  1
  Se  Se155  1  0.07925024  0.92927343  0.43659414  1
  Se  Se156  1  0.07727624  0.91315796  0.95271077  1
  Se  Se157  1  0.41928133  0.24305371  0.44869271  1
  Se  Se158  1  0.41648456  0.25135671  0.95083931  1
  Se  Se159  1  0.41624034  0.58711932  0.44510322  1
  Se  Se160  1  0.41491227  0.58984712  0.93777027  1
  Se  Se161  1  0.40573784  0.92103171  0.43226681  1
  Se  Se162  1  0.39043859  0.93978579  0.95374873  1
  Se  Se163  1  0.74845747  0.24336778  0.44257842  1
  Se  Se164  1  0.74870688  0.25572012  0.94377893  1
  Se  Se165  1  0.75377436  0.57964306  0.45620130  1
  Se  Se166  1  0.73723777  0.59205497  0.94227356  1
  Se  Se167  1  0.75468061  0.91359572  0.44572345  1
  Se  Se168  1  0.75604740  0.92511324  0.94646748  1
  Se  Se169  1  0.24416324  0.08502450  0.44268777  1
  Se  Se170  1  0.25712655  0.06228343  0.95793718  1
  Se  Se171  1  0.25665638  0.40678228  0.43599395  1
  Se  Se172  1  0.24712374  0.41506609  0.94786266  1
  Se  Se173  1  0.25570862  0.75232539  0.43710196  1
  Se  Se174  1  0.24426061  0.74957602  0.94788087  1
  Se  Se175  1  0.58092143  0.07708192  0.44170644  1
  Se  Se176  1  0.57081213  0.10224046  0.95166178  1
  Se  Se177  1  0.58867724  0.40589949  0.43989582  1
  Se  Se178  1  0.59122854  0.41154344  0.94732800  1
  Se  Se179  1  0.59614225  0.74020187  0.44050286  1
  Se  Se180  1  0.57049379  0.77486948  0.95123622  1
  Se  Se181  1  0.91269622  0.08785014  0.44566842  1
  Se  Se182  1  0.92187207  0.08049903  0.93522576  1
  Se  Se183  1  0.91171116  0.41644252  0.44628151  1
  Se  Se184  1  0.92443076  0.40319024  0.93948542  1
  Se  Se185  1  0.92150799  0.75887618  0.45431122  1
  Se  Se186  1  0.91382147  0.74791429  0.94708592  1
  Se  Se187  1  0.24409549  0.24433836  0.31020133  1
  Se  Se188  1  0.25032175  0.23066821  0.81765883  1
  Se  Se189  1  0.25584960  0.59289115  0.29495774  1
  Se  Se190  1  0.24724889  0.58105188  0.80276286  1
  Se  Se191  1  0.24675041  0.92293542  0.28977260  1
  Se  Se192  1  0.24361738  0.90871362  0.81737813  1
  Se  Se193  1  0.58030136  0.24164807  0.29807101  1
  Se  Se194  1  0.58204532  0.24997165  0.81033512  1
  Se  Se195  1  0.57888824  0.57478768  0.31427091  1
  Se  Se196  1  0.58623206  0.59561428  0.80366029  1
  Se  Se197  1  0.58244936  0.90883340  0.30074944  1
  Se  Se198  1  0.58263229  0.92533734  0.81482096  1
  Se  Se199  1  0.91507584  0.25009818  0.30506269  1
  Se  Se200  1  0.92170289  0.24479725  0.79649681  1
  Se  Se201  1  0.90817594  0.58479359  0.30994807  1
  Se  Se202  1  0.90765478  0.57546378  0.81136088  1
  Se  Se203  1  0.91570204  0.92052995  0.30288307  1
  Se  Se204  1  0.92342244  0.92053715  0.79947541  1
  Se  Se205  1  0.07914044  0.08791331  0.30263898  1
  Se  Se206  1  0.09248309  0.07127677  0.80252527  1
  Se  Se207  1  0.08368879  0.42969597  0.30058055  1
  Se  Se208  1  0.08496472  0.40833240  0.80626029  1
  Se  Se209  1  0.09202248  0.76739425  0.30719598  1
  Se  Se210  1  0.08066898  0.74998608  0.81522868  1
  Se  Se211  1  0.40845092  0.07775691  0.29822421  1
  Se  Se212  1  0.42936232  0.08029750  0.81854518  1
  Se  Se213  1  0.42191911  0.42159729  0.31304134  1
  Se  Se214  1  0.42596070  0.42933754  0.80852219  1
  Se  Se215  1  0.41676283  0.74844105  0.29360762  1
  Se  Se216  1  0.41346264  0.75551140  0.80942012  1
  Se  Se217  1  0.74450609  0.07611666  0.30502270  1
  Se  Se218  1  0.74987481  0.08565472  0.80083978  1
  Se  Se219  1  0.74766251  0.41228839  0.30466168  1
  Se  Se220  1  0.75613437  0.42433782  0.80948510  1
  Se  Se221  1  0.76336605  0.74733251  0.30928255  1
  Se  Se222  1  0.74798579  0.75955232  0.80569882  1
  Se  Se223  1  0.24748792  0.08711678  0.19101357  1
  Se  Se224  1  0.25055865  0.09135631  0.69477227  1
  Se  Se225  1  0.24642197  0.41865514  0.18916391  1
  Se  Se226  1  0.24525055  0.41607680  0.68991541  1
  Se  Se227  1  0.25249852  0.75266668  0.18987939  1
  Se  Se228  1  0.25263941  0.74444280  0.70559512  1
  Se  Se229  1  0.58455701  0.07176927  0.19283821  1
  Se  Se230  1  0.58559114  0.08161855  0.70062017  1
  Se  Se231  1  0.58962393  0.41207346  0.20074319  1
  Se  Se232  1  0.57271638  0.43099947  0.69012898  1
  Se  Se233  1  0.58567658  0.76090211  0.18156434  1
  Se  Se234  1  0.58135923  0.75779395  0.70390010  1
  Se  Se235  1  0.90999890  0.08207271  0.20008181  1
  Se  Se236  1  0.92193893  0.07763490  0.68976027  1
  Se  Se237  1  0.92035006  0.41373650  0.20149793  1
  Se  Se238  1  0.91140484  0.40841026  0.70410097  1
  Se  Se239  1  0.91526926  0.76039462  0.18902261  1
  Se  Se240  1  0.91082172  0.75808225  0.68876206  1
  Se  Se241  1  0.07876478  0.25654947  0.19909032  1
  Se  Se242  1  0.08314764  0.24634213  0.69984809  1
  Se  Se243  1  0.09080950  0.58581209  0.18317564  1
  Se  Se244  1  0.08446449  0.56942222  0.68780847  1
  Se  Se245  1  0.07873787  0.92427091  0.19594104  1
  Se  Se246  1  0.08902288  0.90851767  0.69826892  1
  Se  Se247  1  0.41475572  0.23262783  0.18483292  1
  Se  Se248  1  0.42092927  0.24218187  0.69546875  1
  Se  Se249  1  0.42322528  0.58369251  0.19741004  1
  Se  Se250  1  0.40839463  0.59580519  0.69861189  1
  Se  Se251  1  0.41647955  0.92090250  0.18792089  1
  Se  Se252  1  0.42373860  0.91105843  0.69122673  1
  Se  Se253  1  0.74592243  0.24657213  0.19981466  1
  Se  Se254  1  0.75497739  0.24008812  0.68615072  1
  Se  Se255  1  0.75687646  0.57673836  0.19166582  1
  Se  Se256  1  0.75264405  0.59672845  0.69675551  1
  Se  Se257  1  0.74349306  0.91120729  0.19071361  1
  Se  Se258  1  0.74980095  0.92493457  0.69673700  1
