# generated using pymatgen
data_In86Cu29Se144
_symmetry_space_group_name_H-M   'P 1'
_cell_length_a   17.66028451
_cell_length_b   17.65519423
_cell_length_c   23.51672305
_cell_angle_alpha   89.99390976
_cell_angle_beta   89.98741697
_cell_angle_gamma   89.97964993
_symmetry_Int_Tables_number   1
_chemical_formula_structural   In86Cu29Se144
_chemical_formula_sum   'In86 Cu29 Se144'
_cell_volume   7332.41369612
_cell_formula_units_Z   1
loop_
 _symmetry_equiv_pos_site_id
 _symmetry_equiv_pos_as_xyz
  1  'x, y, z'
loop_
 _atom_site_type_symbol
 _atom_site_label
 _atom_site_symmetry_multiplicity
 _atom_site_fract_x
 _atom_site_fract_y
 _atom_site_fract_z
 _atom_site_occupancy
  In  In0  1  -0.00032830  0.15751888  0.12593475  1
  In  In1  1  0.03268250  0.21061133  0.58245448  1
  In  In2  1  0.00053630  0.51084590  0.12825117  1
  In  In3  1  0.00097611  0.49085919  0.61134054  1
  In  In4  1  -0.01674675  0.82735610  0.12003270  1
  In  In5  1  0.00402552  0.83849560  0.61587642  1
  In  In6  1  0.34285570  0.16338231  0.13548768  1
  In  In7  1  0.33469015  0.16541054  0.62187777  1
  In  In8  1  0.34110337  0.50422876  0.13417807  1
  In  In9  1  0.32607620  0.49524857  0.61289257  1
  In  In10  1  0.35869179  0.78459521  0.20213470  1
  In  In11  1  0.33565743  0.83549827  0.61831525  1
  In  In12  1  0.65894801  0.16933055  0.13009843  1
  In  In13  1  0.66486370  0.16545970  0.61503949  1
  In  In14  1  0.67002728  0.50937108  0.12133817  1
  In  In15  1  0.67290895  0.51011932  0.61945803  1
  In  In16  1  0.66762425  0.82355447  0.11397508  1
  In  In17  1  0.66116847  0.82538015  0.62024434  1
  In  In18  1  0.18140811  -0.00997506  0.38721390  1
  In  In19  1  0.18729977  -0.00379677  0.86878685  1
  In  In20  1  0.17117898  0.32236701  0.39440191  1
  In  In21  1  0.16728995  0.33657637  0.86092541  1
  In  In22  1  0.16949692  0.66892065  0.37146172  1
  In  In23  1  0.16917661  0.67313727  0.87487583  1
  In  In24  1  0.49079601  0.00114780  0.37610682  1
  In  In25  1  0.49346418  0.00253378  0.87702996  1
  In  In26  1  0.48776538  0.34637105  0.38220575  1
  In  In27  1  0.50092849  0.34599700  0.87260155  1
  In  In28  1  0.50401448  0.66187578  0.37036250  1
  In  In29  1  0.50728688  0.65575789  0.88245430  1
  In  In30  1  0.82678858  -0.00631539  0.38199357  1
  In  In31  1  0.82747123  -0.00490982  0.87355293  1
  In  In32  1  0.83522403  0.33670548  0.39056110  1
  In  In33  1  0.84419400  0.33221685  0.86894618  1
  In  In34  1  0.83448501  0.66419296  0.37433261  1
  In  In35  1  0.82481603  0.67437185  0.87970512  1
  In  In36  1  0.00087684  0.17040568  0.39404484  1
  In  In37  1  -0.00513803  0.17396154  0.86404421  1
  In  In38  1  -0.00939537  0.50647335  0.38617958  1
  In  In39  1  0.00047369  0.48967861  0.87162128  1
  In  In40  1  0.01321127  0.81893152  0.37719748  1
  In  In41  1  -0.00013993  0.82302225  0.87518369  1
  In  In42  1  0.33247826  0.16854940  0.37777032  1
  In  In43  1  0.33380160  0.16783308  0.86478120  1
  In  In44  1  0.34005241  0.49864728  0.37110435  1
  In  In45  1  0.34654775  0.50108938  0.87266129  1
  In  In46  1  0.32808763  0.83824267  0.37126049  1
  In  In47  1  0.33677107  0.84296263  0.87691018  1
  In  In48  1  0.66457787  0.16218419  0.38530804  1
  In  In49  1  0.66750210  0.16311565  0.87182764  1
  In  In50  1  0.65638071  0.51553929  0.38283269  1
  In  In51  1  0.65733728  0.51085341  0.87728230  1
  In  In52  1  0.66806694  0.82358350  0.37296637  1
  In  In53  1  0.67309968  0.82326602  0.88299697  1
  In  In54  1  0.19128437  -0.01741013  0.13923016  1
  In  In55  1  0.17234064  0.00439075  0.61975832  1
  In  In56  1  0.17188296  0.34250414  0.13220611  1
  In  In57  1  0.17733447  0.34031737  0.62261468  1
  In  In58  1  0.17438912  0.66283850  0.14320792  1
  In  In59  1  0.17218565  0.66895104  0.61013751  1
  In  In60  1  0.48137504  -0.12516738  0.11945903  1
  In  In61  1  0.48986020  -0.01092823  0.61832668  1
  In  In62  1  0.48503407  0.33630592  0.13000248  1
  In  In63  1  0.48977066  0.32585684  0.61803417  1
  In  In64  1  0.50867131  0.66100688  0.13494650  1
  In  In65  1  0.50528159  0.67629246  0.61557448  1
  In  In66  1  0.83804518  -0.00527584  0.12131649  1
  In  In67  1  0.83511277  0.00226344  0.61816454  1
  In  In68  1  0.81792048  0.33979949  0.12674060  1
  In  In69  1  0.84798139  0.34709129  0.60945380  1
  In  In70  1  0.83032274  0.66203822  0.12551182  1
  In  In71  1  0.82905697  0.65765112  0.61944011  1
  In  In72  1  0.49855665  0.16560802  -0.00025133  1
  In  In73  1  0.66293309  0.33531429  0.74773816  1
  In  In74  1  0.65959100  0.34473669  0.26052049  1
  In  In75  1  0.00248490  0.33838181  0.26660920  1
  In  In76  1  0.83194866  0.17069458  -0.00652135  1
  In  In77  1  0.17026198  0.50535335  0.00854382  1
  In  In78  1  0.00191425  0.66601669  0.74948219  1
  In  In79  1  0.16400168  0.16809145  0.00335247  1
  In  In80  1  0.00394283  -0.00235283  0.26858350  1
  In  In81  1  0.66540732  -0.00269130  0.75315847  1
  In  In82  1  0.65079724  -0.00718971  0.23941176  1
  In  In83  1  0.16699778  0.83064124  0.00078804  1
  In  In84  1  0.00422032  0.00836767  0.73805913  1
  In  In85  1  0.33601604  0.66612033  0.74658722  1
  Cu  Cu86  1  0.33922479  0.33392417  0.49831298  1
  Cu  Cu87  1  0.83217262  0.81785580  0.24981983  1
  Cu  Cu88  1  0.49509533  0.16690129  0.25512143  1
  Cu  Cu89  1  0.84111865  0.17912498  0.73829482  1
  Cu  Cu90  1  0.66153518  0.34895902  -0.00067569  1
  Cu  Cu91  1  0.83321334  0.82911047  0.75229254  1
  Cu  Cu92  1  0.49980829  0.82891199  0.74369661  1
  Cu  Cu93  1  0.66957557  0.66656718  0.49647565  1
  Cu  Cu94  1  0.33288448  0.00476301  0.49922643  1
  Cu  Cu95  1  0.49124298  0.16037260  0.74384118  1
  Cu  Cu96  1  -0.00736182  0.33556667  -0.00432441  1
  Cu  Cu97  1  0.16747038  0.49756893  0.74013280  1
  Cu  Cu98  1  0.33705072  0.66915361  0.48896824  1
  Cu  Cu99  1  0.34088928  -0.00374201  0.00364511  1
  Cu  Cu100  1  0.17588128  0.49792540  0.25722600  1
  Cu  Cu101  1  0.16829491  0.16989188  0.73644711  1
  Cu  Cu102  1  0.49630836  0.49994491  0.74886451  1
  Cu  Cu103  1  0.00032654  0.67168574  0.49750248  1
  Cu  Cu104  1  0.65611881  -0.01140101  0.49797484  1
  Cu  Cu105  1  0.82843616  0.16066853  0.25817394  1
  Cu  Cu106  1  0.00385769  -0.00370595  0.00190080  1
  Cu  Cu107  1  0.66518114  0.33378275  0.50219795  1
  Cu  Cu108  1  -0.00844073  -0.00307940  0.49882457  1
  Cu  Cu109  1  0.16713282  0.17813444  0.25970026  1
  Cu  Cu110  1  0.33388999  0.34190219  0.00285670  1
  Cu  Cu111  1  0.83301327  0.49989846  0.74050264  1
  Cu  Cu112  1  0.66578127  0.66631454  0.00118152  1
  Cu  Cu113  1  -0.00627477  0.66479570  0.00225280  1
  Cu  Cu114  1  0.83698172  0.50581620  0.25374511  1
  Se  Se115  1  0.08638074  0.06709800  0.06416923  1
  Se  Se116  1  0.07831279  0.07551019  0.55236022  1
  Se  Se117  1  0.07460538  0.40801918  0.05968855  1
  Se  Se118  1  0.10685451  0.43072602  0.55251648  1
  Se  Se119  1  0.08085286  0.73761828  0.06182793  1
  Se  Se120  1  0.08569934  0.75534303  0.54810841  1
  Se  Se121  1  0.41680681  0.07823656  0.06370833  1
  Se  Se122  1  0.41948732  0.08455015  0.55286860  1
  Se  Se123  1  0.41486280  0.42300729  0.05755982  1
  Se  Se124  1  0.42224384  0.42037130  0.54967209  1
  Se  Se125  1  0.39990990  0.75491143  0.09149045  1
  Se  Se126  1  0.41474153  0.75112212  0.54921202  1
  Se  Se127  1  0.74721915  0.08691756  0.06036656  1
  Se  Se128  1  0.73989255  0.07189671  0.55147695  1
  Se  Se129  1  0.75166973  0.42324412  0.05252316  1
  Se  Se130  1  0.74840537  0.42161240  0.55096584  1
  Se  Se131  1  0.75769743  0.74501966  0.05009107  1
  Se  Se132  1  0.75079535  0.74791018  0.55393674  1
  Se  Se133  1  0.25648951  0.25793969  0.06134926  1
  Se  Se134  1  0.25610086  0.25213393  0.55365411  1
  Se  Se135  1  0.25844950  0.59680135  0.06383556  1
  Se  Se136  1  0.25448989  0.58579130  0.54406026  1
  Se  Se137  1  0.26261762  0.91140455  0.05950506  1
  Se  Se138  1  0.25077650  0.91815120  0.55116684  1
  Se  Se139  1  0.58702485  0.26307945  0.05845313  1
  Se  Se140  1  0.57956983  0.24913024  0.55096938  1
  Se  Se141  1  0.57935318  0.58637265  0.05523758  1
  Se  Se142  1  0.58435771  0.58539359  0.55097307  1
  Se  Se143  1  0.59418791  0.93606310  0.06992709  1
  Se  Se144  1  0.57556028  0.90591575  0.55338267  1
  Se  Se145  1  0.92046460  0.25627978  0.06187719  1
  Se  Se146  1  0.89236664  0.22873424  0.55559504  1
  Se  Se147  1  0.91473565  0.57836693  0.05561138  1
  Se  Se148  1  0.92032668  0.58584724  0.55167303  1
  Se  Se149  1  0.91334507  0.91495949  0.04749952  1
  Se  Se150  1  0.91008156  0.91173275  0.55118807  1
  Se  Se151  1  0.07659506  0.25510597  0.46382011  1
  Se  Se152  1  0.07718599  0.25788495  0.93860924  1
  Se  Se153  1  0.08473009  0.59117851  0.44319999  1
  Se  Se154  1  0.07727541  0.58847684  0.94117260  1
  Se  Se155  1  0.07718352  0.91843416  0.44406733  1
  Se  Se156  1  0.08332978  0.92513654  0.93540955  1
  Se  Se157  1  0.42054565  0.24696255  0.44642862  1
  Se  Se158  1  0.40779745  0.25888081  0.94006162  1
  Se  Se159  1  0.42117156  0.58208818  0.44141487  1
  Se  Se160  1  0.40727349  0.58791098  0.94559565  1
  Se  Se161  1  0.41013184  0.91709354  0.44463305  1
  Se  Se162  1  0.42345606  0.91444549  0.94909235  1
  Se  Se163  1  0.74759188  0.24813573  0.44975770  1
  Se  Se164  1  0.73750139  0.26533873  0.93801164  1
  Se  Se165  1  0.75617239  0.58202220  0.44706262  1
  Se  Se166  1  0.74833886  0.58351456  0.94546082  1
  Se  Se167  1  0.74310031  0.90817703  0.44557347  1
  Se  Se168  1  0.74874330  0.92017802  0.94364839  1
  Se  Se169  1  0.24735415  0.09131756  0.45002164  1
  Se  Se170  1  0.26192901  0.08076248  0.94577110  1
  Se  Se171  1  0.25857771  0.41968585  0.44523143  1
  Se  Se172  1  0.24837428  0.41248262  0.94042777  1
  Se  Se173  1  0.24927535  0.75336236  0.44180070  1
  Se  Se174  1  0.26287497  0.74175212  0.94352607  1
  Se  Se175  1  0.57722841  0.07746555  0.44679367  1
  Se  Se176  1  0.59486610  0.07603197  0.94307577  1
  Se  Se177  1  0.58583364  0.41672311  0.44603200  1
  Se  Se178  1  0.57488181  0.42602761  0.94535335  1
  Se  Se179  1  0.58274928  0.74524818  0.44245047  1
  Se  Se180  1  0.58027275  0.74963702  0.94905220  1
  Se  Se181  1  0.90805502  0.08069399  0.44735268  1
  Se  Se182  1  0.92978152  0.07924718  0.93848044  1
  Se  Se183  1  0.92874551  0.40846318  0.45365790  1
  Se  Se184  1  0.91186878  0.41905450  0.94300157  1
  Se  Se185  1  0.91522153  0.75135063  0.44266323  1
  Se  Se186  1  0.91677087  0.75066093  0.94637185  1
  Se  Se187  1  0.24919822  0.25910022  0.31315399  1
  Se  Se188  1  0.24924839  0.24876592  0.79798825  1
  Se  Se189  1  0.25720798  0.58712269  0.30529794  1
  Se  Se190  1  0.24145764  0.57558827  0.80687240  1
  Se  Se191  1  0.24768225  0.92564267  0.30368306  1
  Se  Se192  1  0.25434014  0.90684849  0.80078441  1
  Se  Se193  1  0.57726287  0.24297143  0.31433895  1
  Se  Se194  1  0.57165997  0.23918462  0.80610241  1
  Se  Se195  1  0.58592017  0.57957502  0.30139671  1
  Se  Se196  1  0.57880294  0.58380843  0.80183472  1
  Se  Se197  1  0.57310750  0.90843826  0.30952189  1
  Se  Se198  1  0.57592168  0.90661230  0.81062079  1
  Se  Se199  1  0.90879510  0.24038219  0.31596412  1
  Se  Se200  1  0.92358991  0.26007378  0.79294393  1
  Se  Se201  1  0.92378545  0.58441308  0.30642197  1
  Se  Se202  1  0.90851317  0.57850665  0.80787633  1
  Se  Se203  1  0.90555362  0.90184328  0.31209417  1
  Se  Se204  1  0.91728179  0.91367469  0.80465235  1
  Se  Se205  1  0.09054183  0.09697134  0.32055840  1
  Se  Se206  1  0.09662904  0.09193870  0.80651241  1
  Se  Se207  1  0.09629218  0.42431266  0.32207317  1
  Se  Se208  1  0.08115375  0.41939311  0.79610515  1
  Se  Se209  1  0.09402500  0.75492904  0.29841142  1
  Se  Se210  1  0.09593573  0.76142678  0.80235827  1
  Se  Se211  1  0.41025244  0.08386957  0.30663394  1
  Se  Se212  1  0.41493296  0.07709474  0.80245085  1
  Se  Se213  1  0.42234861  0.41694634  0.30158348  1
  Se  Se214  1  0.41431239  0.41395740  0.79926995  1
  Se  Se215  1  0.41553536  0.75180004  0.30700057  1
  Se  Se216  1  0.42469936  0.75108383  0.81031495  1
  Se  Se217  1  0.74304254  0.07774421  0.30849720  1
  Se  Se218  1  0.76563626  0.09638343  0.80017568  1
  Se  Se219  1  0.76084386  0.42500247  0.31638356  1
  Se  Se220  1  0.75408926  0.42445160  0.80705919  1
  Se  Se221  1  0.74664017  0.73937494  0.30336171  1
  Se  Se222  1  0.74715351  0.74931892  0.80432197  1
  Se  Se223  1  0.23970161  0.09663421  0.19711091  1
  Se  Se224  1  0.25315460  0.08149393  0.69206209  1
  Se  Se225  1  0.25671520  0.41756958  0.20021326  1
  Se  Se226  1  0.26064700  0.41927688  0.69426689  1
  Se  Se227  1  0.21066063  0.77426423  0.20857684  1
  Se  Se228  1  0.24491366  0.75242902  0.68737216  1
  Se  Se229  1  0.56258206  0.08869305  0.18655153  1
  Se  Se230  1  0.57894895  0.08444837  0.68885118  1
  Se  Se231  1  0.57870010  0.42481970  0.18930939  1
  Se  Se232  1  0.57630191  0.42306653  0.68551587  1
  Se  Se233  1  0.58650893  0.76154466  0.19221985  1
  Se  Se234  1  0.58446397  0.74553973  0.69421253  1
  Se  Se235  1  0.91057231  0.08351082  0.19927756  1
  Se  Se236  1  0.91754917  0.09655632  0.67940299  1
  Se  Se237  1  0.91163224  0.41687055  0.19619170  1
  Se  Se238  1  0.91979177  0.42096651  0.68884700  1
  Se  Se239  1  0.91858970  0.74105886  0.19453818  1
  Se  Se240  1  0.91406775  0.75595257  0.68821566  1
  Se  Se241  1  0.08236500  0.24722526  0.19481416  1
  Se  Se242  1  0.08572972  0.25124883  0.68175487  1
  Se  Se243  1  0.08730307  0.57341419  0.20237107  1
  Se  Se244  1  0.09014162  0.58271440  0.68404856  1
  Se  Se245  1  0.06830599  0.92158677  0.18538349  1
  Se  Se246  1  0.09299194  0.90940297  0.68970136  1
  Se  Se247  1  0.41328721  0.25529646  0.20415793  1
  Se  Se248  1  0.41371218  0.25021290  0.69364895  1
  Se  Se249  1  0.40398578  0.60336592  0.20015481  1
  Se  Se250  1  0.42201147  0.57872706  0.68335179  1
  Se  Se251  1  0.39874956  0.92826373  0.19938550  1
  Se  Se252  1  0.41503211  0.91212224  0.69402875  1
  Se  Se253  1  0.75188022  0.24570925  0.20108875  1
  Se  Se254  1  0.75101862  0.25243610  0.68313229  1
  Se  Se255  1  0.75076534  0.58071787  0.19711823  1
  Se  Se256  1  0.74790168  0.58716999  0.69588206  1
  Se  Se257  1  0.75980204  0.90849791  0.19185213  1
  Se  Se258  1  0.75583325  0.91115479  0.69139881  1
