# generated using pymatgen
data_In86Cu29Se144
_symmetry_space_group_name_H-M   'P 1'
_cell_length_a   17.58304013
_cell_length_b   17.58599078
_cell_length_c   23.44597462
_cell_angle_alpha   89.98337912
_cell_angle_beta   89.98854072
_cell_angle_gamma   90.01551814
_symmetry_Int_Tables_number   1
_chemical_formula_structural   In86Cu29Se144
_chemical_formula_sum   'In86 Cu29 Se144'
_cell_volume   7249.85058590
_cell_formula_units_Z   1
loop_
 _symmetry_equiv_pos_site_id
 _symmetry_equiv_pos_as_xyz
  1  'x, y, z'
loop_
 _atom_site_type_symbol
 _atom_site_label
 _atom_site_symmetry_multiplicity
 _atom_site_fract_x
 _atom_site_fract_y
 _atom_site_fract_z
 _atom_site_occupancy
  In  In0  1  -0.00068490  0.16666576  0.10880037  1
  In  In1  1  0.01124054  0.17514090  0.63633615  1
  In  In2  1  -0.00695684  0.51425975  0.12172154  1
  In  In3  1  0.01313644  0.48673852  0.63568904  1
  In  In4  1  0.00608842  0.81656719  0.12157912  1
  In  In5  1  -0.00903820  0.83755742  0.63243702  1
  In  In6  1  0.33645052  0.16505445  0.12208734  1
  In  In7  1  0.34713798  0.17208686  0.64825215  1
  In  In8  1  0.34023515  0.48469041  0.13027004  1
  In  In9  1  0.33216414  0.49905214  0.61246216  1
  In  In10  1  0.34054523  0.83850192  0.12857156  1
  In  In11  1  0.34580812  0.82314353  0.62367142  1
  In  In12  1  0.65208649  0.15641608  0.10967058  1
  In  In13  1  0.65946592  0.15853380  0.63862121  1
  In  In14  1  0.67201773  0.50344094  0.12032139  1
  In  In15  1  0.65632003  0.50618985  0.62476459  1
  In  In16  1  0.64113196  0.85158990  0.14769007  1
  In  In17  1  0.65288887  0.84042392  0.62640979  1
  In  In18  1  0.17421536  -0.01374602  0.37632883  1
  In  In19  1  0.18462282  -0.00964680  0.88342874  1
  In  In20  1  0.18689915  0.33768512  0.37701148  1
  In  In21  1  0.16193700  0.32533562  0.87350120  1
  In  In22  1  0.16535481  0.66219429  0.36946936  1
  In  In23  1  0.15990760  0.68260525  0.87809938  1
  In  In24  1  0.49896767  -0.00329054  0.36777168  1
  In  In25  1  0.49709416  0.00327337  0.87141607  1
  In  In26  1  0.48868546  0.34588322  0.38026220  1
  In  In27  1  0.50124021  0.33550913  0.87024236  1
  In  In28  1  0.50149721  0.67350023  0.36567031  1
  In  In29  1  0.50423281  0.66599475  0.89016822  1
  In  In30  1  0.80911971  -0.00625547  0.36891642  1
  In  In31  1  0.82820005  0.01436489  0.87806652  1
  In  In32  1  0.83270911  0.32931416  0.37737155  1
  In  In33  1  0.82756116  0.33623129  0.86862964  1
  In  In34  1  0.83562258  0.66752683  0.36652450  1
  In  In35  1  0.83372848  0.64626801  0.87543093  1
  In  In36  1  -0.00705237  0.17100844  0.37622573  1
  In  In37  1  -0.00893683  0.17684090  0.88454134  1
  In  In38  1  0.00113974  0.51694026  0.37530933  1
  In  In39  1  -0.01778594  0.48468177  0.85600922  1
  In  In40  1  0.01226575  0.82129344  0.37188953  1
  In  In41  1  0.02031056  0.83316965  0.87109492  1
  In  In42  1  0.34231641  0.17102807  0.36722244  1
  In  In43  1  0.34153426  0.16285036  0.87342510  1
  In  In44  1  0.33167892  0.50194867  0.37140377  1
  In  In45  1  0.34833601  0.50053498  0.87994224  1
  In  In46  1  0.35733634  0.84550525  0.35168283  1
  In  In47  1  0.32656338  0.84378424  0.88341579  1
  In  In48  1  0.66216715  0.15507586  0.36723481  1
  In  In49  1  0.65750895  0.17111481  0.86699622  1
  In  In50  1  0.65072890  0.51008375  0.38593496  1
  In  In51  1  0.67688275  0.49350384  0.88210149  1
  In  In52  1  0.64474616  0.82020611  0.35347870  1
  In  In53  1  0.64938328  0.83310376  0.87947536  1
  In  In54  1  0.17971344  0.01069574  0.11483056  1
  In  In55  1  0.16914924  0.01353102  0.62844352  1
  In  In56  1  0.17966798  0.33202393  0.12045637  1
  In  In57  1  0.17227954  0.33903216  0.63708847  1
  In  In58  1  0.16139553  0.67133770  0.12550395  1
  In  In59  1  0.18028694  0.65140939  0.62303275  1
  In  In60  1  0.49600673  0.00086238  0.12732846  1
  In  In61  1  0.49911859  -0.00522411  0.63632511  1
  In  In62  1  0.49624625  0.32523626  0.11707296  1
  In  In63  1  0.48918347  0.34525950  0.64410944  1
  In  In64  1  0.49786491  0.66652314  0.13016100  1
  In  In65  1  0.50254350  0.66160005  0.60880521  1
  In  In66  1  0.82045437  0.00145428  0.11761679  1
  In  In67  1  0.81373502  -0.00982648  0.63147519  1
  In  In68  1  0.82460725  0.33082188  0.11098545  1
  In  In69  1  0.83451663  0.34072177  0.64233182  1
  In  In70  1  0.83192580  0.66290087  0.12506183  1
  In  In71  1  0.83765058  0.67410269  0.62887601  1
  In  In72  1  0.00081632  0.00447291  0.75773195  1
  In  In73  1  0.81370270  0.82627523  0.49228818  1
  In  In74  1  0.49640485  0.16837315  0.50252351  1
  In  In75  1  0.83258345  0.82635502  0.00727782  1
  In  In76  1  0.33008794  0.66934950  0.74829372  1
  In  In77  1  0.00603403  -0.00546082  0.25056206  1
  In  In78  1  0.17445262  0.17325305  0.51572208  1
  In  In79  1  0.82585159  0.16606276  0.52151728  1
  In  In80  1  0.16049436  0.50121122  -0.00090945  1
  In  In81  1  0.00696847  0.33845255  0.23778159  1
  In  In82  1  0.67048837  0.66300257  0.74765467  1
  In  In83  1  0.66543953  0.33697590  0.25557158  1
  In  In84  1  0.17364030  0.82294083  0.49775099  1
  In  In85  1  0.83401146  0.50179892  0.49687378  1
  Cu  Cu86  1  0.34311935  0.66813124  0.48719558  1
  Cu  Cu87  1  0.83101548  0.50769702  0.24980819  1
  Cu  Cu88  1  0.49518639  0.16590470  0.24102279  1
  Cu  Cu89  1  0.00771302  0.66050165  0.50407287  1
  Cu  Cu90  1  0.82923708  0.83259317  0.75436199  1
  Cu  Cu91  1  0.34297547  0.00179833  0.00122597  1
  Cu  Cu92  1  0.66362929  0.33522038  -0.00920731  1
  Cu  Cu93  1  0.33553211  0.66880883  0.00475741  1
  Cu  Cu94  1  -0.01915280  0.00145478  0.49759240  1
  Cu  Cu95  1  0.01640420  0.33967730  0.50804726  1
  Cu  Cu96  1  0.83082499  0.16794706  0.75644888  1
  Cu  Cu97  1  0.17593155  0.50413622  0.75098134  1
  Cu  Cu98  1  -0.00636752  0.33550925  -0.00816059  1
  Cu  Cu99  1  0.49121613  0.83362114  0.75409944  1
  Cu  Cu100  1  0.17285974  0.83121126  0.24786068  1
  Cu  Cu101  1  0.50129626  0.50301515  0.75075533  1
  Cu  Cu102  1  0.16743512  0.50155453  0.24597556  1
  Cu  Cu103  1  -0.00365179  0.66452929  -0.00467379  1
  Cu  Cu104  1  0.66243037  0.00332754  -0.00032378  1
  Cu  Cu105  1  0.17112918  0.16860885  0.75864432  1
  Cu  Cu106  1  0.83707051  0.83045117  0.24048480  1
  Cu  Cu107  1  0.17753097  0.15981133  0.24746221  1
  Cu  Cu108  1  0.82933928  0.16552050  0.23902598  1
  Cu  Cu109  1  0.00573676  -0.00283337  -0.00674735  1
  Cu  Cu110  1  0.33467724  -0.00051468  0.49716147  1
  Cu  Cu111  1  0.49795950  0.50198399  0.25254320  1
  Cu  Cu112  1  0.33704291  0.32403962  -0.00183170  1
  Cu  Cu113  1  0.66226410  0.67133901  0.00765257  1
  Cu  Cu114  1  0.66590043  0.32429755  0.50690871  1
  Se  Se115  1  0.08827724  0.08357681  0.04668698  1
  Se  Se116  1  0.06618200  0.07767811  0.55769867  1
  Se  Se117  1  0.07075399  0.40886137  0.06114304  1
  Se  Se118  1  0.09966494  0.42078062  0.55991973  1
  Se  Se119  1  0.08554995  0.74412126  0.04589425  1
  Se  Se120  1  0.07798952  0.74884034  0.56456468  1
  Se  Se121  1  0.42465895  0.08716926  0.05353134  1
  Se  Se122  1  0.40513563  0.08039535  0.56405807  1
  Se  Se123  1  0.41484635  0.41382740  0.05085832  1
  Se  Se124  1  0.43631344  0.42243983  0.56010630  1
  Se  Se125  1  0.41868464  0.75073362  0.05878001  1
  Se  Se126  1  0.41960127  0.75189380  0.54577883  1
  Se  Se127  1  0.75278365  0.08871476  0.04482443  1
  Se  Se128  1  0.72744830  0.06698448  0.55934149  1
  Se  Se129  1  0.74581557  0.41969314  0.04606646  1
  Se  Se130  1  0.75097817  0.40767376  0.56007173  1
  Se  Se131  1  0.73419246  0.75486029  0.07120678  1
  Se  Se132  1  0.73651612  0.74074982  0.56375083  1
  Se  Se133  1  0.25033273  0.24380044  0.05041377  1
  Se  Se134  1  0.27030573  0.25794235  0.57223217  1
  Se  Se135  1  0.25464280  0.58232258  0.06182910  1
  Se  Se136  1  0.25797569  0.58916412  0.54300693  1
  Se  Se137  1  0.25854557  0.91626242  0.05370459  1
  Se  Se138  1  0.25259736  0.92316506  0.55960918  1
  Se  Se139  1  0.58128550  0.25189578  0.04489825  1
  Se  Se140  1  0.58398399  0.25220585  0.56881940  1
  Se  Se141  1  0.57893543  0.58342405  0.05787178  1
  Se  Se142  1  0.58852057  0.57839996  0.54549280  1
  Se  Se143  1  0.58614447  0.92084566  0.05922896  1
  Se  Se144  1  0.56382989  0.91228034  0.55903324  1
  Se  Se145  1  0.91080256  0.24883869  0.04554329  1
  Se  Se146  1  0.92875406  0.26194283  0.56543937  1
  Se  Se147  1  0.90902075  0.58551412  0.04821372  1
  Se  Se148  1  0.92499131  0.58339439  0.56368826  1
  Se  Se149  1  0.92801842  0.92197391  0.06087163  1
  Se  Se150  1  0.90632539  0.91745952  0.55716523  1
  Se  Se151  1  0.08253654  0.25160427  0.44444257  1
  Se  Se152  1  0.08603995  0.25130200  0.95068862  1
  Se  Se153  1  0.09120452  0.58319293  0.44746965  1
  Se  Se154  1  0.07156264  0.58145068  0.93336421  1
  Se  Se155  1  0.07167735  0.92095679  0.44630278  1
  Se  Se156  1  0.09109214  0.91038062  0.94818986  1
  Se  Se157  1  0.40161272  0.25888297  0.44783148  1
  Se  Se158  1  0.42312555  0.24903811  0.94131045  1
  Se  Se159  1  0.42398780  0.58311115  0.43468673  1
  Se  Se160  1  0.41850969  0.58201247  0.95522483  1
  Se  Se161  1  0.41342140  0.91951940  0.43863598  1
  Se  Se162  1  0.42330050  0.91699688  0.94612302  1
  Se  Se163  1  0.74306103  0.24538964  0.44331025  1
  Se  Se164  1  0.74450195  0.25118054  0.93586347  1
  Se  Se165  1  0.74717152  0.59990212  0.44364140  1
  Se  Se166  1  0.74408343  0.58977154  0.95182301  1
  Se  Se167  1  0.72559001  0.92070601  0.44059493  1
  Se  Se168  1  0.74580910  0.91873159  0.94422497  1
  Se  Se169  1  0.25213526  0.08369485  0.44188264  1
  Se  Se170  1  0.25790999  0.08495444  0.94762393  1
  Se  Se171  1  0.25299642  0.42444534  0.44740706  1
  Se  Se172  1  0.25544009  0.41139608  0.94254753  1
  Se  Se173  1  0.26380869  0.75156498  0.42729484  1
  Se  Se174  1  0.25160956  0.74830555  0.94940260  1
  Se  Se175  1  0.58455300  0.07757305  0.44350397  1
  Se  Se176  1  0.58351641  0.08411053  0.94025045  1
  Se  Se177  1  0.58799825  0.40623728  0.44837048  1
  Se  Se178  1  0.57673466  0.42094113  0.94251393  1
  Se  Se179  1  0.58229706  0.75399958  0.43782829  1
  Se  Se180  1  0.57882054  0.75715842  0.95748112  1
  Se  Se181  1  0.90272118  0.08349140  0.44002805  1
  Se  Se182  1  0.91604732  0.08240452  0.94976195  1
  Se  Se183  1  0.93163435  0.40744487  0.44218641  1
  Se  Se184  1  0.91199161  0.41935195  0.93973442  1
  Se  Se185  1  0.92535786  0.74160391  0.44493611  1
  Se  Se186  1  0.91950558  0.75018581  0.93580077  1
  Se  Se187  1  0.25119846  0.25049652  0.30233904  1
  Se  Se188  1  0.25740744  0.25350340  0.80773465  1
  Se  Se189  1  0.25050961  0.58414459  0.30000183  1
  Se  Se190  1  0.24815305  0.58154637  0.81757244  1
  Se  Se191  1  0.25167913  0.92195005  0.29708477  1
  Se  Se192  1  0.24267301  0.90511461  0.80545832  1
  Se  Se193  1  0.56834161  0.24507072  0.30982174  1
  Se  Se194  1  0.57210906  0.24806993  0.79665904  1
  Se  Se195  1  0.58807916  0.58074463  0.30246032  1
  Se  Se196  1  0.57824859  0.58183706  0.81292844  1
  Se  Se197  1  0.59230081  0.93295746  0.29630390  1
  Se  Se198  1  0.58090974  0.91397987  0.80366345  1
  Se  Se199  1  0.90845154  0.24654740  0.29844314  1
  Se  Se200  1  0.91872226  0.24993103  0.80534911  1
  Se  Se201  1  0.92245680  0.58744042  0.29864330  1
  Se  Se202  1  0.92685912  0.59856789  0.79977958  1
  Se  Se203  1  0.91181433  0.90692698  0.31096574  1
  Se  Se204  1  0.90769553  0.91208210  0.81607430  1
  Se  Se205  1  0.09214560  0.09093929  0.31253062  1
  Se  Se206  1  0.08854674  0.09036624  0.82076199  1
  Se  Se207  1  0.08636156  0.42148852  0.30940384  1
  Se  Se208  1  0.09377680  0.41855239  0.80345206  1
  Se  Se209  1  0.08651856  0.74617010  0.29670372  1
  Se  Se210  1  0.08507258  0.74739130  0.79759216  1
  Se  Se211  1  0.41655275  0.08264076  0.30001033  1
  Se  Se212  1  0.39902449  0.06503044  0.80238806  1
  Se  Se213  1  0.41325795  0.41481750  0.30152475  1
  Se  Se214  1  0.41481329  0.42034133  0.80204871  1
  Se  Se215  1  0.42233790  0.74625961  0.28872389  1
  Se  Se216  1  0.42033782  0.74846696  0.81596858  1
  Se  Se217  1  0.74758842  0.08362749  0.29432639  1
  Se  Se218  1  0.74508510  0.08157920  0.80292591  1
  Se  Se219  1  0.75681494  0.42929160  0.31569848  1
  Se  Se220  1  0.75140686  0.42816343  0.80261025  1
  Se  Se221  1  0.75513841  0.75173184  0.29914103  1
  Se  Se222  1  0.75092909  0.75335827  0.81710486  1
  Se  Se223  1  0.25883805  0.07755127  0.19357954  1
  Se  Se224  1  0.25029630  0.08523571  0.70239939  1
  Se  Se225  1  0.24715320  0.41056535  0.19824347  1
  Se  Se226  1  0.26366221  0.42683394  0.69554523  1
  Se  Se227  1  0.25165739  0.74907184  0.19067194  1
  Se  Se228  1  0.23943641  0.75874188  0.68869352  1
  Se  Se229  1  0.58613147  0.08674989  0.19294197  1
  Se  Se230  1  0.57782102  0.07665149  0.70523189  1
  Se  Se231  1  0.57719717  0.42024530  0.18997580  1
  Se  Se232  1  0.59128330  0.42220354  0.70099613  1
  Se  Se233  1  0.58466707  0.73954763  0.20218685  1
  Se  Se234  1  0.56766597  0.74705096  0.69387302  1
  Se  Se235  1  0.91838859  0.08587352  0.18679403  1
  Se  Se236  1  0.90786014  0.08669868  0.69071547  1
  Se  Se237  1  0.90198255  0.42181088  0.18689179  1
  Se  Se238  1  0.92682931  0.41419801  0.70536761  1
  Se  Se239  1  0.92030181  0.74430638  0.19259193  1
  Se  Se240  1  0.91574831  0.75229274  0.70255188  1
  Se  Se241  1  0.09190004  0.23447363  0.18707456  1
  Se  Se242  1  0.08914443  0.25520148  0.70637759  1
  Se  Se243  1  0.08184525  0.58186739  0.19317268  1
  Se  Se244  1  0.09211559  0.58424714  0.69555794  1
  Se  Se245  1  0.09246896  0.91142200  0.18464459  1
  Se  Se246  1  0.08852265  0.91738984  0.69327122  1
  Se  Se247  1  0.41381151  0.25398645  0.19223854  1
  Se  Se248  1  0.44983262  0.23409820  0.71126162  1
  Se  Se249  1  0.41211645  0.57907405  0.19609213  1
  Se  Se250  1  0.42330178  0.58326515  0.68832474  1
  Se  Se251  1  0.42851701  0.91062266  0.19933066  1
  Se  Se252  1  0.40627158  0.91211353  0.69892246  1
  Se  Se253  1  0.74442863  0.24744536  0.18507263  1
  Se  Se254  1  0.74904504  0.24690391  0.69819768  1
  Se  Se255  1  0.74512252  0.58520224  0.19527417  1
  Se  Se256  1  0.76261566  0.57289464  0.69105185  1
  Se  Se257  1  0.75560334  0.92244012  0.19617523  1
  Se  Se258  1  0.73829833  0.90810050  0.70254538  1
