# generated using pymatgen
data_In86Cu29Se144
_symmetry_space_group_name_H-M   'P 1'
_cell_length_a   17.58583421
_cell_length_b   17.58366658
_cell_length_c   23.45004145
_cell_angle_alpha   89.98036968
_cell_angle_beta   89.98849370
_cell_angle_gamma   90.00640402
_symmetry_Int_Tables_number   1
_chemical_formula_structural   In86Cu29Se144
_chemical_formula_sum   'In86 Cu29 Se144'
_cell_volume   7251.30199002
_cell_formula_units_Z   1
loop_
 _symmetry_equiv_pos_site_id
 _symmetry_equiv_pos_as_xyz
  1  'x, y, z'
loop_
 _atom_site_type_symbol
 _atom_site_label
 _atom_site_symmetry_multiplicity
 _atom_site_fract_x
 _atom_site_fract_y
 _atom_site_fract_z
 _atom_site_occupancy
  In  In0  1  -0.01753406  0.18442498  0.14309625  1
  In  In1  1  -0.01833343  0.17305444  0.61576409  1
  In  In2  1  -0.00189556  0.50556191  0.11969396  1
  In  In3  1  0.00370778  0.50632180  0.62471980  1
  In  In4  1  0.00013978  0.82954025  0.13606972  1
  In  In5  1  -0.00935373  0.82375257  0.61769158  1
  In  In6  1  0.34599833  0.17867301  0.12919219  1
  In  In7  1  0.34112450  0.16164323  0.62822714  1
  In  In8  1  0.33098648  0.50511944  0.12202986  1
  In  In9  1  0.31554610  0.50378730  0.64553085  1
  In  In10  1  0.32869372  0.81772162  0.12106496  1
  In  In11  1  0.33399813  0.83203017  0.62457835  1
  In  In12  1  0.67768955  0.15164215  0.13295546  1
  In  In13  1  0.67384610  0.17855644  0.61327637  1
  In  In14  1  0.66717308  0.50194214  0.11365623  1
  In  In15  1  0.66919957  0.49455287  0.63488583  1
  In  In16  1  0.66590460  0.84996310  0.12110754  1
  In  In17  1  0.66396651  0.82838162  0.62307957  1
  In  In18  1  0.15021961  -0.00302987  0.37491673  1
  In  In19  1  0.17084057  -0.01311465  0.87515370  1
  In  In20  1  0.16692097  0.33543419  0.36644598  1
  In  In21  1  0.18278805  0.34036260  0.87031588  1
  In  In22  1  0.17271828  0.67503085  0.37292235  1
  In  In23  1  0.15421768  0.64649683  0.85540295  1
  In  In24  1  0.52537515  0.00240589  0.37437459  1
  In  In25  1  0.49661188  0.00688059  0.87559542  1
  In  In26  1  0.48750474  0.33030853  0.37496691  1
  In  In27  1  0.51012896  0.33855664  0.86975987  1
  In  In28  1  0.49131117  0.67555494  0.37380191  1
  In  In29  1  0.49948366  0.66410184  0.87411295  1
  In  In30  1  0.83310648  -0.00155232  0.37646439  1
  In  In31  1  0.83446005  0.00382711  0.88151049  1
  In  In32  1  0.85547317  0.32020519  0.39097330  1
  In  In33  1  0.83134897  0.34166780  0.87926155  1
  In  In34  1  0.84822569  0.65190006  0.38393258  1
  In  In35  1  0.82764523  0.65802242  0.86844908  1
  In  In36  1  -0.01226933  0.16289938  0.36309819  1
  In  In37  1  -0.00948138  0.16127124  0.88276296  1
  In  In38  1  -0.00579709  0.49379752  0.36550563  1
  In  In39  1  -0.00576005  0.51187131  0.88749120  1
  In  In40  1  -0.00093758  0.82844873  0.37804337  1
  In  In41  1  0.01255404  0.82118217  0.87592600  1
  In  In42  1  0.33209054  0.17873839  0.37856337  1
  In  In43  1  0.34553687  0.17116266  0.86424070  1
  In  In44  1  0.32980163  0.50100053  0.36818256  1
  In  In45  1  0.33268596  0.50344123  0.87465289  1
  In  In46  1  0.33120013  0.81561352  0.37651565  1
  In  In47  1  0.33784615  0.83319717  0.86847541  1
  In  In48  1  0.69155525  0.13701549  0.40132021  1
  In  In49  1  0.66496649  0.17976907  0.87544009  1
  In  In50  1  0.67795355  0.51052405  0.37551818  1
  In  In51  1  0.66605633  0.49716710  0.87542947  1
  In  In52  1  0.67398906  0.85313791  0.37323399  1
  In  In53  1  0.67287269  0.81605438  0.87389075  1
  In  In54  1  0.15651986  -0.01035682  0.12737728  1
  In  In55  1  0.18326742  -0.00363939  0.62190524  1
  In  In56  1  0.15588535  0.35027312  0.13075942  1
  In  In57  1  0.16614553  0.34758537  0.62928378  1
  In  In58  1  0.16732971  0.66485685  0.12596658  1
  In  In59  1  0.15994186  0.66669970  0.63046636  1
  In  In60  1  0.51677466  0.00348761  0.12218470  1
  In  In61  1  0.49175926  -0.00557201  0.62102071  1
  In  In62  1  0.49113995  0.33782995  0.12517891  1
  In  In63  1  0.50148965  0.33442062  0.63297015  1
  In  In64  1  0.49010188  0.65818007  0.11239971  1
  In  In65  1  0.49815166  0.66842078  0.63393876  1
  In  In66  1  0.82209639  0.01398731  0.14386837  1
  In  In67  1  0.82577864  0.00228997  0.60932077  1
  In  In68  1  0.83645087  0.33944520  0.12120745  1
  In  In69  1  0.82569541  0.32572194  0.61317353  1
  In  In70  1  0.84432753  0.66116791  0.12508756  1
  In  In71  1  0.83508749  0.66260956  0.62682938  1
  In  In72  1  0.66432356  -0.00232074  0.74189490  1
  In  In73  1  0.00296830  -0.00408688  0.75350053  1
  In  In74  1  0.33149589  0.00297925  0.24676101  1
  In  In75  1  0.00221757  0.33453263  0.74768729  1
  In  In76  1  0.16123783  0.50262260  0.50885832  1
  In  In77  1  0.50715298  0.83877984  0.50171850  1
  In  In78  1  0.16382036  0.17147080  0.00356028  1
  In  In79  1  0.49637852  0.50043672  0.50576064  1
  In  In80  1  0.66676461  0.32828190  0.25473318  1
  In  In81  1  0.15943767  0.16432655  0.49538661  1
  In  In82  1  0.83150072  0.82812349  0.00109611  1
  In  In83  1  0.66393535  0.67431677  0.25031941  1
  In  In84  1  0.16630202  0.82633484  0.00313083  1
  In  In85  1  0.50974636  0.17245059  0.00105136  1
  Cu  Cu86  1  0.84092995  0.82147186  0.74850373  1
  Cu  Cu87  1  0.17139572  0.16338088  0.74597239  1
  Cu  Cu88  1  0.67450358  0.67090758  0.50221424  1
  Cu  Cu89  1  0.83084724  0.49805953  0.75311259  1
  Cu  Cu90  1  0.50319143  0.16937574  0.25226610  1
  Cu  Cu91  1  0.16737280  0.50410498  0.24607478  1
  Cu  Cu92  1  0.00136073  0.66590112  0.50164118  1
  Cu  Cu93  1  0.16133340  0.82967489  0.25204654  1
  Cu  Cu94  1  0.67254697  0.33334476  -0.00158328  1
  Cu  Cu95  1  0.33730220  -0.00776361  0.49961703  1
  Cu  Cu96  1  0.49079505  0.50302329  0.24442608  1
  Cu  Cu97  1  0.49784582  0.16723058  0.74832861  1
  Cu  Cu98  1  0.50162878  0.83006266  0.74809402  1
  Cu  Cu99  1  0.17316580  0.83162593  0.74803055  1
  Cu  Cu100  1  0.83565802  0.83311172  0.25405583  1
  Cu  Cu101  1  -0.00034338  -0.00552396  0.49415534  1
  Cu  Cu102  1  -0.01254039  0.00361076  0.00891022  1
  Cu  Cu103  1  0.33384595  0.34559823  0.00069125  1
  Cu  Cu104  1  0.84019138  0.49698825  0.24830128  1
  Cu  Cu105  1  0.33162891  0.66541109  -0.00706409  1
  Cu  Cu106  1  0.33199681  0.33366100  0.50449570  1
  Cu  Cu107  1  0.82658388  0.17041881  0.74224896  1
  Cu  Cu108  1  0.33751817  0.00118688  -0.00919898  1
  Cu  Cu109  1  0.65973516  0.34162418  0.50485423  1
  Cu  Cu110  1  0.00013509  0.33556817  0.00659640  1
  Cu  Cu111  1  0.16793182  0.17128074  0.25491534  1
  Cu  Cu112  1  0.66387252  0.66346121  -0.00681886  1
  Cu  Cu113  1  0.49855190  0.49985760  0.75621342  1
  Cu  Cu114  1  0.49460518  0.83171764  0.24872875  1
  Se  Se115  1  0.07408646  0.08285509  0.06416023  1
  Se  Se116  1  0.07491634  0.07298088  0.56130093  1
  Se  Se117  1  0.08626587  0.42303613  0.05108860  1
  Se  Se118  1  0.06844166  0.40196350  0.55480594  1
  Se  Se119  1  0.06855667  0.74227966  0.05833605  1
  Se  Se120  1  0.08657380  0.74717770  0.55492427  1
  Se  Se121  1  0.41048920  0.08186144  0.05626944  1
  Se  Se122  1  0.41386381  0.08126335  0.55221509  1
  Se  Se123  1  0.42080686  0.42450176  0.05388299  1
  Se  Se124  1  0.40213080  0.41763348  0.56782780  1
  Se  Se125  1  0.41338619  0.75141122  0.04605687  1
  Se  Se126  1  0.41778699  0.74263922  0.55479544  1
  Se  Se127  1  0.74878305  0.07192620  0.05898253  1
  Se  Se128  1  0.75424088  0.09586742  0.54537163  1
  Se  Se129  1  0.75489413  0.41955088  0.05024317  1
  Se  Se130  1  0.74478788  0.42460894  0.55566039  1
  Se  Se131  1  0.73908219  0.73878636  0.06231739  1
  Se  Se132  1  0.75560285  0.75204615  0.55818767  1
  Se  Se133  1  0.25728256  0.26167135  0.06134781  1
  Se  Se134  1  0.24687656  0.25265030  0.56115629  1
  Se  Se135  1  0.24857723  0.58828456  0.05268632  1
  Se  Se136  1  0.25956263  0.58836979  0.56195113  1
  Se  Se137  1  0.25752543  0.92674289  0.05592462  1
  Se  Se138  1  0.25263294  0.90890590  0.54988515  1
  Se  Se139  1  0.59721901  0.25758566  0.06717474  1
  Se  Se140  1  0.57451627  0.25806016  0.55525617  1
  Se  Se141  1  0.57984327  0.57981027  0.04673376  1
  Se  Se142  1  0.59000891  0.59239178  0.56105007  1
  Se  Se143  1  0.57598862  0.91371916  0.04906023  1
  Se  Se144  1  0.59934379  0.93231920  0.55571484  1
  Se  Se145  1  0.91780605  0.24770055  0.05602867  1
  Se  Se146  1  0.91370763  0.25459005  0.54233071  1
  Se  Se147  1  0.90764413  0.57788969  0.04987655  1
  Se  Se148  1  0.91815863  0.58224120  0.55499765  1
  Se  Se149  1  0.91503868  0.91590177  0.06695133  1
  Se  Se150  1  0.91561237  0.91496256  0.55107368  1
  Se  Se151  1  0.07652003  0.25486117  0.43381678  1
  Se  Se152  1  0.07798374  0.26068619  0.93867761  1
  Se  Se153  1  0.07926364  0.58586910  0.43855835  1
  Se  Se154  1  0.09199261  0.59126766  0.94493620  1
  Se  Se155  1  0.08641883  0.90860042  0.44857563  1
  Se  Se156  1  0.07101414  0.92578135  0.94832238  1
  Se  Se157  1  0.41551755  0.25091021  0.45250428  1
  Se  Se158  1  0.41203433  0.25818403  0.94334792  1
  Se  Se159  1  0.40809572  0.58805551  0.44221896  1
  Se  Se160  1  0.41939869  0.58097731  0.94503725  1
  Se  Se161  1  0.41684858  0.92047388  0.43270499  1
  Se  Se162  1  0.41819698  0.91555387  0.94015278  1
  Se  Se163  1  0.74123676  0.26242725  0.44621940  1
  Se  Se164  1  0.75467840  0.24855128  0.94599692  1
  Se  Se165  1  0.75439995  0.58104923  0.45279454  1
  Se  Se166  1  0.75103528  0.58064628  0.94374198  1
  Se  Se167  1  0.75070759  0.92071278  0.44964369  1
  Se  Se168  1  0.74074407  0.91872731  0.94141565  1
  Se  Se169  1  0.25531513  0.07242387  0.43894310  1
  Se  Se170  1  0.25453838  0.08503692  0.93753714  1
  Se  Se171  1  0.25242126  0.41285225  0.44384668  1
  Se  Se172  1  0.24764016  0.42356763  0.94676787  1
  Se  Se173  1  0.24928252  0.74668246  0.45013810  1
  Se  Se174  1  0.24871945  0.74477103  0.93360522  1
  Se  Se175  1  0.56661961  0.09710679  0.45055846  1
  Se  Se176  1  0.59578726  0.07789525  0.94254761  1
  Se  Se177  1  0.58509212  0.41892263  0.43782409  1
  Se  Se178  1  0.58433553  0.41356442  0.94681893  1
  Se  Se179  1  0.59445498  0.74553843  0.43806162  1
  Se  Se180  1  0.58090450  0.75013853  0.94423105  1
  Se  Se181  1  0.92171789  0.08334784  0.44253892  1
  Se  Se182  1  0.90685649  0.08758913  0.95491501  1
  Se  Se183  1  0.90738389  0.43730511  0.44358127  1
  Se  Se184  1  0.91698428  0.41641365  0.94949242  1
  Se  Se185  1  0.91530088  0.74967096  0.45013903  1
  Se  Se186  1  0.92047401  0.74028396  0.93968855  1
  Se  Se187  1  0.25677315  0.25365074  0.30213739  1
  Se  Se188  1  0.25114151  0.24737941  0.80148000  1
  Se  Se189  1  0.24867864  0.58684975  0.30237649  1
  Se  Se190  1  0.26885725  0.59452699  0.80122773  1
  Se  Se191  1  0.24583458  0.91159245  0.30962893  1
  Se  Se192  1  0.25292879  0.91853182  0.80063687  1
  Se  Se193  1  0.58208846  0.24081683  0.31845778  1
  Se  Se194  1  0.58469863  0.24886521  0.79988117  1
  Se  Se195  1  0.57290644  0.57769994  0.30818279  1
  Se  Se196  1  0.58624169  0.58271804  0.80626978  1
  Se  Se197  1  0.58294645  0.91319758  0.29775225  1
  Se  Se198  1  0.58154051  0.91044459  0.80908031  1
  Se  Se199  1  0.91569235  0.26144193  0.30188709  1
  Se  Se200  1  0.91130013  0.24133443  0.80627837  1
  Se  Se201  1  0.91832288  0.58770152  0.29932172  1
  Se  Se202  1  0.91963907  0.57804873  0.80436678  1
  Se  Se203  1  0.91870279  0.91418724  0.30929572  1
  Se  Se204  1  0.91032834  0.90537836  0.81332351  1
  Se  Se205  1  0.08394007  0.08363474  0.30179602  1
  Se  Se206  1  0.09131984  0.09183484  0.81236474  1
  Se  Se207  1  0.08484883  0.41801761  0.29868038  1
  Se  Se208  1  0.08079998  0.42204863  0.81501497  1
  Se  Se209  1  0.07884450  0.74589084  0.30553035  1
  Se  Se210  1  0.08221426  0.74995844  0.79562323  1
  Se  Se211  1  0.42006412  0.08764510  0.31163121  1
  Se  Se212  1  0.41803275  0.07695666  0.79815662  1
  Se  Se213  1  0.41593636  0.41747097  0.30311631  1
  Se  Se214  1  0.41471652  0.41384230  0.80738185  1
  Se  Se215  1  0.41095213  0.74681528  0.29803313  1
  Se  Se216  1  0.41915638  0.74693696  0.80208666  1
  Se  Se217  1  0.74559438  0.08014530  0.30994537  1
  Se  Se218  1  0.75359841  0.08619856  0.80562142  1
  Se  Se219  1  0.75888472  0.42095198  0.30995823  1
  Se  Se220  1  0.74827716  0.41243373  0.80492505  1
  Se  Se221  1  0.75783014  0.75020910  0.31587068  1
  Se  Se222  1  0.74943458  0.74336722  0.79780938  1
  Se  Se223  1  0.24142294  0.09449220  0.18611652  1
  Se  Se224  1  0.25507415  0.07855649  0.69553034  1
  Se  Se225  1  0.25440763  0.42049892  0.19460082  1
  Se  Se226  1  0.24603168  0.40582538  0.70873026  1
  Se  Se227  1  0.24626433  0.75045000  0.19667801  1
  Se  Se228  1  0.25352285  0.74752086  0.69330495  1
  Se  Se229  1  0.58340732  0.08194762  0.20113261  1
  Se  Se230  1  0.57802064  0.09214248  0.68377319  1
  Se  Se231  1  0.58218546  0.42592563  0.19195940  1
  Se  Se232  1  0.58254405  0.41629842  0.70239305  1
  Se  Se233  1  0.57392931  0.75435574  0.18408258  1
  Se  Se234  1  0.58946015  0.74911734  0.69746339  1
  Se  Se235  1  0.93332874  0.07007895  0.20044860  1
  Se  Se236  1  0.90880526  0.08259783  0.69088865  1
  Se  Se237  1  0.92133861  0.41728591  0.19084073  1
  Se  Se238  1  0.90679279  0.41839743  0.68803491  1
  Se  Se239  1  0.91274131  0.74534795  0.20012073  1
  Se  Se240  1  0.92585433  0.74095822  0.69558946  1
  Se  Se241  1  0.08738978  0.25561530  0.19908932  1
  Se  Se242  1  0.08573666  0.23581680  0.68594606  1
  Se  Se243  1  0.08050159  0.58430572  0.19281345  1
  Se  Se244  1  0.10141069  0.56076946  0.69421905  1
  Se  Se245  1  0.07909003  0.91779413  0.20350432  1
  Se  Se246  1  0.08922927  0.91121128  0.68774359  1
  Se  Se247  1  0.42142061  0.25731862  0.20291126  1
  Se  Se248  1  0.41228530  0.25213047  0.69790716  1
  Se  Se249  1  0.41255109  0.59075600  0.19214389  1
  Se  Se250  1  0.41745005  0.58264075  0.70059284  1
  Se  Se251  1  0.41837846  0.91280185  0.18490417  1
  Se  Se252  1  0.41825936  0.91358279  0.69448423  1
  Se  Se253  1  0.76200115  0.24543675  0.19464617  1
  Se  Se254  1  0.74556039  0.25610297  0.69141772  1
  Se  Se255  1  0.75004780  0.57541235  0.19363722  1
  Se  Se256  1  0.75059543  0.58452241  0.69852926  1
  Se  Se257  1  0.74653408  0.91144460  0.20159300  1
  Se  Se258  1  0.76515453  0.90913654  0.69007433  1
