# generated using pymatgen
data_In86Cu29Se144
_symmetry_space_group_name_H-M   'P 1'
_cell_length_a   17.57751710
_cell_length_b   17.57236526
_cell_length_c   23.43997099
_cell_angle_alpha   90.00803092
_cell_angle_beta   89.99360362
_cell_angle_gamma   90.00345219
_symmetry_Int_Tables_number   1
_chemical_formula_structural   In86Cu29Se144
_chemical_formula_sum   'In86 Cu29 Se144'
_cell_volume   7240.10414106
_cell_formula_units_Z   1
loop_
 _symmetry_equiv_pos_site_id
 _symmetry_equiv_pos_as_xyz
  1  'x, y, z'
loop_
 _atom_site_type_symbol
 _atom_site_label
 _atom_site_symmetry_multiplicity
 _atom_site_fract_x
 _atom_site_fract_y
 _atom_site_fract_z
 _atom_site_occupancy
  In  In0  1  0.00693060  0.18262698  0.11934467  1
  In  In1  1  0.00448802  0.17947127  0.62350675  1
  In  In2  1  0.00227845  0.49884346  0.12054792  1
  In  In3  1  0.00156717  0.49239524  0.63420173  1
  In  In4  1  0.00734693  0.81686874  0.12133630  1
  In  In5  1  -0.00518991  0.83901972  0.62449254  1
  In  In6  1  0.32855756  0.17759420  0.13602535  1
  In  In7  1  0.33722179  0.16432616  0.62792296  1
  In  In8  1  0.32323438  0.50700966  0.13129562  1
  In  In9  1  0.34384577  0.48612633  0.63906885  1
  In  In10  1  0.32693717  0.84128188  0.12873510  1
  In  In11  1  0.33361428  0.83886903  0.63050903  1
  In  In12  1  0.67650675  0.16950669  0.12528371  1
  In  In13  1  0.65684129  0.16153773  0.61939197  1
  In  In14  1  0.66867928  0.49144578  0.12152057  1
  In  In15  1  0.65966470  0.51139898  0.62832323  1
  In  In16  1  0.67748589  0.84122353  0.12881860  1
  In  In17  1  0.67079535  0.82648761  0.62414345  1
  In  In18  1  0.17176899  -0.00617131  0.37185626  1
  In  In19  1  0.17733101  -0.00515561  0.88362927  1
  In  In20  1  0.17331945  0.34025181  0.36657668  1
  In  In21  1  0.16361843  0.33454894  0.87921405  1
  In  In22  1  0.16016797  0.66089275  0.36508523  1
  In  In23  1  0.17454065  0.64855629  0.89754319  1
  In  In24  1  0.50253115  0.00766714  0.37259843  1
  In  In25  1  0.49927199  -0.00641230  0.86200025  1
  In  In26  1  0.49635184  0.32741293  0.38016567  1
  In  In27  1  0.48960266  0.34431404  0.87353038  1
  In  In28  1  0.48320518  0.66594935  0.37312069  1
  In  In29  1  0.50416875  0.66309992  0.86869614  1
  In  In30  1  0.81897635  0.01172612  0.38154897  1
  In  In31  1  0.83731400  0.00861499  0.87360843  1
  In  In32  1  0.82294055  0.32939663  0.36069546  1
  In  In33  1  0.83818270  0.31670433  0.88442724  1
  In  In34  1  0.84382389  0.65651566  0.37066449  1
  In  In35  1  0.82129984  0.65474566  0.88316542  1
  In  In36  1  -0.01635005  0.16862963  0.37462850  1
  In  In37  1  -0.00618293  0.17776614  0.88377855  1
  In  In38  1  -0.01442677  0.49491552  0.35119021  1
  In  In39  1  0.01926182  0.48231131  0.89310161  1
  In  In40  1  -0.00333238  0.81393251  0.37184744  1
  In  In41  1  0.00506908  0.84350391  0.88112405  1
  In  In42  1  0.34459422  0.17389393  0.37375895  1
  In  In43  1  0.33001552  0.15932886  0.87118842  1
  In  In44  1  0.33528695  0.50045648  0.37554280  1
  In  In45  1  0.31071884  0.48853196  0.86078015  1
  In  In46  1  0.33270034  0.83162988  0.36700155  1
  In  In47  1  0.32793096  0.82368582  0.86818613  1
  In  In48  1  0.66628939  0.17114636  0.37533446  1
  In  In49  1  0.68078029  0.16142007  0.87336704  1
  In  In50  1  0.66364125  0.47533743  0.36747865  1
  In  In51  1  0.66821809  0.50512464  0.88201897  1
  In  In52  1  0.66378677  0.84896076  0.37380702  1
  In  In53  1  0.66452361  0.82518389  0.86624612  1
  In  In54  1  0.17283104  0.01207509  0.11944637  1
  In  In55  1  0.17464775  0.01115195  0.62872140  1
  In  In56  1  0.16676562  0.33632099  0.12609145  1
  In  In57  1  0.17105214  0.32962553  0.63951893  1
  In  In58  1  0.16374524  0.66519819  0.11547154  1
  In  In59  1  0.16968550  0.67504519  0.63079816  1
  In  In60  1  0.50317198  0.00250768  0.13444974  1
  In  In61  1  0.48920231  0.01866219  0.62870899  1
  In  In62  1  0.50625829  0.33040302  0.13514752  1
  In  In63  1  0.48075890  0.32004902  0.60772958  1
  In  In64  1  0.49213351  0.65259594  0.12803697  1
  In  In65  1  0.50300260  0.66143675  0.62624201  1
  In  In66  1  0.81891884  0.00233355  0.12776257  1
  In  In67  1  0.82317588  -0.00746207  0.61873523  1
  In  In68  1  0.83494016  0.34444869  0.12168571  1
  In  In69  1  0.84601066  0.33352873  0.62520798  1
  In  In70  1  0.85084936  0.66284796  0.11818469  1
  In  In71  1  0.81883893  0.65969166  0.62646354  1
  In  In72  1  0.50239847  0.84027827  0.49514544  1
  In  In73  1  -0.00149910  0.00181495  0.24982234  1
  In  In74  1  0.50185653  0.16870183  0.00831959  1
  In  In75  1  0.49889513  0.49930241  -0.00083918  1
  In  In76  1  0.00364023  0.00339705  0.75106097  1
  In  In77  1  0.16923839  0.16690343  0.50205825  1
  In  In78  1  0.82532180  0.49356346  0.49436409  1
  In  In79  1  0.00508384  0.65962347  0.76475558  1
  In  In80  1  0.66862800  0.66657510  0.24252742  1
  In  In81  1  0.66107555  0.33178869  0.75055220  1
  In  In82  1  0.49873919  0.82906651  -0.00984563  1
  In  In83  1  0.16576546  0.83631358  0.50692064  1
  In  In84  1  0.16762699  0.50054805  0.49433074  1
  In  In85  1  0.83579709  0.83526601  0.00595470  1
  Cu  Cu86  1  0.32744110  0.33592058  0.00422376  1
  Cu  Cu87  1  0.49910686  0.16748224  0.74396358  1
  Cu  Cu88  1  0.49458520  0.83502785  0.25414085  1
  Cu  Cu89  1  0.82891484  0.82168916  0.74755144  1
  Cu  Cu90  1  -0.00115041  0.33263916  0.49922560  1
  Cu  Cu91  1  0.17023402  0.49841255  0.24348688  1
  Cu  Cu92  1  0.17198346  0.16727978  0.24549186  1
  Cu  Cu93  1  0.00089604  0.33110015  0.00566010  1
  Cu  Cu94  1  0.50502265  0.16923572  0.25456904  1
  Cu  Cu95  1  0.66566472  0.33196831  0.49445428  1
  Cu  Cu96  1  0.17951367  0.83316846  0.75649057  1
  Cu  Cu97  1  0.50832189  0.83469348  0.74328862  1
  Cu  Cu98  1  0.16863993  0.82665011  0.24449796  1
  Cu  Cu99  1  0.82988579  0.17661089  0.24828075  1
  Cu  Cu100  1  0.83375606  0.16435254  0.75286148  1
  Cu  Cu101  1  0.66815150  0.00441885  0.49971659  1
  Cu  Cu102  1  -0.01157876  -0.00536918  0.49730778  1
  Cu  Cu103  1  0.83392565  0.49350602  0.75199921  1
  Cu  Cu104  1  0.49686459  0.49436682  0.25224278  1
  Cu  Cu105  1  0.00238188  0.00775663  0.00127385  1
  Cu  Cu106  1  0.83259282  0.83879446  0.24831435  1
  Cu  Cu107  1  -0.01165450  0.65960396  0.49468564  1
  Cu  Cu108  1  0.49767343  0.50046795  0.74948573  1
  Cu  Cu109  1  0.33251921  0.66389469  -0.00339362  1
  Cu  Cu110  1  0.66614264  0.66669537  0.50230114  1
  Cu  Cu111  1  0.33104398  0.66582207  0.49860745  1
  Cu  Cu112  1  0.32516277  0.00282450  0.00130272  1
  Cu  Cu113  1  0.16726193  0.17310735  0.75509858  1
  Cu  Cu114  1  0.66584476  0.00191674  -0.00129504  1
  Se  Se115  1  0.08553334  0.09205041  0.05356423  1
  Se  Se116  1  0.07245730  0.07168082  0.55736970  1
  Se  Se117  1  0.08912783  0.41615494  0.05242828  1
  Se  Se118  1  0.08090284  0.40872144  0.55974217  1
  Se  Se119  1  0.08970969  0.75391497  0.04526444  1
  Se  Se120  1  0.06952067  0.73745092  0.55654518  1
  Se  Se121  1  0.40847003  0.07684624  0.06339505  1
  Se  Se122  1  0.41806147  0.09401519  0.55194986  1
  Se  Se123  1  0.41299371  0.41062414  0.06448754  1
  Se  Se124  1  0.41791601  0.43177320  0.55424095  1
  Se  Se125  1  0.41236399  0.74348734  0.05742763  1
  Se  Se126  1  0.41113281  0.75032406  0.55590111  1
  Se  Se127  1  0.74992036  0.08373249  0.05141373  1
  Se  Se128  1  0.75199178  0.08837011  0.55310270  1
  Se  Se129  1  0.75979739  0.43110230  0.04852959  1
  Se  Se130  1  0.73974036  0.40887510  0.56298467  1
  Se  Se131  1  0.74243938  0.74245797  0.06059868  1
  Se  Se132  1  0.75330630  0.74723786  0.55205487  1
  Se  Se133  1  0.25000023  0.24772580  0.05852539  1
  Se  Se134  1  0.25414787  0.26058276  0.56120152  1
  Se  Se135  1  0.25189464  0.57779132  0.05063169  1
  Se  Se136  1  0.25002384  0.59000431  0.55998523  1
  Se  Se137  1  0.24612791  0.91525260  0.05409904  1
  Se  Se138  1  0.26070648  0.93078755  0.55642024  1
  Se  Se139  1  0.59452259  0.26412822  0.05796003  1
  Se  Se140  1  0.58317691  0.24850922  0.54908116  1
  Se  Se141  1  0.58910416  0.59196650  0.05704599  1
  Se  Se142  1  0.58071337  0.58297105  0.55142373  1
  Se  Se143  1  0.58557316  0.92010103  0.05684358  1
  Se  Se144  1  0.58686549  0.92604550  0.56170732  1
  Se  Se145  1  0.90938739  0.24985827  0.05331258  1
  Se  Se146  1  0.91533875  0.24816371  0.55071662  1
  Se  Se147  1  0.93744443  0.59223652  0.04635320  1
  Se  Se148  1  0.91828704  0.57772161  0.56038739  1
  Se  Se149  1  0.92531044  0.92823870  0.06552484  1
  Se  Se150  1  0.90997792  0.90890744  0.55227638  1
  Se  Se151  1  0.08088581  0.25554315  0.43762729  1
  Se  Se152  1  0.08674628  0.24931148  0.95103765  1
  Se  Se153  1  0.06728423  0.58025773  0.43431079  1
  Se  Se154  1  0.06126646  0.59701604  0.95646797  1
  Se  Se155  1  0.07273024  0.91763230  0.43914927  1
  Se  Se156  1  0.08587961  0.92121708  0.95201183  1
  Se  Se157  1  0.42236430  0.24100503  0.45172428  1
  Se  Se158  1  0.41034707  0.25603316  0.94547078  1
  Se  Se159  1  0.41571647  0.58203694  0.44812552  1
  Se  Se160  1  0.40917718  0.58269815  0.93449835  1
  Se  Se161  1  0.40570850  0.92369329  0.43810503  1
  Se  Se162  1  0.40718133  0.92648603  0.93925094  1
  Se  Se163  1  0.75499638  0.25499479  0.44153943  1
  Se  Se164  1  0.74442632  0.24254443  0.94922901  1
  Se  Se165  1  0.73772028  0.58599429  0.43492843  1
  Se  Se166  1  0.75560831  0.56686188  0.95771289  1
  Se  Se167  1  0.74887410  0.91550923  0.44901632  1
  Se  Se168  1  0.74441978  0.91852836  0.93897884  1
  Se  Se169  1  0.25520997  0.07749002  0.44016191  1
  Se  Se170  1  0.24811555  0.09279492  0.94918906  1
  Se  Se171  1  0.26041506  0.40364585  0.44579036  1
  Se  Se172  1  0.24932222  0.42012547  0.94729671  1
  Se  Se173  1  0.24737388  0.74412964  0.43995448  1
  Se  Se174  1  0.25192392  0.75622267  0.94851349  1
  Se  Se175  1  0.58516141  0.08488553  0.44393395  1
  Se  Se176  1  0.57995250  0.07579906  0.93934073  1
  Se  Se177  1  0.58051092  0.41762312  0.44649405  1
  Se  Se178  1  0.58911082  0.40342544  0.94373898  1
  Se  Se179  1  0.58810994  0.74331929  0.43658944  1
  Se  Se180  1  0.59644590  0.73569166  0.94293425  1
  Se  Se181  1  0.91122618  0.08701429  0.44847515  1
  Se  Se182  1  0.91368533  0.08478222  0.94785905  1
  Se  Se183  1  0.92276004  0.41154059  0.43559057  1
  Se  Se184  1  0.91496745  0.40988706  0.94944010  1
  Se  Se185  1  0.90734008  0.74749013  0.44521428  1
  Se  Se186  1  0.91776447  0.74881943  0.93916723  1
  Se  Se187  1  0.25344755  0.24743281  0.30464491  1
  Se  Se188  1  0.25160376  0.25427536  0.80946681  1
  Se  Se189  1  0.25045617  0.57830531  0.30429333  1
  Se  Se190  1  0.25169764  0.60439925  0.81062622  1
  Se  Se191  1  0.24726976  0.91301898  0.29931443  1
  Se  Se192  1  0.25740621  0.92573498  0.80559111  1
  Se  Se193  1  0.58588279  0.25676220  0.30686539  1
  Se  Se194  1  0.57347131  0.24090274  0.81368512  1
  Se  Se195  1  0.57906229  0.58107067  0.30896356  1
  Se  Se196  1  0.58758693  0.57476119  0.80454866  1
  Se  Se197  1  0.58024892  0.92098003  0.30154503  1
  Se  Se198  1  0.59210266  0.91631519  0.79833406  1
  Se  Se199  1  0.92149053  0.25428346  0.29840728  1
  Se  Se200  1  0.91664237  0.24827086  0.80498108  1
  Se  Se201  1  0.92552123  0.60126766  0.29095185  1
  Se  Se202  1  0.91227996  0.56785818  0.81821897  1
  Se  Se203  1  0.91003636  0.91541949  0.31396039  1
  Se  Se204  1  0.90948245  0.90621890  0.80470539  1
  Se  Se205  1  0.08952372  0.09277111  0.31026710  1
  Se  Se206  1  0.08914989  0.08943052  0.81591954  1
  Se  Se207  1  0.08597569  0.41480191  0.29695246  1
  Se  Se208  1  0.08849793  0.42233209  0.80896837  1
  Se  Se209  1  0.08083134  0.74693204  0.29666669  1
  Se  Se210  1  0.09397180  0.75934366  0.81567303  1
  Se  Se211  1  0.41685023  0.08451777  0.30223031  1
  Se  Se212  1  0.41666553  0.08444451  0.80051786  1
  Se  Se213  1  0.41619072  0.41286326  0.30930463  1
  Se  Se214  1  0.41090726  0.41577553  0.79843398  1
  Se  Se215  1  0.41004621  0.74501151  0.29789023  1
  Se  Se216  1  0.42755276  0.75557723  0.80407902  1
  Se  Se217  1  0.75071796  0.09042077  0.30351395  1
  Se  Se218  1  0.74989295  0.07580878  0.79908737  1
  Se  Se219  1  0.77373222  0.44281611  0.30142267  1
  Se  Se220  1  0.75369111  0.41350981  0.81377020  1
  Se  Se221  1  0.75235347  0.75685062  0.30918247  1
  Se  Se222  1  0.75298191  0.73776148  0.80589401  1
  Se  Se223  1  0.25390508  0.07798242  0.19812859  1
  Se  Se224  1  0.25090188  0.08940215  0.70114699  1
  Se  Se225  1  0.25618392  0.40939001  0.19783036  1
  Se  Se226  1  0.24127285  0.42567357  0.70237182  1
  Se  Se227  1  0.24919693  0.74359151  0.18839038  1
  Se  Se228  1  0.25772262  0.75036345  0.69884730  1
  Se  Se229  1  0.58822965  0.09144491  0.19478933  1
  Se  Se230  1  0.58775036  0.08302353  0.69758918  1
  Se  Se231  1  0.58798804  0.42107044  0.19847234  1
  Se  Se232  1  0.57186479  0.41586098  0.68677890  1
  Se  Se233  1  0.57259784  0.75968843  0.18723104  1
  Se  Se234  1  0.58815833  0.74479815  0.69292659  1
  Se  Se235  1  0.91128875  0.09340536  0.18901691  1
  Se  Se236  1  0.91266647  0.08717153  0.68761753  1
  Se  Se237  1  0.93112041  0.40890720  0.19061264  1
  Se  Se238  1  0.91932117  0.41005660  0.70234961  1
  Se  Se239  1  0.91221735  0.75573901  0.19276118  1
  Se  Se240  1  0.91738009  0.74403219  0.69246461  1
  Se  Se241  1  0.08593712  0.25136029  0.19683875  1
  Se  Se242  1  0.07755839  0.25046773  0.70267776  1
  Se  Se243  1  0.08846135  0.58218682  0.18919031  1
  Se  Se244  1  0.09305196  0.57794951  0.69628246  1
  Se  Se245  1  0.08816366  0.91378604  0.18811182  1
  Se  Se246  1  0.09605893  0.90785327  0.69306413  1
  Se  Se247  1  0.41927969  0.25302185  0.20265991  1
  Se  Se248  1  0.41628838  0.25510688  0.69474226  1
  Se  Se249  1  0.41270971  0.58091415  0.20263175  1
  Se  Se250  1  0.41633300  0.58908902  0.69822407  1
  Se  Se251  1  0.41448075  0.91904956  0.19705565  1
  Se  Se252  1  0.42130536  0.92022843  0.69512202  1
  Se  Se253  1  0.74992072  0.26140324  0.19280312  1
  Se  Se254  1  0.75458783  0.24471589  0.69007279  1
  Se  Se255  1  0.76110255  0.57888972  0.18609120  1
  Se  Se256  1  0.74907410  0.57774197  0.70186241  1
  Se  Se257  1  0.74433999  0.92517811  0.20455421  1
  Se  Se258  1  0.75219244  0.91059256  0.69410927  1
