# generated using pymatgen
data_In86Cu29Se144
_symmetry_space_group_name_H-M   'P 1'
_cell_length_a   17.58485608
_cell_length_b   17.58974533
_cell_length_c   23.44215802
_cell_angle_alpha   89.99861263
_cell_angle_beta   89.97070254
_cell_angle_gamma   89.99915510
_symmetry_Int_Tables_number   1
_chemical_formula_structural   In86Cu29Se144
_chemical_formula_sum   'In86 Cu29 Se144'
_cell_volume   7250.96655718
_cell_formula_units_Z   1
loop_
 _symmetry_equiv_pos_site_id
 _symmetry_equiv_pos_as_xyz
  1  'x, y, z'
loop_
 _atom_site_type_symbol
 _atom_site_label
 _atom_site_symmetry_multiplicity
 _atom_site_fract_x
 _atom_site_fract_y
 _atom_site_fract_z
 _atom_site_occupancy
  In  In0  1  0.00384570  0.15842696  0.12192435  1
  In  In1  1  -0.02872165  0.16803336  0.63646705  1
  In  In2  1  0.01711243  0.51801633  0.10932374  1
  In  In3  1  0.00281173  0.51046526  0.63008933  1
  In  In4  1  -0.01539056  0.82313539  0.10851937  1
  In  In5  1  -0.00049680  0.82900169  0.63263189  1
  In  In6  1  0.34154667  0.15407158  0.12910862  1
  In  In7  1  0.33635657  0.17775541  0.62176708  1
  In  In8  1  0.31068190  0.52009113  0.14633820  1
  In  In9  1  0.35248445  0.50413046  0.61728250  1
  In  In10  1  0.33223614  0.83223030  0.12305884  1
  In  In11  1  0.32280860  0.82468388  0.61870985  1
  In  In12  1  0.66617621  0.18517797  0.12462088  1
  In  In13  1  0.66985989  0.15979396  0.63861600  1
  In  In14  1  0.67393262  0.49731533  0.12625661  1
  In  In15  1  0.65510379  0.50875028  0.63380625  1
  In  In16  1  0.65588518  0.82326076  0.11465225  1
  In  In17  1  0.66226250  0.83201400  0.62847699  1
  In  In18  1  0.16569542  -0.01622141  0.37572584  1
  In  In19  1  0.15181080  -0.01129293  0.87818708  1
  In  In20  1  0.17555157  0.33039472  0.36999988  1
  In  In21  1  0.17579307  0.33877678  0.88097096  1
  In  In22  1  0.18252097  0.67682678  0.36103321  1
  In  In23  1  0.16511427  0.67070373  0.88026422  1
  In  In24  1  0.48898754  -0.00015056  0.37463805  1
  In  In25  1  0.50599515  -0.00474354  0.87813584  1
  In  In26  1  0.51289826  0.34272121  0.36504404  1
  In  In27  1  0.51010825  0.32727588  0.88001596  1
  In  In28  1  0.50320780  0.66969913  0.37731176  1
  In  In29  1  0.50987192  0.67661101  0.87073246  1
  In  In30  1  0.84364734  0.00361020  0.38230307  1
  In  In31  1  0.82497050  -0.00502918  0.87024269  1
  In  In32  1  0.80776755  0.33965827  0.38172234  1
  In  In33  1  0.82233408  0.34526502  0.87114341  1
  In  In34  1  0.82762773  0.65899838  0.36576168  1
  In  In35  1  0.83837503  0.66303101  0.87249243  1
  In  In36  1  -0.00676766  0.15577850  0.38017020  1
  In  In37  1  -0.00316217  0.15191347  0.86512122  1
  In  In38  1  -0.00558702  0.50869573  0.37049694  1
  In  In39  1  -0.01923123  0.51521986  0.88707807  1
  In  In40  1  0.01124767  0.83516108  0.37705206  1
  In  In41  1  -0.00014269  0.83122675  0.88163646  1
  In  In42  1  0.34339465  0.16602215  0.36165668  1
  In  In43  1  0.34161379  0.18036742  0.87948590  1
  In  In44  1  0.35607898  0.52379070  0.35389738  1
  In  In45  1  0.32066488  0.50636141  0.88279046  1
  In  In46  1  0.33643537  0.83077592  0.37414990  1
  In  In47  1  0.34455382  0.82142067  0.88487808  1
  In  In48  1  0.66331624  0.18682616  0.38463705  1
  In  In49  1  0.65529135  0.15066927  0.85002909  1
  In  In50  1  0.66089997  0.49719952  0.37213540  1
  In  In51  1  0.68557369  0.51730391  0.85387143  1
  In  In52  1  0.66367878  0.81526382  0.37641506  1
  In  In53  1  0.66797625  0.83355318  0.87534465  1
  In  In54  1  0.17350266  -0.00037859  0.12024661  1
  In  In55  1  0.16851106  -0.01824311  0.62994534  1
  In  In56  1  0.16620421  0.35514878  0.12690853  1
  In  In57  1  0.17429827  0.33980449  0.62404902  1
  In  In58  1  0.16327831  0.66635838  0.12627699  1
  In  In59  1  0.15774701  0.68011753  0.63027862  1
  In  In60  1  0.48901629  -0.01155143  0.11397099  1
  In  In61  1  0.51855034  -0.00420768  0.62849277  1
  In  In62  1  0.50187659  0.33192022  0.12806002  1
  In  In63  1  0.49815448  0.33911539  0.62469727  1
  In  In64  1  0.49347946  0.67311343  0.12898611  1
  In  In65  1  0.49625362  0.66595348  0.62567997  1
  In  In66  1  0.84263860  -0.00793405  0.11949049  1
  In  In67  1  0.81672372  0.01504100  0.65092491  1
  In  In68  1  0.81936520  0.33725888  0.12565971  1
  In  In69  1  0.82585028  0.32560464  0.62532360  1
  In  In70  1  0.83404650  0.66628886  0.12094882  1
  In  In71  1  0.82281853  0.66925890  0.64042139  1
  In  In72  1  0.33654376  -0.00288839  0.75764776  1
  In  In73  1  0.50428797  0.15811436  0.50444646  1
  In  In74  1  0.83204681  0.83135224  0.51336793  1
  In  In75  1  0.82295349  0.50264067  0.50650273  1
  In  In76  1  0.50072767  0.49786723  0.00698086  1
  In  In77  1  0.00329766  -0.00526260  0.24676516  1
  In  In78  1  -0.00062197  0.34054086  0.75439875  1
  In  In79  1  0.82568730  0.16669659  -0.00984583  1
  In  In80  1  0.16927018  0.16583712  0.00095698  1
  In  In81  1  0.34160194  0.33952968  0.74389628  1
  In  In82  1  -0.00397058  0.33831794  0.24976485  1
  In  In83  1  0.66597337  -0.00061803  0.24779250  1
  In  In84  1  0.16036782  0.15593924  0.49618867  1
  In  In85  1  0.17252675  0.50562282  0.48932687  1
  Cu  Cu86  1  0.16577468  0.51527976  0.75532952  1
  Cu  Cu87  1  -0.00466741  0.32887756  -0.00303394  1
  Cu  Cu88  1  0.83582640  0.50724824  0.24552017  1
  Cu  Cu89  1  0.16995150  0.83067175  0.24674089  1
  Cu  Cu90  1  0.49534971  0.82918131  0.24681895  1
  Cu  Cu91  1  -0.00627352  0.33643212  0.50353838  1
  Cu  Cu92  1  0.66346438  0.33895744  -0.00119461  1
  Cu  Cu93  1  0.33276415  0.66797604  0.00758554  1
  Cu  Cu94  1  0.50762800  0.49970294  0.24657301  1
  Cu  Cu95  1  0.16272879  0.82412003  0.75447475  1
  Cu  Cu96  1  0.82583500  0.17161589  0.25555712  1
  Cu  Cu97  1  0.83679644  0.82852836  0.75689509  1
  Cu  Cu98  1  0.50006201  0.83237431  0.75176530  1
  Cu  Cu99  1  0.67347346  0.66859906  -0.00757965  1
  Cu  Cu100  1  0.34357641  0.33807129  0.49101357  1
  Cu  Cu101  1  0.33558733  0.33925769  0.00640630  1
  Cu  Cu102  1  0.33351541  0.66829980  0.49376077  1
  Cu  Cu103  1  0.49380916  0.50394836  0.74994415  1
  Cu  Cu104  1  -0.00015290  0.66409524  -0.00223128  1
  Cu  Cu105  1  -0.00362151  0.00259472  0.51042866  1
  Cu  Cu106  1  0.83361178  0.82357415  0.24441169  1
  Cu  Cu107  1  0.33272413  -0.01067461  0.49809764  1
  Cu  Cu108  1  0.33817103  -0.00011087  -0.00011165  1
  Cu  Cu109  1  -0.00014951  0.67639657  0.50150444  1
  Cu  Cu110  1  0.66517122  0.00470128  -0.00761746  1
  Cu  Cu111  1  0.50132215  0.16199608  0.24837776  1
  Cu  Cu112  1  0.67317765  -0.00512550  0.50945047  1
  Cu  Cu113  1  0.16573157  0.16536555  0.74751482  1
  Cu  Cu114  1  0.17330275  0.16608525  0.24577818  1
  Se  Se115  1  0.07371126  0.06919168  0.04995206  1
  Se  Se116  1  0.07820623  0.08233317  0.57113783  1
  Se  Se117  1  0.08164417  0.41192154  0.04742663  1
  Se  Se118  1  0.07958967  0.41760096  0.55560932  1
  Se  Se119  1  0.08497215  0.74583273  0.05174830  1
  Se  Se120  1  0.08236072  0.75891038  0.55506468  1
  Se  Se121  1  0.42041972  0.08879473  0.04895830  1
  Se  Se122  1  0.40766133  0.06966998  0.56236256  1
  Se  Se123  1  0.40500895  0.42282608  0.07123451  1
  Se  Se124  1  0.42591852  0.41730563  0.54711699  1
  Se  Se125  1  0.42071093  0.75323468  0.05376155  1
  Se  Se126  1  0.41439256  0.74830967  0.55351805  1
  Se  Se127  1  0.74170587  0.08021114  0.06105327  1
  Se  Se128  1  0.75037691  0.07987195  0.56463040  1
  Se  Se129  1  0.75063597  0.41946982  0.04977050  1
  Se  Se130  1  0.73466611  0.41120417  0.56295149  1
  Se  Se131  1  0.75348433  0.75170719  0.05083459  1
  Se  Se132  1  0.73865121  0.73389523  0.56007176  1
  Se  Se133  1  0.25400168  0.25482296  0.06481834  1
  Se  Se134  1  0.25539748  0.25976389  0.54655552  1
  Se  Se135  1  0.24907713  0.58173972  0.05757510  1
  Se  Se136  1  0.25281280  0.59164368  0.55908335  1
  Se  Se137  1  0.25307276  0.91676062  0.05112702  1
  Se  Se138  1  0.24332355  0.91258011  0.55032191  1
  Se  Se139  1  0.58057302  0.25514765  0.05150861  1
  Se  Se140  1  0.59011339  0.24796278  0.56467448  1
  Se  Se141  1  0.59261391  0.59476612  0.05946945  1
  Se  Se142  1  0.57086568  0.57464322  0.55842041  1
  Se  Se143  1  0.58568906  0.91924889  0.04862983  1
  Se  Se144  1  0.58370172  0.91024487  0.55300893  1
  Se  Se145  1  0.91729726  0.25048442  0.05945827  1
  Se  Se146  1  0.91507568  0.25031241  0.55546816  1
  Se  Se147  1  0.91143350  0.58084787  0.04880363  1
  Se  Se148  1  0.91916645  0.59655138  0.56016338  1
  Se  Se149  1  0.91529121  0.91922905  0.04342500  1
  Se  Se150  1  0.91434935  0.92731235  0.57196049  1
  Se  Se151  1  0.07509113  0.25951241  0.44063537  1
  Se  Se152  1  0.07445484  0.24957120  0.93618408  1
  Se  Se153  1  0.07712959  0.59861350  0.43820625  1
  Se  Se154  1  0.08643523  0.57903399  0.94755911  1
  Se  Se155  1  0.07673298  0.92321574  0.45157147  1
  Se  Se156  1  0.08906855  0.90413428  0.95252869  1
  Se  Se157  1  0.42076105  0.24826121  0.43725708  1
  Se  Se158  1  0.41942206  0.25873903  0.95250843  1
  Se  Se159  1  0.41690566  0.58199773  0.44346293  1
  Se  Se160  1  0.41624015  0.59193925  0.94455959  1
  Se  Se161  1  0.42049167  0.91110876  0.44577884  1
  Se  Se162  1  0.42221411  0.91591934  0.94743712  1
  Se  Se163  1  0.76447173  0.23794416  0.45306947  1
  Se  Se164  1  0.73271563  0.25380879  0.93405941  1
  Se  Se165  1  0.73994704  0.59227485  0.44200923  1
  Se  Se166  1  0.75121364  0.57921249  0.94113546  1
  Se  Se167  1  0.74835050  0.91756900  0.44240958  1
  Se  Se168  1  0.74975867  0.91741076  0.94569966  1
  Se  Se169  1  0.26141457  0.07737771  0.43674731  1
  Se  Se170  1  0.25810089  0.07782409  0.93651543  1
  Se  Se171  1  0.26599394  0.41861390  0.43118420  1
  Se  Se172  1  0.24843218  0.41994231  0.95525280  1
  Se  Se173  1  0.24713501  0.75142754  0.44317197  1
  Se  Se174  1  0.25017084  0.74986481  0.95132946  1
  Se  Se175  1  0.59492987  0.06995089  0.44099069  1
  Se  Se176  1  0.58698562  0.09179799  0.93877256  1
  Se  Se177  1  0.60184030  0.39806427  0.44102239  1
  Se  Se178  1  0.59372182  0.42761570  0.93705920  1
  Se  Se179  1  0.57693490  0.75444778  0.45015607  1
  Se  Se180  1  0.58398730  0.75301929  0.94709493  1
  Se  Se181  1  0.91399227  0.08615348  0.45734604  1
  Se  Se182  1  0.92175581  0.07338579  0.94161408  1
  Se  Se183  1  0.91794432  0.41744896  0.44154578  1
  Se  Se184  1  0.90932063  0.41155132  0.94601863  1
  Se  Se185  1  0.91451992  0.74871563  0.43929608  1
  Se  Se186  1  0.91296369  0.74594311  0.94640999  1
  Se  Se187  1  0.25477716  0.24997871  0.29938146  1
  Se  Se188  1  0.24562180  0.24808243  0.80428498  1
  Se  Se189  1  0.24128040  0.57367160  0.29802665  1
  Se  Se190  1  0.25344118  0.59252842  0.80914862  1
  Se  Se191  1  0.25087308  0.91339043  0.30361775  1
  Se  Se192  1  0.24624667  0.90417000  0.81372041  1
  Se  Se193  1  0.58623089  0.24400696  0.30115283  1
  Se  Se194  1  0.58377441  0.26095477  0.80082052  1
  Se  Se195  1  0.58309992  0.58529976  0.30528612  1
  Se  Se196  1  0.58016300  0.58940292  0.79858078  1
  Se  Se197  1  0.57741901  0.90841280  0.30816512  1
  Se  Se198  1  0.58378589  0.91568154  0.80477648  1
  Se  Se199  1  0.91041437  0.24844034  0.31479884  1
  Se  Se200  1  0.90948537  0.24663126  0.80931373  1
  Se  Se201  1  0.92127110  0.59003087  0.29679326  1
  Se  Se202  1  0.91406741  0.57499951  0.80223792  1
  Se  Se203  1  0.90784534  0.90765966  0.30710046  1
  Se  Se204  1  0.91901159  0.91287735  0.80952794  1
  Se  Se205  1  0.09167916  0.08923893  0.30826314  1
  Se  Se206  1  0.09058669  0.07683454  0.80108019  1
  Se  Se207  1  0.08986354  0.42416950  0.30857657  1
  Se  Se208  1  0.09316499  0.42662027  0.81379723  1
  Se  Se209  1  0.08144597  0.75369060  0.30234389  1
  Se  Se210  1  0.07757728  0.74506347  0.80960668  1
  Se  Se211  1  0.41764442  0.07339228  0.29544872  1
  Se  Se212  1  0.42386515  0.09405931  0.81113791  1
  Se  Se213  1  0.42113021  0.41418911  0.29728962  1
  Se  Se214  1  0.41864554  0.42541609  0.81645386  1
  Se  Se215  1  0.41659083  0.74605525  0.30507676  1
  Se  Se216  1  0.41480245  0.74953693  0.80384089  1
  Se  Se217  1  0.75182039  0.08572952  0.31475590  1
  Se  Se218  1  0.76431597  0.08636776  0.79670682  1
  Se  Se219  1  0.75373083  0.42393196  0.30165844  1
  Se  Se220  1  0.74065788  0.40780883  0.79346864  1
  Se  Se221  1  0.74660579  0.74763116  0.30021887  1
  Se  Se222  1  0.74891764  0.74707961  0.80789456  1
  Se  Se223  1  0.25069384  0.07558640  0.19515676  1
  Se  Se224  1  0.25103782  0.08875023  0.68883758  1
  Se  Se225  1  0.25732509  0.40526436  0.20256130  1
  Se  Se226  1  0.24465267  0.43550366  0.69226868  1
  Se  Se227  1  0.25317566  0.74755423  0.19304125  1
  Se  Se228  1  0.25208203  0.74967671  0.69862666  1
  Se  Se229  1  0.57915995  0.08546305  0.18337008  1
  Se  Se230  1  0.58281168  0.07727881  0.70384059  1
  Se  Se231  1  0.58898292  0.41470383  0.19347087  1
  Se  Se232  1  0.57499954  0.41635415  0.69902924  1
  Se  Se233  1  0.58558890  0.75075569  0.19559570  1
  Se  Se234  1  0.58014603  0.74728284  0.69607466  1
  Se  Se235  1  0.90586311  0.09172686  0.19503941  1
  Se  Se236  1  0.93242583  0.06646598  0.70790830  1
  Se  Se237  1  0.91407007  0.42609851  0.18372073  1
  Se  Se238  1  0.91084889  0.42278708  0.68861964  1
  Se  Se239  1  0.92152645  0.74696754  0.19052752  1
  Se  Se240  1  0.91868383  0.74560245  0.70167249  1
  Se  Se241  1  0.08736211  0.24401063  0.18980905  1
  Se  Se242  1  0.08921843  0.24979350  0.68840763  1
  Se  Se243  1  0.08416783  0.57827537  0.19385338  1
  Se  Se244  1  0.08032889  0.59296298  0.69977669  1
  Se  Se245  1  0.08682958  0.90526077  0.18403899  1
  Se  Se246  1  0.08300088  0.91197976  0.70242153  1
  Se  Se247  1  0.41824242  0.24598895  0.19477522  1
  Se  Se248  1  0.43057747  0.23712711  0.69542584  1
  Se  Se249  1  0.42038415  0.58686615  0.20048577  1
  Se  Se250  1  0.40939037  0.58634774  0.69735178  1
  Se  Se251  1  0.41618754  0.91565954  0.19305211  1
  Se  Se252  1  0.41813976  0.90978849  0.68933115  1
  Se  Se253  1  0.74692992  0.25600753  0.20102973  1
  Se  Se254  1  0.76300744  0.24001928  0.70031614  1
  Se  Se255  1  0.74926574  0.58884585  0.19302623  1
  Se  Se256  1  0.75138400  0.57309330  0.70224521  1
  Se  Se257  1  0.75520381  0.90867960  0.18740875  1
  Se  Se258  1  0.74749352  0.90490275  0.70176620  1
