# generated using pymatgen
data_In86Cu29Se144
_symmetry_space_group_name_H-M   'P 1'
_cell_length_a   17.57831794
_cell_length_b   17.57702463
_cell_length_c   23.43874187
_cell_angle_alpha   89.99986559
_cell_angle_beta   90.00219745
_cell_angle_gamma   90.00724119
_symmetry_Int_Tables_number   1
_chemical_formula_structural   In86Cu29Se144
_chemical_formula_sum   'In86 Cu29 Se144'
_cell_volume   7241.97412958
_cell_formula_units_Z   1
loop_
 _symmetry_equiv_pos_site_id
 _symmetry_equiv_pos_as_xyz
  1  'x, y, z'
loop_
 _atom_site_type_symbol
 _atom_site_label
 _atom_site_symmetry_multiplicity
 _atom_site_fract_x
 _atom_site_fract_y
 _atom_site_fract_z
 _atom_site_occupancy
  In  In0  1  -0.01312457  0.15436030  0.11525760  1
  In  In1  1  -0.00832322  0.18240696  0.64293031  1
  In  In2  1  0.00331375  0.51023263  0.11377314  1
  In  In3  1  -0.00475080  0.49839616  0.62680799  1
  In  In4  1  -0.00046423  0.84273698  0.13395386  1
  In  In5  1  -0.01493330  0.83798656  0.63109141  1
  In  In6  1  0.34779183  0.17447297  0.11575612  1
  In  In7  1  0.32986241  0.17207083  0.62604404  1
  In  In8  1  0.31510459  0.49682396  0.12513225  1
  In  In9  1  0.32878731  0.48663406  0.60534457  1
  In  In10  1  0.33189633  0.83495562  0.12605341  1
  In  In11  1  0.33222383  0.82719091  0.61684153  1
  In  In12  1  0.67015059  0.16861496  0.12677126  1
  In  In13  1  0.67914886  0.16085868  0.62733456  1
  In  In14  1  0.67923247  0.49348359  0.13344989  1
  In  In15  1  0.66325104  0.49165615  0.61639270  1
  In  In16  1  0.67892445  0.82439346  0.13819535  1
  In  In17  1  0.66928651  0.83227099  0.61131960  1
  In  In18  1  0.16401908  0.00743962  0.36918144  1
  In  In19  1  0.14860356  0.03398957  0.88659953  1
  In  In20  1  0.17868727  0.33736606  0.37575694  1
  In  In21  1  0.16158873  0.33810922  0.88114482  1
  In  In22  1  0.14733445  0.66323451  0.36994055  1
  In  In23  1  0.13945470  0.67241880  0.88285342  1
  In  In24  1  0.50054009  -0.01481656  0.37944070  1
  In  In25  1  0.50523207  0.00550342  0.87839612  1
  In  In26  1  0.50557669  0.33688649  0.37196008  1
  In  In27  1  0.50283546  0.31789222  0.86893429  1
  In  In28  1  0.51080482  0.65848247  0.37780540  1
  In  In29  1  0.49792025  0.67483960  0.87434566  1
  In  In30  1  0.83227581  0.00081683  0.37414464  1
  In  In31  1  0.84289521  -0.00786913  0.88374540  1
  In  In32  1  0.82519493  0.34386773  0.38093915  1
  In  In33  1  0.83155060  0.33024066  0.87550483  1
  In  In34  1  0.83512517  0.66705389  0.37328301  1
  In  In35  1  0.87256367  0.63431468  0.91035881  1
  In  In36  1  -0.00178302  0.15353422  0.37240651  1
  In  In37  1  -0.00057164  0.16733709  0.87353366  1
  In  In38  1  -0.01146379  0.50740519  0.38421656  1
  In  In39  1  0.00138974  0.49039085  0.87497740  1
  In  In40  1  -0.01082320  0.81812505  0.36207046  1
  In  In41  1  -0.01551745  0.82514612  0.86810782  1
  In  In42  1  0.32290722  0.17124653  0.37252487  1
  In  In43  1  0.33717104  0.16624502  0.88650480  1
  In  In44  1  0.34141892  0.48707919  0.38711017  1
  In  In45  1  0.32253302  0.48815294  0.87423235  1
  In  In46  1  0.34383382  0.84542140  0.37952090  1
  In  In47  1  0.33677766  0.83421551  0.86976761  1
  In  In48  1  0.67677264  0.18015142  0.36684001  1
  In  In49  1  0.65849286  0.17667339  0.88091750  1
  In  In50  1  0.67008239  0.49931328  0.37204856  1
  In  In51  1  0.68379208  0.50088209  0.87393732  1
  In  In52  1  0.67187814  0.83341698  0.37282765  1
  In  In53  1  0.67998129  0.84613031  0.87495329  1
  In  In54  1  0.15419159  -0.00107571  0.12332561  1
  In  In55  1  0.15737814  -0.00424805  0.62867746  1
  In  In56  1  0.17215841  0.33977704  0.12227331  1
  In  In57  1  0.15285029  0.32771991  0.62660738  1
  In  In58  1  0.15998350  0.66253283  0.12654756  1
  In  In59  1  0.16034998  0.65424766  0.62327629  1
  In  In60  1  0.50268441  0.02036612  0.12393852  1
  In  In61  1  0.50972401  0.00089625  0.61920189  1
  In  In62  1  0.51265392  0.32388801  0.13363792  1
  In  In63  1  0.49638492  0.34549733  0.62314241  1
  In  In64  1  0.50480995  0.67763672  0.13093587  1
  In  In65  1  0.50380469  0.66413653  0.61118002  1
  In  In66  1  0.83357804  -0.00080947  0.12900424  1
  In  In67  1  0.83825911  0.00502732  0.61769550  1
  In  In68  1  0.82973288  0.32905460  0.11915160  1
  In  In69  1  0.83428605  0.33175580  0.62671515  1
  In  In70  1  0.83932805  0.66770908  0.12554125  1
  In  In71  1  0.83543499  0.66996608  0.61972324  1
  In  In72  1  0.32951685  0.33113541  0.74976275  1
  In  In73  1  0.67041757  0.00334978  0.74762312  1
  In  In74  1  0.33404210  0.00244864  0.25132867  1
  In  In75  1  0.16168513  0.83704621  0.00682071  1
  In  In76  1  0.50848054  0.83883412  -0.00155778  1
  In  In77  1  0.32276210  0.00327934  0.75803386  1
  In  In78  1  0.50188649  0.49699160  0.00130824  1
  In  In79  1  0.32111760  0.65541621  0.73306329  1
  In  In80  1  0.33045821  0.66179853  0.24716369  1
  In  In81  1  0.16604831  0.83294406  0.49439165  1
  In  In82  1  0.67824229  0.66681962  0.75116485  1
  In  In83  1  -0.00210262  0.33373989  0.24503877  1
  In  In84  1  0.16323965  0.16926821  0.50085630  1
  In  In85  1  0.49908076  0.16829791  0.49892008  1
  Cu  Cu86  1  0.67328064  0.33140250  0.49687882  1
  Cu  Cu87  1  0.66721976  0.32991240  0.00251576  1
  Cu  Cu88  1  0.50353478  0.17156941  0.24869067  1
  Cu  Cu89  1  0.32411668  0.66175201  0.00202346  1
  Cu  Cu90  1  0.15697124  0.50187556  0.75138510  1
  Cu  Cu91  1  0.67649143  0.66924095  0.00953246  1
  Cu  Cu92  1  0.67238790  0.00513702  0.00507525  1
  Cu  Cu93  1  0.83324185  0.16732491  0.75324020  1
  Cu  Cu94  1  0.83590727  0.82812003  0.75204637  1
  Cu  Cu95  1  -0.00326907  0.00247056  0.00136028  1
  Cu  Cu96  1  0.33867498  0.66838128  0.49652519  1
  Cu  Cu97  1  0.66896638  -0.00211348  0.49587201  1
  Cu  Cu98  1  0.49741221  0.83352134  0.73949551  1
  Cu  Cu99  1  0.50835907  0.83398099  0.25477656  1
  Cu  Cu100  1  0.50866470  0.49911753  0.74205478  1
  Cu  Cu101  1  0.83326301  0.16649321  0.24531833  1
  Cu  Cu102  1  0.50074276  0.49735757  0.25640436  1
  Cu  Cu103  1  0.16563854  0.16838682  0.24685143  1
  Cu  Cu104  1  0.67286060  0.66609221  0.49152844  1
  Cu  Cu105  1  0.83537726  0.50640976  0.25312051  1
  Cu  Cu106  1  -0.00433310  -0.00193787  0.49829714  1
  Cu  Cu107  1  -0.00213350  0.33025995  -0.00177841  1
  Cu  Cu108  1  0.83465113  0.83613487  0.25185427  1
  Cu  Cu109  1  -0.00231882  0.33293168  0.50687850  1
  Cu  Cu110  1  0.15073520  0.83911441  0.75295428  1
  Cu  Cu111  1  0.16368946  0.49827278  0.24863213  1
  Cu  Cu112  1  -0.00437340  0.66571496  0.49891212  1
  Cu  Cu113  1  0.33131517  0.33343730  0.00060528  1
  Cu  Cu114  1  0.84022125  0.49331710  0.75361499  1
  Se  Se115  1  0.08597224  0.08545755  0.04947977  1
  Se  Se116  1  0.07202133  0.08010446  0.55978268  1
  Se  Se117  1  0.08096464  0.41276276  0.05381917  1
  Se  Se118  1  0.08209377  0.41744272  0.55726697  1
  Se  Se119  1  0.06976368  0.74441047  0.05946276  1
  Se  Se120  1  0.07583897  0.74858707  0.55902799  1
  Se  Se121  1  0.41919295  0.08206243  0.04827486  1
  Se  Se122  1  0.40684969  0.07878320  0.55886525  1
  Se  Se123  1  0.41282319  0.41089109  0.06389638  1
  Se  Se124  1  0.42761669  0.41743186  0.54380814  1
  Se  Se125  1  0.41067935  0.74320837  0.05473108  1
  Se  Se126  1  0.42071572  0.75388312  0.54836537  1
  Se  Se127  1  0.75612570  0.08699295  0.05897774  1
  Se  Se128  1  0.74950576  0.08313554  0.55015916  1
  Se  Se129  1  0.74774762  0.41817393  0.05326445  1
  Se  Se130  1  0.75609073  0.41340507  0.55308896  1
  Se  Se131  1  0.75613068  0.75759437  0.05891656  1
  Se  Se132  1  0.75491677  0.74906927  0.54739789  1
  Se  Se133  1  0.24884343  0.24964921  0.05436733  1
  Se  Se134  1  0.25621329  0.26310207  0.55613767  1
  Se  Se135  1  0.24016613  0.58155248  0.05446983  1
  Se  Se136  1  0.25188112  0.59041529  0.55134426  1
  Se  Se137  1  0.26020774  0.92791063  0.05786661  1
  Se  Se138  1  0.25109715  0.92663668  0.55631929  1
  Se  Se139  1  0.58303793  0.24701786  0.05544091  1
  Se  Se140  1  0.59253088  0.25353540  0.56022241  1
  Se  Se141  1  0.58799130  0.59023436  0.06274469  1
  Se  Se142  1  0.59056944  0.58221787  0.54718158  1
  Se  Se143  1  0.59366870  0.92101293  0.06608526  1
  Se  Se144  1  0.58198495  0.91630092  0.54745466  1
  Se  Se145  1  0.91230425  0.24762039  0.05016924  1
  Se  Se146  1  0.91852738  0.24443915  0.55914439  1
  Se  Se147  1  0.90639847  0.58096405  0.05025129  1
  Se  Se148  1  0.91551681  0.58046986  0.55437903  1
  Se  Se149  1  0.91966521  0.91875311  0.05945626  1
  Se  Se150  1  0.91348124  0.91188100  0.55132922  1
  Se  Se151  1  0.07279618  0.25736751  0.43790103  1
  Se  Se152  1  0.08300205  0.24691144  0.94602521  1
  Se  Se153  1  0.08342449  0.58335073  0.44947180  1
  Se  Se154  1  0.08087641  0.57294913  0.94724778  1
  Se  Se155  1  0.07434842  0.92115202  0.43507335  1
  Se  Se156  1  0.07413535  0.91949990  0.93883030  1
  Se  Se157  1  0.40804839  0.25699263  0.43995966  1
  Se  Se158  1  0.42149145  0.25620617  0.94848351  1
  Se  Se159  1  0.42263221  0.58236452  0.44634587  1
  Se  Se160  1  0.40825935  0.58797971  0.93954198  1
  Se  Se161  1  0.41532724  0.92210097  0.45470758  1
  Se  Se162  1  0.40904570  0.92228845  0.94246753  1
  Se  Se163  1  0.75638587  0.24494589  0.44685505  1
  Se  Se164  1  0.75150644  0.24769978  0.94831504  1
  Se  Se165  1  0.75568352  0.57923652  0.44138434  1
  Se  Se166  1  0.74817000  0.57837387  0.95365875  1
  Se  Se167  1  0.75395627  0.91455412  0.44407856  1
  Se  Se168  1  0.75284783  0.91721582  0.95362446  1
  Se  Se169  1  0.25548358  0.07490835  0.44379831  1
  Se  Se170  1  0.26020760  0.07400981  0.94895777  1
  Se  Se171  1  0.24025376  0.42267660  0.45117054  1
  Se  Se172  1  0.24630492  0.41903462  0.95170944  1
  Se  Se173  1  0.25576145  0.74152725  0.43336687  1
  Se  Se174  1  0.25327253  0.74754498  0.93965837  1
  Se  Se175  1  0.59133840  0.08335841  0.43642628  1
  Se  Se176  1  0.58601124  0.08255012  0.94941538  1
  Se  Se177  1  0.58956837  0.41417123  0.44283559  1
  Se  Se178  1  0.59006371  0.41025110  0.93825753  1
  Se  Se179  1  0.58654662  0.75193358  0.44259070  1
  Se  Se180  1  0.59870242  0.74218615  0.94182383  1
  Se  Se181  1  0.91365157  0.08461298  0.44613512  1
  Se  Se182  1  0.91634935  0.08840168  0.94701625  1
  Se  Se183  1  0.91494343  0.41555864  0.45112495  1
  Se  Se184  1  0.91346993  0.41328549  0.94510578  1
  Se  Se185  1  0.91687196  0.75147934  0.44411507  1
  Se  Se186  1  0.90870588  0.76510740  0.94993132  1
  Se  Se187  1  0.24718107  0.25229795  0.29997322  1
  Se  Se188  1  0.24717559  0.24379494  0.81529266  1
  Se  Se189  1  0.24630818  0.57360994  0.31190732  1
  Se  Se190  1  0.23924797  0.58286443  0.81063235  1
  Se  Se191  1  0.24543507  0.90727451  0.30793964  1
  Se  Se192  1  0.23166694  0.91213383  0.81592190  1
  Se  Se193  1  0.58670240  0.25712395  0.30052663  1
  Se  Se194  1  0.59052790  0.24815185  0.79956071  1
  Se  Se195  1  0.58735190  0.58343473  0.30204051  1
  Se  Se196  1  0.57704313  0.58009261  0.80864019  1
  Se  Se197  1  0.58862337  0.92155901  0.30535043  1
  Se  Se198  1  0.57502384  0.90769329  0.80475141  1
  Se  Se199  1  0.91040986  0.24736240  0.30940151  1
  Se  Se200  1  0.91673433  0.25223787  0.80504894  1
  Se  Se201  1  0.92305680  0.58627162  0.30447551  1
  Se  Se202  1  0.91450307  0.58101548  0.81169526  1
  Se  Se203  1  0.91811387  0.92193184  0.30357573  1
  Se  Se204  1  0.91333904  0.92146571  0.80163093  1
  Se  Se205  1  0.08190719  0.08356091  0.29715388  1
  Se  Se206  1  0.07438641  0.08163262  0.80094279  1
  Se  Se207  1  0.08211392  0.42116583  0.31146458  1
  Se  Se208  1  0.08324301  0.40975046  0.80328689  1
  Se  Se209  1  0.08617530  0.75084693  0.29633210  1
  Se  Se210  1  0.07359212  0.74583313  0.80126199  1
  Se  Se211  1  0.42652641  0.09096664  0.31256525  1
  Se  Se212  1  0.42379151  0.09130826  0.80830356  1
  Se  Se213  1  0.41326805  0.41596456  0.30603694  1
  Se  Se214  1  0.42536107  0.42564028  0.80620028  1
  Se  Se215  1  0.42063241  0.75309365  0.30856641  1
  Se  Se216  1  0.41586974  0.74821625  0.79446515  1
  Se  Se217  1  0.75146737  0.08482027  0.30300203  1
  Se  Se218  1  0.75554750  0.08572719  0.81537313  1
  Se  Se219  1  0.75308731  0.41658033  0.30134943  1
  Se  Se220  1  0.74988844  0.41248036  0.80225198  1
  Se  Se221  1  0.75218671  0.74906230  0.30357266  1
  Se  Se222  1  0.76374684  0.74948334  0.81726346  1
  Se  Se223  1  0.24969179  0.09038508  0.18626186  1
  Se  Se224  1  0.23829615  0.09313796  0.69312456  1
  Se  Se225  1  0.24955526  0.41224149  0.20113979  1
  Se  Se226  1  0.24458668  0.42802318  0.69052641  1
  Se  Se227  1  0.24102178  0.75830103  0.19300803  1
  Se  Se228  1  0.23301177  0.76373874  0.68964636  1
  Se  Se229  1  0.58756773  0.08626490  0.19864648  1
  Se  Se230  1  0.57334124  0.09237298  0.69374949  1
  Se  Se231  1  0.58546754  0.41847874  0.19855370  1
  Se  Se232  1  0.59049394  0.41223253  0.69323240  1
  Se  Se233  1  0.58891927  0.74533799  0.20482519  1
  Se  Se234  1  0.58271003  0.75139281  0.68693795  1
  Se  Se235  1  0.92026271  0.08211526  0.19753218  1
  Se  Se236  1  0.90996769  0.08063264  0.69636856  1
  Se  Se237  1  0.91040350  0.42682311  0.18691479  1
  Se  Se238  1  0.92064830  0.41011353  0.69727742  1
  Se  Se239  1  0.91704835  0.75220735  0.19722774  1
  Se  Se240  1  0.91468850  0.74137727  0.69725597  1
  Se  Se241  1  0.08347759  0.24215653  0.18351790  1
  Se  Se242  1  0.09435873  0.24575209  0.70477625  1
  Se  Se243  1  0.07917793  0.57897683  0.19539715  1
  Se  Se244  1  0.07580952  0.58578998  0.69711522  1
  Se  Se245  1  0.09171122  0.91768002  0.20005916  1
  Se  Se246  1  0.07032480  0.92169641  0.69761475  1
  Se  Se247  1  0.41400066  0.25074197  0.19704231  1
  Se  Se248  1  0.42624705  0.24506969  0.69231615  1
  Se  Se249  1  0.42374774  0.57185274  0.18786889  1
  Se  Se250  1  0.42351309  0.57047267  0.68095566  1
  Se  Se251  1  0.42897337  0.91160591  0.19147799  1
  Se  Se252  1  0.41327041  0.91738667  0.68803343  1
  Se  Se253  1  0.75157195  0.25486311  0.19566242  1
  Se  Se254  1  0.75091587  0.24872626  0.69738091  1
  Se  Se255  1  0.75279082  0.58950430  0.19707792  1
  Se  Se256  1  0.75872989  0.57101025  0.69001597  1
  Se  Se257  1  0.74971266  0.92227462  0.20167245  1
  Se  Se258  1  0.75462130  0.90594331  0.68922818  1
