# generated using pymatgen
data_In86Cu29Se144
_symmetry_space_group_name_H-M   'P 1'
_cell_length_a   17.58648828
_cell_length_b   17.58726439
_cell_length_c   23.44861787
_cell_angle_alpha   90.00223133
_cell_angle_beta   89.98258579
_cell_angle_gamma   90.02876441
_symmetry_Int_Tables_number   1
_chemical_formula_structural   In86Cu29Se144
_chemical_formula_sum   'In86 Cu29 Se144'
_cell_volume   7252.61449249
_cell_formula_units_Z   1
loop_
 _symmetry_equiv_pos_site_id
 _symmetry_equiv_pos_as_xyz
  1  'x, y, z'
loop_
 _atom_site_type_symbol
 _atom_site_label
 _atom_site_symmetry_multiplicity
 _atom_site_fract_x
 _atom_site_fract_y
 _atom_site_fract_z
 _atom_site_occupancy
  In  In0  1  0.02168645  0.16787675  0.12132238  1
  In  In1  1  0.00114797  0.15779686  0.64220040  1
  In  In2  1  0.00936036  0.49610301  0.13077035  1
  In  In3  1  0.00261210  0.50298336  0.62419070  1
  In  In4  1  -0.00975753  0.83238332  0.12634284  1
  In  In5  1  0.00121513  0.83063758  0.62563782  1
  In  In6  1  0.32830781  0.16245730  0.11758456  1
  In  In7  1  0.33650429  0.16098738  0.63740911  1
  In  In8  1  0.33749093  0.51554045  0.11130978  1
  In  In9  1  0.31525687  0.51692017  0.63621747  1
  In  In10  1  0.33689921  0.82856539  0.12951411  1
  In  In11  1  0.31341792  0.84458226  0.64363077  1
  In  In12  1  0.65481340  0.16468381  0.12041839  1
  In  In13  1  0.66511417  0.15947177  0.63118302  1
  In  In14  1  0.66738489  0.51342327  0.12649210  1
  In  In15  1  0.68602020  0.49938798  0.62165771  1
  In  In16  1  0.66813004  0.83297875  0.13022545  1
  In  In17  1  0.67324209  0.82364172  0.62887395  1
  In  In18  1  0.16505408  -0.01388677  0.37743351  1
  In  In19  1  0.17416168  0.00271786  0.86867075  1
  In  In20  1  0.16470600  0.35271443  0.37831948  1
  In  In21  1  0.16657239  0.33295208  0.87348328  1
  In  In22  1  0.16286993  0.66801164  0.37459786  1
  In  In23  1  0.16046544  0.66202260  0.86898969  1
  In  In24  1  0.49601277  -0.01046463  0.36691878  1
  In  In25  1  0.50263759  0.00513954  0.87484996  1
  In  In26  1  0.49581232  0.32539931  0.37066422  1
  In  In27  1  0.48403436  0.34270362  0.88504629  1
  In  In28  1  0.50317353  0.67389421  0.36460473  1
  In  In29  1  0.48993693  0.65539068  0.87008659  1
  In  In30  1  0.82337813  -0.00149518  0.37554677  1
  In  In31  1  0.82832025  0.00702216  0.86369354  1
  In  In32  1  0.85220335  0.32919307  0.37313253  1
  In  In33  1  0.84651952  0.32396662  0.86738999  1
  In  In34  1  0.83686318  0.66842073  0.37924859  1
  In  In35  1  0.84010825  0.67417524  0.86518766  1
  In  In36  1  -0.01402252  0.17011062  0.36644304  1
  In  In37  1  0.00375469  0.17716880  0.86654121  1
  In  In38  1  0.00071511  0.50371844  0.37623922  1
  In  In39  1  0.01135729  0.50945436  0.86666114  1
  In  In40  1  0.01516767  0.82314095  0.38736640  1
  In  In41  1  0.01594149  0.83917846  0.85411665  1
  In  In42  1  0.34064302  0.16036502  0.37526441  1
  In  In43  1  0.33129186  0.16539794  0.87708155  1
  In  In44  1  0.31591938  0.50504581  0.37857041  1
  In  In45  1  0.33422215  0.50016537  0.87711851  1
  In  In46  1  0.32787919  0.82804153  0.37045196  1
  In  In47  1  0.32064147  0.82591592  0.86045747  1
  In  In48  1  0.68150152  0.13892510  0.37105114  1
  In  In49  1  0.65842600  0.14744428  0.87959072  1
  In  In50  1  0.66423664  0.51692645  0.37525160  1
  In  In51  1  0.65233810  0.49853107  0.87707853  1
  In  In52  1  0.67205847  0.84011380  0.37270751  1
  In  In53  1  0.67256875  0.83784511  0.86808549  1
  In  In54  1  0.17033721  0.01808250  0.11903414  1
  In  In55  1  0.17298818  -0.01725769  0.64287537  1
  In  In56  1  0.16644630  0.33499575  0.11923179  1
  In  In57  1  0.15509575  0.34580903  0.63270580  1
  In  In58  1  0.17374966  0.65694993  0.12990775  1
  In  In59  1  0.16718396  0.66676944  0.62480625  1
  In  In60  1  0.49775767  -0.00038052  0.12364192  1
  In  In61  1  0.49509219  0.00081141  0.63475617  1
  In  In62  1  0.49065103  0.33001481  0.11504574  1
  In  In63  1  0.49863834  0.32541754  0.63298681  1
  In  In64  1  0.50118716  0.66772182  0.12457564  1
  In  In65  1  0.49027718  0.67747345  0.63389114  1
  In  In66  1  0.83497833  -0.00602447  0.12556973  1
  In  In67  1  0.85736500  -0.01977267  0.64366895  1
  In  In68  1  0.83659776  0.34204728  0.13005442  1
  In  In69  1  0.84033374  0.34778275  0.62009887  1
  In  In70  1  0.83320832  0.67207517  0.13609872  1
  In  In71  1  0.83892192  0.66702919  0.62411814  1
  In  In72  1  0.49797432  0.16384703  0.51150627  1
  In  In73  1  0.49418819  0.83096494  0.49532937  1
  In  In74  1  0.83822089  0.83802638  -0.00595912  1
  In  In75  1  0.00232020  -0.00027921  0.24826845  1
  In  In76  1  0.66934659  0.33300877  0.24586788  1
  In  In77  1  0.66790495  0.33448212  0.75589794  1
  In  In78  1  0.83264894  0.16518937  0.50002189  1
  In  In79  1  0.83360617  0.50129278  0.00286291  1
  In  In80  1  0.16713307  0.83040463  -0.01280417  1
  In  In81  1  0.49722840  0.50501338  0.50531052  1
  In  In82  1  0.83560574  0.16740433  -0.00421138  1
  In  In83  1  0.16484737  0.16548873  0.50358466  1
  In  In84  1  0.32774552  0.33667625  0.24545607  1
  In  In85  1  0.49781173  0.83221266  0.00065789  1
  Cu  Cu86  1  0.67248745  0.33930831  0.49487134  1
  Cu  Cu87  1  0.00716027  0.33564604  -0.00287814  1
  Cu  Cu88  1  0.49560644  0.16576829  0.75754677  1
  Cu  Cu89  1  0.50288654  0.83435531  0.24645761  1
  Cu  Cu90  1  0.16117832  0.50847609  0.25257784  1
  Cu  Cu91  1  0.67826568  0.66434834  0.50361578  1
  Cu  Cu92  1  0.33276373  -0.00186175  -0.00339288  1
  Cu  Cu93  1  0.00244280  0.33654495  0.50034140  1
  Cu  Cu94  1  0.32710073  0.33875422  0.50965019  1
  Cu  Cu95  1  0.16801921  0.49512898  0.75109037  1
  Cu  Cu96  1  0.16803356  0.83209791  0.25137764  1
  Cu  Cu97  1  0.50061966  0.50212151  0.75561951  1
  Cu  Cu98  1  0.17127687  0.16808738  0.75436894  1
  Cu  Cu99  1  0.83999612  0.50486118  0.74526486  1
  Cu  Cu100  1  0.00055272  0.66415490  0.50271131  1
  Cu  Cu101  1  0.49502194  0.50649330  0.24605784  1
  Cu  Cu102  1  0.83593116  0.50394200  0.25339041  1
  Cu  Cu103  1  0.00482969  0.66556161  -0.00273708  1
  Cu  Cu104  1  0.32559496  0.32963386  -0.00445812  1
  Cu  Cu105  1  0.65789026  0.32905349  -0.00325617  1
  Cu  Cu106  1  0.50377735  0.15476017  0.24885500  1
  Cu  Cu107  1  0.32378761  0.66876711  0.49956227  1
  Cu  Cu108  1  0.66238394  0.66489041  -0.00066508  1
  Cu  Cu109  1  0.00069249  -0.00866853  0.50814615  1
  Cu  Cu110  1  0.83735225  0.83049085  0.25605950  1
  Cu  Cu111  1  0.82642258  0.82922101  0.74403023  1
  Cu  Cu112  1  0.50376506  0.83523940  0.75438420  1
  Cu  Cu113  1  0.66672429  -0.00652481  0.50200607  1
  Cu  Cu114  1  0.17136293  0.17107247  0.24416791  1
  Se  Se115  1  0.08402084  0.08337436  0.04613628  1
  Se  Se116  1  0.07692434  0.07742113  0.56520377  1
  Se  Se117  1  0.08367200  0.42242568  0.05278889  1
  Se  Se118  1  0.08558635  0.41984558  0.55293241  1
  Se  Se119  1  0.07960312  0.74945345  0.05898622  1
  Se  Se120  1  0.08351995  0.74883692  0.55593794  1
  Se  Se121  1  0.41574856  0.07920347  0.05269006  1
  Se  Se122  1  0.40237231  0.07017006  0.55967402  1
  Se  Se123  1  0.40833857  0.41432031  0.04993091  1
  Se  Se124  1  0.41146482  0.41571493  0.56845449  1
  Se  Se125  1  0.40455572  0.73923611  0.05337040  1
  Se  Se126  1  0.40366847  0.74846662  0.55923968  1
  Se  Se127  1  0.74734566  0.07719824  0.05672376  1
  Se  Se128  1  0.74677469  0.07446056  0.56140666  1
  Se  Se129  1  0.73795903  0.40838551  0.05803004  1
  Se  Se130  1  0.75837167  0.42080363  0.54538364  1
  Se  Se131  1  0.74836777  0.74409707  0.05598135  1
  Se  Se132  1  0.75666417  0.75329746  0.55480349  1
  Se  Se133  1  0.24457278  0.24692089  0.05210760  1
  Se  Se134  1  0.25333370  0.25206299  0.56786504  1
  Se  Se135  1  0.23452468  0.57976260  0.04919290  1
  Se  Se136  1  0.24541899  0.58028959  0.55191596  1
  Se  Se137  1  0.25393528  0.91597362  0.05701497  1
  Se  Se138  1  0.24493704  0.91409130  0.56226072  1
  Se  Se139  1  0.57568650  0.24548446  0.04984606  1
  Se  Se140  1  0.59651659  0.26110894  0.55849498  1
  Se  Se141  1  0.58111963  0.58270564  0.05381754  1
  Se  Se142  1  0.58935680  0.59397288  0.56410385  1
  Se  Se143  1  0.59390802  0.91932569  0.05638867  1
  Se  Se144  1  0.58150211  0.91821054  0.56158764  1
  Se  Se145  1  0.92206585  0.26087843  0.05788917  1
  Se  Se146  1  0.92872223  0.24945240  0.56013898  1
  Se  Se147  1  0.92161851  0.59430947  0.06160906  1
  Se  Se148  1  0.91587154  0.57999809  0.55410270  1
  Se  Se149  1  0.93058016  0.92916342  0.05224181  1
  Se  Se150  1  0.91081307  0.91040164  0.55620371  1
  Se  Se151  1  0.07590455  0.25229410  0.43821876  1
  Se  Se152  1  0.08412133  0.24818614  0.94334164  1
  Se  Se153  1  0.08486855  0.58364929  0.44595197  1
  Se  Se154  1  0.08647662  0.58081012  0.94546889  1
  Se  Se155  1  0.08990842  0.91406732  0.45538788  1
  Se  Se156  1  0.07413534  0.92404034  0.93613875  1
  Se  Se157  1  0.40755388  0.25927002  0.44957531  1
  Se  Se158  1  0.41447921  0.24438589  0.94922892  1
  Se  Se159  1  0.41296341  0.59501900  0.44016097  1
  Se  Se160  1  0.42573999  0.57337323  0.94607126  1
  Se  Se161  1  0.40440056  0.92528204  0.44141253  1
  Se  Se162  1  0.40427951  0.91273834  0.93538512  1
  Se  Se163  1  0.74244288  0.25171424  0.43440114  1
  Se  Se164  1  0.74351228  0.25885442  0.93606987  1
  Se  Se165  1  0.75500472  0.57968187  0.44741516  1
  Se  Se166  1  0.74965695  0.59199146  0.93854047  1
  Se  Se167  1  0.75210646  0.91321279  0.44893874  1
  Se  Se168  1  0.74414877  0.92907420  0.94144748  1
  Se  Se169  1  0.25477867  0.07732451  0.44319926  1
  Se  Se170  1  0.24678764  0.08121231  0.94556969  1
  Se  Se171  1  0.24764145  0.42129330  0.45389964  1
  Se  Se172  1  0.24609109  0.41696724  0.94352130  1
  Se  Se173  1  0.24536428  0.75349605  0.44349899  1
  Se  Se174  1  0.26020239  0.73448203  0.93868214  1
  Se  Se175  1  0.58408835  0.07403570  0.44393197  1
  Se  Se176  1  0.57634292  0.07790757  0.95318486  1
  Se  Se177  1  0.58166183  0.41172748  0.43906242  1
  Se  Se178  1  0.57657766  0.42067896  0.95079854  1
  Se  Se179  1  0.59288136  0.74015361  0.44300622  1
  Se  Se180  1  0.58905897  0.74722667  0.93708483  1
  Se  Se181  1  0.92732862  0.07296492  0.44288756  1
  Se  Se182  1  0.92259152  0.08017030  0.93393242  1
  Se  Se183  1  0.91830747  0.41703045  0.44561517  1
  Se  Se184  1  0.92235966  0.41445274  0.93935850  1
  Se  Se185  1  0.91768184  0.75036795  0.45035714  1
  Se  Se186  1  0.93242400  0.74964283  0.93608261  1
  Se  Se187  1  0.24425663  0.24837979  0.31382600  1
  Se  Se188  1  0.25481931  0.25216599  0.80663248  1
  Se  Se189  1  0.25015115  0.58873407  0.30363899  1
  Se  Se190  1  0.25039207  0.57844799  0.80567542  1
  Se  Se191  1  0.24989645  0.91880042  0.30246042  1
  Se  Se192  1  0.23318436  0.90597563  0.79745135  1
  Se  Se193  1  0.58366285  0.23565716  0.30917436  1
  Se  Se194  1  0.57464484  0.24961338  0.81697094  1
  Se  Se195  1  0.58340629  0.58519707  0.29865535  1
  Se  Se196  1  0.58858133  0.58618209  0.80282709  1
  Se  Se197  1  0.58792002  0.91640277  0.30091754  1
  Se  Se198  1  0.58488417  0.92212923  0.80539327  1
  Se  Se199  1  0.91278251  0.24983013  0.29407382  1
  Se  Se200  1  0.91713234  0.24682377  0.79271494  1
  Se  Se201  1  0.91840942  0.58727908  0.30765781  1
  Se  Se202  1  0.92268486  0.58811122  0.80017489  1
  Se  Se203  1  0.92065996  0.91017770  0.31503864  1
  Se  Se204  1  0.90631109  0.91094682  0.80250092  1
  Se  Se205  1  0.09368979  0.09110388  0.30952218  1
  Se  Se206  1  0.08421887  0.08407092  0.80350500  1
  Se  Se207  1  0.08102834  0.41936370  0.30365389  1
  Se  Se208  1  0.08119745  0.41170117  0.80212049  1
  Se  Se209  1  0.08154755  0.75231594  0.30427108  1
  Se  Se210  1  0.08743996  0.74226165  0.79389437  1
  Se  Se211  1  0.41420761  0.07888663  0.30240582  1
  Se  Se212  1  0.41136380  0.07916681  0.80713593  1
  Se  Se213  1  0.41912777  0.42637023  0.30942751  1
  Se  Se214  1  0.41603286  0.41659347  0.80472986  1
  Se  Se215  1  0.41575308  0.75347508  0.29981212  1
  Se  Se216  1  0.41888519  0.74763154  0.80163657  1
  Se  Se217  1  0.76456046  0.07831291  0.29479386  1
  Se  Se218  1  0.74607608  0.09655751  0.80138858  1
  Se  Se219  1  0.75250248  0.42248244  0.31205439  1
  Se  Se220  1  0.76110635  0.42951945  0.81223183  1
  Se  Se221  1  0.75102119  0.74841146  0.30876399  1
  Se  Se222  1  0.74508521  0.74603629  0.80019647  1
  Se  Se223  1  0.25427407  0.08476973  0.19532679  1
  Se  Se224  1  0.25200905  0.07887440  0.70374514  1
  Se  Se225  1  0.24312285  0.43206231  0.18881892  1
  Se  Se226  1  0.25447334  0.41107108  0.69921486  1
  Se  Se227  1  0.25022553  0.74827854  0.19627859  1
  Se  Se228  1  0.26920168  0.72324238  0.69357126  1
  Se  Se229  1  0.58780955  0.07588711  0.19353363  1
  Se  Se230  1  0.57922845  0.08544226  0.70091262  1
  Se  Se231  1  0.57165786  0.42006203  0.18812303  1
  Se  Se232  1  0.58222038  0.42659239  0.69095175  1
  Se  Se233  1  0.58487374  0.74730221  0.19472062  1
  Se  Se234  1  0.58427556  0.75033961  0.69891155  1
  Se  Se235  1  0.91971639  0.09126369  0.18507340  1
  Se  Se236  1  0.89493515  0.09802768  0.70231822  1
  Se  Se237  1  0.91818190  0.42098216  0.19923068  1
  Se  Se238  1  0.92200850  0.41746825  0.69530760  1
  Se  Se239  1  0.92259735  0.74990300  0.20253102  1
  Se  Se240  1  0.91769533  0.74831006  0.69603288  1
  Se  Se241  1  0.08811427  0.25672640  0.19476345  1
  Se  Se242  1  0.08707437  0.24934748  0.69985300  1
  Se  Se243  1  0.07693679  0.59158588  0.19911889  1
  Se  Se244  1  0.08745263  0.57988347  0.69484068  1
  Se  Se245  1  0.09457031  0.91317365  0.18575264  1
  Se  Se246  1  0.05231764  0.93723795  0.69358643  1
  Se  Se247  1  0.42308495  0.24163594  0.19369432  1
  Se  Se248  1  0.41502521  0.25116768  0.70370692  1
  Se  Se249  1  0.41167891  0.58677351  0.19128418  1
  Se  Se250  1  0.41826556  0.58234917  0.69867566  1
  Se  Se251  1  0.41758189  0.91708410  0.19405681  1
  Se  Se252  1  0.41556605  0.91681456  0.70329380  1
  Se  Se253  1  0.75532240  0.24008106  0.18696729  1
  Se  Se254  1  0.75382555  0.25583911  0.68622919  1
  Se  Se255  1  0.74948354  0.58476795  0.20040690  1
  Se  Se256  1  0.75225843  0.58596749  0.69481218  1
  Se  Se257  1  0.75792728  0.91157950  0.19645602  1
  Se  Se258  1  0.74210112  0.91926608  0.69674307  1
