# generated using pymatgen
data_In86Cu29Se144
_symmetry_space_group_name_H-M   'P 1'
_cell_length_a   17.59170148
_cell_length_b   17.58876436
_cell_length_c   23.45922648
_cell_angle_alpha   90.00655885
_cell_angle_beta   89.99156469
_cell_angle_gamma   90.00145573
_symmetry_Int_Tables_number   1
_chemical_formula_structural   In86Cu29Se144
_chemical_formula_sum   'In86 Cu29 Se144'
_cell_volume   7258.66674218
_cell_formula_units_Z   1
loop_
 _symmetry_equiv_pos_site_id
 _symmetry_equiv_pos_as_xyz
  1  'x, y, z'
loop_
 _atom_site_type_symbol
 _atom_site_label
 _atom_site_symmetry_multiplicity
 _atom_site_fract_x
 _atom_site_fract_y
 _atom_site_fract_z
 _atom_site_occupancy
  In  In0  1  0.01406827  0.15327366  0.13886827  1
  In  In1  1  -0.00670906  0.15546983  0.61677451  1
  In  In2  1  -0.00737680  0.48747012  0.13466037  1
  In  In3  1  0.00134931  0.49942998  0.61641284  1
  In  In4  1  0.01148236  0.84152318  0.13093324  1
  In  In5  1  0.01273475  0.84287749  0.61633887  1
  In  In6  1  0.33692480  0.16673807  0.13145658  1
  In  In7  1  0.33331232  0.16438906  0.62217703  1
  In  In8  1  0.33580816  0.50094031  0.13677873  1
  In  In9  1  0.32249602  0.48321690  0.61746336  1
  In  In10  1  0.34388882  0.83762941  0.13705799  1
  In  In11  1  0.34492693  0.84111239  0.61625082  1
  In  In12  1  0.64000825  0.17044018  0.12130925  1
  In  In13  1  0.66331713  0.16293713  0.61993355  1
  In  In14  1  0.66477523  0.49768728  0.12687719  1
  In  In15  1  0.67495624  0.50532298  0.62062308  1
  In  In16  1  0.66140486  0.84450088  0.12404299  1
  In  In17  1  0.65408999  0.84543063  0.62967721  1
  In  In18  1  0.17014373  0.00324620  0.38040974  1
  In  In19  1  0.18793331  0.01824402  0.85924068  1
  In  In20  1  0.16824559  0.33153656  0.37654303  1
  In  In21  1  0.16035960  0.31429547  0.87406251  1
  In  In22  1  0.17733588  0.65626463  0.38450349  1
  In  In23  1  0.17612472  0.66798175  0.87065390  1
  In  In24  1  0.50010641  -0.00089355  0.37225522  1
  In  In25  1  0.49837364  0.00013343  0.87520250  1
  In  In26  1  0.48983749  0.34164359  0.38189235  1
  In  In27  1  0.48682637  0.33723661  0.87203136  1
  In  In28  1  0.48081558  0.68508030  0.38732763  1
  In  In29  1  0.51165759  0.67126823  0.87234527  1
  In  In30  1  0.84715548  0.02521966  0.35490139  1
  In  In31  1  0.82736100  0.00550421  0.86030483  1
  In  In32  1  0.84854082  0.31302886  0.38649116  1
  In  In33  1  0.84363307  0.32693603  0.87355120  1
  In  In34  1  0.82483221  0.65990810  0.37579123  1
  In  In35  1  0.82347104  0.67253202  0.86920562  1
  In  In36  1  0.00153124  0.17201892  0.37359270  1
  In  In37  1  0.01259094  0.16808617  0.87145616  1
  In  In38  1  0.01496975  0.48415108  0.38685477  1
  In  In39  1  -0.00384893  0.48234776  0.86996814  1
  In  In40  1  0.00392170  0.85100646  0.37519387  1
  In  In41  1  -0.01153396  0.83843353  0.87510774  1
  In  In42  1  0.33266534  0.16676824  0.37795084  1
  In  In43  1  0.33246585  0.16368799  0.87645661  1
  In  In44  1  0.33197938  0.50196014  0.37628864  1
  In  In45  1  0.34236847  0.50009046  0.86645734  1
  In  In46  1  0.33825215  0.83246061  0.37373070  1
  In  In47  1  0.33693414  0.85448109  0.87690390  1
  In  In48  1  0.67265006  0.15758880  0.37949238  1
  In  In49  1  0.67261100  0.15312178  0.87184179  1
  In  In50  1  0.66615915  0.49767737  0.38622326  1
  In  In51  1  0.65471861  0.50475235  0.86646924  1
  In  In52  1  0.64528545  0.84886403  0.37634557  1
  In  In53  1  0.65427438  0.83059363  0.87023396  1
  In  In54  1  0.16824813  0.00763655  0.13348636  1
  In  In55  1  0.16793729  -0.00080350  0.62159506  1
  In  In56  1  0.18316570  0.31606494  0.13789350  1
  In  In57  1  0.18062822  0.34007952  0.61845829  1
  In  In58  1  0.17723584  0.68237006  0.12805385  1
  In  In59  1  0.16236859  0.66068557  0.61454899  1
  In  In60  1  0.49840807  0.00456179  0.13071148  1
  In  In61  1  0.49910704  0.00193986  0.62155491  1
  In  In62  1  0.49994817  0.31010961  0.12486170  1
  In  In63  1  0.48542094  0.31767041  0.61567912  1
  In  In64  1  0.49174439  0.66367023  0.12694352  1
  In  In65  1  0.51066662  0.67586547  0.61841879  1
  In  In66  1  0.82840359  0.01295815  0.14013247  1
  In  In67  1  0.82544155  0.01155882  0.63399150  1
  In  In68  1  0.83528833  0.33777548  0.13238246  1
  In  In69  1  0.83401548  0.33107750  0.61608659  1
  In  In70  1  0.81816872  0.66612765  0.12794976  1
  In  In71  1  0.82734683  0.65809961  0.62437771  1
  In  In72  1  -0.00264163  0.67178241  0.73381328  1
  In  In73  1  0.49765782  0.49621377  -0.00147153  1
  In  In74  1  0.66768933  0.32603166  0.25118378  1
  In  In75  1  0.83107340  0.16613169  -0.00253546  1
  In  In76  1  0.66175755  0.33060900  0.74188457  1
  In  In77  1  0.82844796  0.83712692  0.49303056  1
  In  In78  1  0.33343035  0.66680831  0.74214199  1
  In  In79  1  0.82503595  0.84040675  0.01076499  1
  In  In80  1  0.16341209  0.49386112  -0.00234634  1
  In  In81  1  0.17109345  0.85017909  0.00883070  1
  In  In82  1  0.00402336  0.32509969  0.74819936  1
  In  In83  1  0.66391997  0.66467827  0.25076483  1
  In  In84  1  0.82255795  0.50116485  0.00084145  1
  In  In85  1  0.00683592  0.66593968  0.25139727  1
  Cu  Cu86  1  0.82962583  0.50368387  0.74678129  1
  Cu  Cu87  1  0.49911236  0.50059291  0.74332916  1
  Cu  Cu88  1  0.33541370  0.00107673  0.49735483  1
  Cu  Cu89  1  0.49667873  0.84071853  0.74682516  1
  Cu  Cu90  1  -0.00186759  0.66725282  0.50108656  1
  Cu  Cu91  1  0.65744140  -0.00094278  -0.00201800  1
  Cu  Cu92  1  0.82835420  0.83840335  0.75105276  1
  Cu  Cu93  1  0.00086676  0.00520075  0.49537214  1
  Cu  Cu94  1  0.16420807  0.83490354  0.74513850  1
  Cu  Cu95  1  0.66808694  0.66464085  0.49777571  1
  Cu  Cu96  1  0.17199034  0.16249557  0.74528463  1
  Cu  Cu97  1  0.00393397  0.32918488  0.50030227  1
  Cu  Cu98  1  0.00525904  0.00377536  0.00183606  1
  Cu  Cu99  1  0.83278770  0.83472969  0.25368939  1
  Cu  Cu100  1  0.49876130  0.50160153  0.25730813  1
  Cu  Cu101  1  0.16905834  0.16730548  0.25834973  1
  Cu  Cu102  1  0.32875378  0.32488040  0.00070849  1
  Cu  Cu103  1  0.66672579  -0.00045085  0.49941673  1
  Cu  Cu104  1  0.66379164  0.33262067  0.50064599  1
  Cu  Cu105  1  0.49579557  0.16175696  0.74650152  1
  Cu  Cu106  1  0.33144715  0.33226062  0.49555342  1
  Cu  Cu107  1  0.49530984  0.16391272  0.25280795  1
  Cu  Cu108  1  0.33607099  0.66402343  0.50150019  1
  Cu  Cu109  1  -0.00340119  0.65935660  -0.00286436  1
  Cu  Cu110  1  0.16871336  0.49779354  0.25792377  1
  Cu  Cu111  1  0.00641565  0.32000711  0.00890719  1
  Cu  Cu112  1  0.17341273  0.83844801  0.25447718  1
  Cu  Cu113  1  0.84386390  0.48372509  0.26185354  1
  Cu  Cu114  1  0.33416828  0.67562371  0.00554459  1
  Se  Se115  1  0.08708090  0.08374937  0.05826690  1
  Se  Se116  1  0.08741555  0.08304031  0.55020502  1
  Se  Se117  1  0.08301109  0.40686727  0.06676053  1
  Se  Se118  1  0.08621416  0.41546834  0.55246331  1
  Se  Se119  1  0.07577874  0.74375342  0.05606405  1
  Se  Se120  1  0.08508520  0.75155454  0.54908425  1
  Se  Se121  1  0.44584877  0.11455349  0.06701717  1
  Se  Se122  1  0.41801052  0.08483587  0.55175523  1
  Se  Se123  1  0.40596893  0.41076107  0.06080450  1
  Se  Se124  1  0.41721780  0.41499675  0.54917389  1
  Se  Se125  1  0.41612122  0.75480428  0.06051088  1
  Se  Se126  1  0.42141129  0.75079300  0.54983313  1
  Se  Se127  1  0.74217090  0.07603667  0.05878437  1
  Se  Se128  1  0.75148829  0.08095410  0.55347394  1
  Se  Se129  1  0.73981747  0.40321323  0.05830234  1
  Se  Se130  1  0.75015255  0.41637862  0.55197896  1
  Se  Se131  1  0.73229093  0.73963115  0.05604144  1
  Se  Se132  1  0.74273956  0.75074557  0.55869189  1
  Se  Se133  1  0.25010237  0.24242061  0.05725550  1
  Se  Se134  1  0.25121400  0.24714593  0.55074168  1
  Se  Se135  1  0.25428024  0.58728402  0.05858424  1
  Se  Se136  1  0.25039422  0.57879081  0.55093350  1
  Se  Se137  1  0.26625730  0.93231396  0.06642101  1
  Se  Se138  1  0.25171159  0.91679587  0.55157396  1
  Se  Se139  1  0.58774402  0.26238717  0.04550593  1
  Se  Se140  1  0.58176417  0.24548847  0.55120204  1
  Se  Se141  1  0.58875582  0.58743345  0.05829649  1
  Se  Se142  1  0.58596318  0.58257880  0.55266363  1
  Se  Se143  1  0.57542660  0.92045635  0.05509338  1
  Se  Se144  1  0.58107883  0.91725206  0.55057670  1
  Se  Se145  1  0.91959519  0.24593121  0.06661926  1
  Se  Se146  1  0.91658499  0.24645496  0.55035416  1
  Se  Se147  1  0.91939999  0.58651626  0.06331782  1
  Se  Se148  1  0.91404705  0.58510629  0.55429729  1
  Se  Se149  1  0.92378133  0.92867612  0.06419421  1
  Se  Se150  1  0.91628335  0.92586606  0.55506181  1
  Se  Se151  1  0.08667879  0.24714400  0.44567287  1
  Se  Se152  1  0.08605412  0.23962011  0.95139463  1
  Se  Se153  1  0.08432758  0.58227539  0.45088795  1
  Se  Se154  1  0.07402008  0.58532923  0.93395140  1
  Se  Se155  1  0.08714168  0.91741471  0.45047607  1
  Se  Se156  1  0.07989670  0.92281312  0.93851053  1
  Se  Se157  1  0.41820484  0.24671801  0.44847932  1
  Se  Se158  1  0.41595444  0.25122863  0.94386464  1
  Se  Se159  1  0.41840885  0.57900972  0.44784506  1
  Se  Se160  1  0.40734762  0.59386724  0.94139975  1
  Se  Se161  1  0.41877044  0.91702002  0.44447043  1
  Se  Se162  1  0.41945661  0.92174845  0.94931012  1
  Se  Se163  1  0.74667639  0.24648223  0.44940147  1
  Se  Se164  1  0.74359311  0.25897626  0.93806819  1
  Se  Se165  1  0.75562501  0.58010550  0.45144689  1
  Se  Se166  1  0.73678330  0.59102611  0.93932213  1
  Se  Se167  1  0.74879477  0.93186564  0.43106439  1
  Se  Se168  1  0.74648517  0.92465264  0.93888589  1
  Se  Se169  1  0.25000749  0.08758969  0.45010798  1
  Se  Se170  1  0.24872816  0.08115711  0.94499981  1
  Se  Se171  1  0.24817519  0.41862175  0.44489089  1
  Se  Se172  1  0.25790383  0.41030994  0.93669719  1
  Se  Se173  1  0.25598814  0.75015021  0.44625835  1
  Se  Se174  1  0.25227869  0.75147278  0.94448319  1
  Se  Se175  1  0.58091181  0.08112261  0.44523791  1
  Se  Se176  1  0.58290603  0.08694854  0.94265687  1
  Se  Se177  1  0.57881097  0.41759404  0.45143302  1
  Se  Se178  1  0.59044828  0.40978751  0.93791308  1
  Se  Se179  1  0.58656335  0.75184332  0.44708258  1
  Se  Se180  1  0.58354346  0.75081477  0.94560263  1
  Se  Se181  1  0.91563949  0.08587703  0.44151817  1
  Se  Se182  1  0.92227006  0.07526941  0.93752824  1
  Se  Se183  1  0.91577712  0.41435563  0.45020262  1
  Se  Se184  1  0.92635492  0.40463371  0.95246164  1
  Se  Se185  1  0.92399603  0.74507514  0.43600181  1
  Se  Se186  1  0.91289718  0.74387150  0.94612325  1
  Se  Se187  1  0.25406189  0.25278845  0.30724029  1
  Se  Se188  1  0.24997294  0.24600051  0.80376119  1
  Se  Se189  1  0.25126214  0.58631324  0.30472044  1
  Se  Se190  1  0.24139826  0.57310237  0.80066796  1
  Se  Se191  1  0.25271196  0.92117533  0.31019132  1
  Se  Se192  1  0.25273568  0.91356104  0.79773705  1
  Se  Se193  1  0.57360661  0.24651922  0.31434063  1
  Se  Se194  1  0.57527736  0.24536114  0.80719304  1
  Se  Se195  1  0.57910628  0.57984377  0.31676675  1
  Se  Se196  1  0.57972193  0.58737120  0.79525936  1
  Se  Se197  1  0.57169140  0.91456350  0.29705943  1
  Se  Se198  1  0.58159854  0.92093051  0.80230844  1
  Se  Se199  1  0.90830562  0.24100706  0.30362371  1
  Se  Se200  1  0.90829821  0.23292681  0.80227889  1
  Se  Se201  1  0.92009566  0.57563614  0.31421483  1
  Se  Se202  1  0.91503229  0.58055348  0.80629318  1
  Se  Se203  1  0.92130609  0.91851058  0.29997093  1
  Se  Se204  1  0.91816908  0.91814111  0.80068248  1
  Se  Se205  1  0.08591080  0.08211190  0.30948691  1
  Se  Se206  1  0.08289588  0.08276113  0.79794961  1
  Se  Se207  1  0.08306537  0.41319963  0.30533835  1
  Se  Se208  1  0.09707647  0.41913450  0.80429327  1
  Se  Se209  1  0.09186467  0.75533833  0.31365582  1
  Se  Se210  1  0.08555504  0.75378063  0.80564977  1
  Se  Se211  1  0.41171629  0.08302216  0.30703329  1
  Se  Se212  1  0.41476050  0.08242022  0.80552945  1
  Se  Se213  1  0.41314419  0.41684259  0.30595330  1
  Se  Se214  1  0.41597909  0.41595034  0.79459156  1
  Se  Se215  1  0.41764626  0.74891373  0.30268963  1
  Se  Se216  1  0.41743986  0.75650911  0.80736144  1
  Se  Se217  1  0.73423557  0.07964851  0.29845669  1
  Se  Se218  1  0.74794743  0.08824858  0.79273941  1
  Se  Se219  1  0.75359239  0.41208668  0.31822347  1
  Se  Se220  1  0.75621229  0.41879527  0.80779877  1
  Se  Se221  1  0.75082746  0.75882938  0.31273716  1
  Se  Se222  1  0.74413742  0.75326995  0.80091712  1
  Se  Se223  1  0.25303741  0.08676226  0.20242100  1
  Se  Se224  1  0.25342075  0.07840857  0.69172323  1
  Se  Se225  1  0.25185458  0.41623851  0.20124179  1
  Se  Se226  1  0.25288698  0.41244749  0.69751522  1
  Se  Se227  1  0.25594930  0.75248622  0.20290520  1
  Se  Se228  1  0.24150091  0.75569008  0.68296268  1
  Se  Se229  1  0.58563141  0.08615063  0.20129826  1
  Se  Se230  1  0.58203088  0.08440513  0.69192730  1
  Se  Se231  1  0.57365078  0.42006516  0.19329427  1
  Se  Se232  1  0.57417993  0.41907379  0.68068190  1
  Se  Se233  1  0.57719870  0.75524615  0.19202060  1
  Se  Se234  1  0.58032433  0.75276947  0.69767842  1
  Se  Se235  1  0.92104919  0.08282648  0.20529414  1
  Se  Se236  1  0.92993082  0.07502390  0.69505701  1
  Se  Se237  1  0.92421387  0.40117011  0.20736346  1
  Se  Se238  1  0.91216309  0.42190223  0.69077254  1
  Se  Se239  1  0.90972001  0.75389334  0.19101698  1
  Se  Se240  1  0.90487152  0.76669956  0.68133178  1
  Se  Se241  1  0.08411639  0.25087651  0.20397718  1
  Se  Se242  1  0.09224758  0.24196015  0.68312354  1
  Se  Se243  1  0.09589530  0.57586651  0.18805204  1
  Se  Se244  1  0.09144371  0.57167452  0.69095798  1
  Se  Se245  1  0.08720314  0.92093776  0.20273051  1
  Se  Se246  1  0.08135737  0.92051092  0.69411646  1
  Se  Se247  1  0.41394524  0.25530667  0.20345890  1
  Se  Se248  1  0.41241824  0.24755962  0.69551534  1
  Se  Se249  1  0.41698954  0.58690877  0.20306407  1
  Se  Se250  1  0.42057871  0.57855190  0.67993897  1
  Se  Se251  1  0.41755622  0.92781871  0.20406866  1
  Se  Se252  1  0.41386494  0.92192953  0.69275926  1
  Se  Se253  1  0.75053826  0.23767571  0.18647780  1
  Se  Se254  1  0.75917682  0.24407787  0.68873118  1
  Se  Se255  1  0.76219851  0.56379284  0.20160823  1
  Se  Se256  1  0.74362513  0.58780401  0.69892296  1
  Se  Se257  1  0.75002711  0.91223277  0.19604535  1
  Se  Se258  1  0.74439518  0.92021953  0.69668892  1
