# generated using pymatgen
data_In86Cu29Se144
_symmetry_space_group_name_H-M   'P 1'
_cell_length_a   17.57316407
_cell_length_b   17.57488088
_cell_length_c   23.41937736
_cell_angle_alpha   89.98515986
_cell_angle_beta   90.01671420
_cell_angle_gamma   89.99794000
_symmetry_Int_Tables_number   1
_chemical_formula_structural   In86Cu29Se144
_chemical_formula_sum   'In86 Cu29 Se144'
_cell_volume   7232.98667615
_cell_formula_units_Z   1
loop_
 _symmetry_equiv_pos_site_id
 _symmetry_equiv_pos_as_xyz
  1  'x, y, z'
loop_
 _atom_site_type_symbol
 _atom_site_label
 _atom_site_symmetry_multiplicity
 _atom_site_fract_x
 _atom_site_fract_y
 _atom_site_fract_z
 _atom_site_occupancy
  In  In0  1  -0.00433102  0.17964444  0.12487558  1
  In  In1  1  -0.00642091  0.16160422  0.62384862  1
  In  In2  1  -0.01006556  0.51340781  0.12511458  1
  In  In3  1  -0.00221185  0.50226574  0.62350721  1
  In  In4  1  0.00387331  0.82158645  0.12090309  1
  In  In5  1  -0.00858825  0.84504533  0.63511399  1
  In  In6  1  0.34029980  0.15372497  0.12766472  1
  In  In7  1  0.32455653  0.14878566  0.60160648  1
  In  In8  1  0.35009676  0.50027551  0.13367775  1
  In  In9  1  0.34215802  0.49406158  0.60924345  1
  In  In10  1  0.33200468  0.82987985  0.12019979  1
  In  In11  1  0.34812353  0.84194807  0.61874754  1
  In  In12  1  0.66414692  0.16723306  0.12667413  1
  In  In13  1  0.66180791  0.16651286  0.61970208  1
  In  In14  1  0.67562776  0.49105352  0.13538046  1
  In  In15  1  0.65084797  0.47981590  0.60475057  1
  In  In16  1  0.65696096  0.85199998  0.13713051  1
  In  In17  1  0.67478403  0.84257247  0.61960401  1
  In  In18  1  0.17743098  0.00982975  0.38346881  1
  In  In19  1  0.15719250  -0.00525076  0.86417619  1
  In  In20  1  0.18175124  0.32663045  0.39489290  1
  In  In21  1  0.17706869  0.32412222  0.87060589  1
  In  In22  1  0.17131453  0.64919672  0.37371432  1
  In  In23  1  0.17223292  0.67906498  0.87110600  1
  In  In24  1  0.50132266  -0.01278565  0.39131089  1
  In  In25  1  0.50166452  -0.00040073  0.87078107  1
  In  In26  1  0.52936596  0.31208105  0.40493679  1
  In  In27  1  0.49369763  0.31594478  0.86883538  1
  In  In28  1  0.50466358  0.66872009  0.37470411  1
  In  In29  1  0.51064235  0.67168306  0.87573549  1
  In  In30  1  0.82336605  0.00808393  0.37857014  1
  In  In31  1  0.84200591  0.01097008  0.86724211  1
  In  In32  1  0.81131764  0.34707587  0.39436214  1
  In  In33  1  0.81819521  0.33895374  0.87405143  1
  In  In34  1  0.81749276  0.68425982  0.38163929  1
  In  In35  1  0.83158585  0.65051759  0.87400061  1
  In  In36  1  -0.00236767  0.16815091  0.38423068  1
  In  In37  1  -0.00412151  0.15244609  0.86884401  1
  In  In38  1  0.00401997  0.49582262  0.38270068  1
  In  In39  1  -0.01680819  0.49047393  0.86628118  1
  In  In40  1  -0.00903715  0.82226893  0.37480676  1
  In  In41  1  0.00969124  0.84141412  0.86654472  1
  In  In42  1  0.34383162  0.16906626  0.39764372  1
  In  In43  1  0.34757876  0.16620128  0.86902201  1
  In  In44  1  0.33674633  0.50130855  0.38316220  1
  In  In45  1  0.33463703  0.48256129  0.87156404  1
  In  In46  1  0.35727147  0.83561750  0.37966520  1
  In  In47  1  0.32587619  0.83963699  0.87969441  1
  In  In48  1  0.66866391  0.16201949  0.37801301  1
  In  In49  1  0.66570039  0.16549229  0.87097241  1
  In  In50  1  0.66434158  0.50208506  0.37971050  1
  In  In51  1  0.67310130  0.50443677  0.87120171  1
  In  In52  1  0.66661327  0.83519493  0.37213054  1
  In  In53  1  0.65223856  0.83560287  0.87855786  1
  In  In54  1  0.18110009  -0.00295914  0.12530178  1
  In  In55  1  0.16165818  0.01426996  0.63721239  1
  In  In56  1  0.16008129  0.33778747  0.12957907  1
  In  In57  1  0.17058349  0.32560485  0.61499763  1
  In  In58  1  0.16291005  0.67700885  0.12581112  1
  In  In59  1  0.16362692  0.65227550  0.62495863  1
  In  In60  1  0.50760148  0.00868703  0.11847379  1
  In  In61  1  0.49964705  0.00311925  0.62138962  1
  In  In62  1  0.51467152  0.33635187  0.12730555  1
  In  In63  1  0.51274910  0.33463814  0.61203390  1
  In  In64  1  0.49393924  0.67434382  0.13383540  1
  In  In65  1  0.49617972  0.66692171  0.61472089  1
  In  In66  1  0.81436692  0.00155631  0.12720202  1
  In  In67  1  0.83034620  -0.00094858  0.62745990  1
  In  In68  1  0.82285854  0.32439172  0.11994930  1
  In  In69  1  0.80780741  0.31254945  0.60340280  1
  In  In70  1  0.83528191  0.65900957  0.12656960  1
  In  In71  1  0.83444064  0.67224739  0.61997427  1
  In  In72  1  0.34250575  0.32352302  0.73656510  1
  In  In73  1  -0.00466158  0.66330673  0.24735534  1
  In  In74  1  0.16114464  0.83526375  0.50183717  1
  In  In75  1  0.66808867  0.66742033  0.74968337  1
  In  In76  1  0.35019780  0.33198349  0.27409643  1
  In  In77  1  -0.00394661  0.33075829  0.25321265  1
  In  In78  1  0.50569306  0.50058072  -0.00105425  1
  In  In79  1  0.15503332  0.51112272  0.01001340  1
  In  In80  1  -0.00503184  0.33230553  0.73636798  1
  In  In81  1  0.83173455  0.83355031  0.00224031  1
  In  In82  1  0.33931218  0.00081257  0.25832865  1
  In  In83  1  0.16321235  0.16125264  -0.00606505  1
  In  In84  1  -0.00373486  0.00221167  0.25993180  1
  In  In85  1  0.33605050  0.66754902  0.73744599  1
  Cu  Cu86  1  0.32873131  0.32497352  -0.00188445  1
  Cu  Cu87  1  0.50298068  0.83383837  0.25341305  1
  Cu  Cu88  1  0.33516890  0.67281966  0.49866930  1
  Cu  Cu89  1  0.83338332  0.83397173  0.74740647  1
  Cu  Cu90  1  0.00146022  0.33280419  0.50574044  1
  Cu  Cu91  1  0.66541865  0.66812419  0.00245501  1
  Cu  Cu92  1  0.16601858  0.83546391  0.74887429  1
  Cu  Cu93  1  0.34047629  0.67156010  0.00127192  1
  Cu  Cu94  1  0.82726628  0.49986183  0.25787266  1
  Cu  Cu95  1  0.66440309  0.00682492  -0.00130282  1
  Cu  Cu96  1  -0.00201453  0.66551433  -0.00334372  1
  Cu  Cu97  1  0.33844903  -0.00534002  -0.00212315  1
  Cu  Cu98  1  0.50888926  0.16107677  0.74303871  1
  Cu  Cu99  1  -0.00600235  0.66742340  0.50006841  1
  Cu  Cu100  1  0.66557845  0.66933192  0.49658065  1
  Cu  Cu101  1  0.82793353  0.49874819  0.74404996  1
  Cu  Cu102  1  0.66620045  0.32582584  -0.00034340  1
  Cu  Cu103  1  0.82463811  0.17109345  0.25319439  1
  Cu  Cu104  1  0.82778175  0.16799298  0.74292343  1
  Cu  Cu105  1  -0.01809280  0.33201922  -0.00627632  1
  Cu  Cu106  1  0.00176207  -0.00261346  -0.00734820  1
  Cu  Cu107  1  -0.00461613  -0.00273960  0.50800899  1
  Cu  Cu108  1  0.49956159  0.83873031  0.74794016  1
  Cu  Cu109  1  0.16596719  0.49993463  0.74471087  1
  Cu  Cu110  1  0.17261473  0.83317865  0.24599250  1
  Cu  Cu111  1  0.17894090  0.49316587  0.25865424  1
  Cu  Cu112  1  0.66514847  -0.00143432  0.50218302  1
  Cu  Cu113  1  0.50873827  0.50479540  0.25798758  1
  Cu  Cu114  1  0.50676639  0.16737392  0.25543999  1
  Se  Se115  1  0.07662120  0.07512330  0.06191879  1
  Se  Se116  1  0.08216901  0.08037487  0.55710594  1
  Se  Se117  1  0.06244065  0.40745595  0.05818867  1
  Se  Se118  1  0.08371172  0.41827460  0.55761308  1
  Se  Se119  1  0.08542542  0.74724176  0.04738680  1
  Se  Se120  1  0.07356351  0.74544645  0.56375774  1
  Se  Se121  1  0.41674431  0.08446582  0.04998501  1
  Se  Se122  1  0.44206832  0.09906653  0.54780291  1
  Se  Se123  1  0.41033962  0.40751466  0.05632733  1
  Se  Se124  1  0.41269605  0.40063035  0.54380811  1
  Se  Se125  1  0.42476476  0.75246722  0.05486093  1
  Se  Se126  1  0.42120650  0.75766062  0.54687446  1
  Se  Se127  1  0.74805286  0.08791021  0.05381048  1
  Se  Se128  1  0.75071853  0.08025034  0.55574398  1
  Se  Se129  1  0.74365490  0.41529067  0.05433325  1
  Se  Se130  1  0.76654160  0.43196426  0.54769011  1
  Se  Se131  1  0.74183285  0.74895322  0.06526942  1
  Se  Se132  1  0.74883139  0.75217403  0.55145811  1
  Se  Se133  1  0.24874751  0.25085747  0.06224275  1
  Se  Se134  1  0.25737424  0.25574264  0.54455551  1
  Se  Se135  1  0.26360420  0.58881866  0.06339856  1
  Se  Se136  1  0.25455644  0.58777333  0.55287969  1
  Se  Se137  1  0.25057586  0.91493263  0.05089930  1
  Se  Se138  1  0.24525940  0.92405115  0.56415315  1
  Se  Se139  1  0.57983550  0.24769866  0.05465367  1
  Se  Se140  1  0.59985811  0.25675394  0.54385281  1
  Se  Se141  1  0.58869023  0.58668284  0.06567661  1
  Se  Se142  1  0.57984716  0.58559577  0.54727072  1
  Se  Se143  1  0.58679072  0.91794986  0.05289229  1
  Se  Se144  1  0.57979178  0.91303138  0.55323523  1
  Se  Se145  1  0.90860648  0.24448887  0.05085178  1
  Se  Se146  1  0.91686936  0.24252847  0.55055763  1
  Se  Se147  1  0.91144313  0.58456010  0.04850411  1
  Se  Se148  1  0.91357507  0.58219639  0.55368644  1
  Se  Se149  1  0.92291341  0.92524814  0.06159067  1
  Se  Se150  1  0.91121557  0.91216739  0.55717940  1
  Se  Se151  1  0.08397315  0.24709888  0.45260529  1
  Se  Se152  1  0.07282782  0.25869646  0.93735274  1
  Se  Se153  1  0.08214964  0.58764763  0.44838562  1
  Se  Se154  1  0.07553320  0.58541593  0.93243150  1
  Se  Se155  1  0.07097673  0.92395282  0.43827228  1
  Se  Se156  1  0.08835429  0.91527264  0.94334044  1
  Se  Se157  1  0.39593666  0.28839311  0.44986096  1
  Se  Se158  1  0.41643418  0.24577923  0.94723952  1
  Se  Se159  1  0.42080810  0.58968466  0.44661309  1
  Se  Se160  1  0.40818301  0.58574374  0.93747206  1
  Se  Se161  1  0.39331705  0.93329461  0.45489928  1
  Se  Se162  1  0.42259414  0.91389913  0.94251999  1
  Se  Se163  1  0.75819057  0.23315839  0.44933122  1
  Se  Se164  1  0.74945427  0.24581528  0.94295601  1
  Se  Se165  1  0.75284008  0.58486841  0.44683271  1
  Se  Se166  1  0.74485450  0.58284640  0.94836509  1
  Se  Se167  1  0.74741681  0.91665878  0.44532369  1
  Se  Se168  1  0.74717252  0.92562141  0.93917969  1
  Se  Se169  1  0.25061114  0.08697290  0.45692399  1
  Se  Se170  1  0.25791676  0.07583798  0.93587934  1
  Se  Se171  1  0.22702430  0.44681288  0.44534944  1
  Se  Se172  1  0.24516688  0.41382215  0.94935179  1
  Se  Se173  1  0.25119411  0.74872184  0.43787123  1
  Se  Se174  1  0.25071017  0.74858574  0.94833342  1
  Se  Se175  1  0.58228307  0.08353785  0.44933877  1
  Se  Se176  1  0.58059313  0.08534405  0.94107412  1
  Se  Se177  1  0.59385622  0.42215103  0.45728478  1
  Se  Se178  1  0.58715015  0.40652408  0.93651882  1
  Se  Se179  1  0.58303140  0.75572590  0.44387073  1
  Se  Se180  1  0.57993711  0.75149326  0.95249666  1
  Se  Se181  1  0.91634304  0.07861700  0.44781537  1
  Se  Se182  1  0.91621398  0.08432362  0.94683453  1
  Se  Se183  1  0.91975353  0.41543285  0.45046792  1
  Se  Se184  1  0.90396378  0.42150585  0.94300710  1
  Se  Se185  1  0.91114990  0.75485569  0.45159386  1
  Se  Se186  1  0.91937041  0.74790685  0.93592856  1
  Se  Se187  1  0.25102158  0.23862629  0.31815102  1
  Se  Se188  1  0.24831687  0.23696509  0.79882370  1
  Se  Se189  1  0.26333373  0.58128361  0.30380022  1
  Se  Se190  1  0.25026434  0.57508557  0.80617816  1
  Se  Se191  1  0.24513799  0.90782661  0.31415118  1
  Se  Se192  1  0.25298392  0.91535352  0.80233469  1
  Se  Se193  1  0.58429580  0.25211528  0.31261963  1
  Se  Se194  1  0.58486567  0.24870263  0.79895486  1
  Se  Se195  1  0.59385924  0.59091633  0.30675373  1
  Se  Se196  1  0.57140263  0.57519637  0.80398498  1
  Se  Se197  1  0.57682685  0.92289073  0.30913068  1
  Se  Se198  1  0.58746713  0.91748488  0.80117461  1
  Se  Se199  1  0.90448277  0.24801503  0.31569209  1
  Se  Se200  1  0.90853956  0.24861436  0.80570429  1
  Se  Se201  1  0.91206444  0.57842871  0.31518399  1
  Se  Se202  1  0.91269852  0.58149100  0.79642348  1
  Se  Se203  1  0.90401645  0.90831074  0.31018732  1
  Se  Se204  1  0.91765968  0.91771644  0.80189640  1
  Se  Se205  1  0.09181140  0.09266596  0.31214306  1
  Se  Se206  1  0.08921277  0.09186755  0.79947503  1
  Se  Se207  1  0.09388623  0.41330197  0.31312674  1
  Se  Se208  1  0.09075087  0.41510411  0.80541041  1
  Se  Se209  1  0.09222544  0.75208246  0.30666562  1
  Se  Se210  1  0.08405426  0.74740771  0.79935169  1
  Se  Se211  1  0.42550027  0.09299233  0.31860193  1
  Se  Se212  1  0.42178102  0.08165166  0.79813466  1
  Se  Se213  1  0.44357240  0.42242269  0.32635873  1
  Se  Se214  1  0.42718228  0.41882001  0.79937218  1
  Se  Se215  1  0.41770572  0.74943825  0.30354051  1
  Se  Se216  1  0.42072623  0.75393778  0.80643352  1
  Se  Se217  1  0.74404527  0.08078721  0.30195730  1
  Se  Se218  1  0.74876098  0.08331893  0.80066310  1
  Se  Se219  1  0.74538381  0.41414651  0.30950786  1
  Se  Se220  1  0.74359161  0.41783612  0.79838899  1
  Se  Se221  1  0.74677322  0.75170143  0.30158107  1
  Se  Se222  1  0.75598735  0.75767773  0.81392918  1
  Se  Se223  1  0.24357657  0.09112687  0.20015767  1
  Se  Se224  1  0.26830238  0.08606834  0.69107661  1
  Se  Se225  1  0.25727526  0.41176679  0.19724984  1
  Se  Se226  1  0.24767938  0.42229573  0.68589288  1
  Se  Se227  1  0.25450254  0.74781747  0.19418238  1
  Se  Se228  1  0.24321561  0.76022362  0.68254512  1
  Se  Se229  1  0.58210027  0.08288521  0.19658224  1
  Se  Se230  1  0.59178854  0.07544115  0.69152970  1
  Se  Se231  1  0.58488843  0.41555036  0.20318172  1
  Se  Se232  1  0.58755577  0.41153963  0.68875532  1
  Se  Se233  1  0.58602442  0.75106422  0.19913751  1
  Se  Se234  1  0.57629661  0.75461815  0.68817072  1
  Se  Se235  1  0.91074291  0.09346369  0.19414729  1
  Se  Se236  1  0.91489803  0.08207103  0.69686243  1
  Se  Se237  1  0.90801265  0.42385340  0.19263029  1
  Se  Se238  1  0.89742073  0.41409721  0.67957771  1
  Se  Se239  1  0.90693378  0.76153725  0.19336274  1
  Se  Se240  1  0.91440086  0.74693238  0.69642717  1
  Se  Se241  1  0.09426704  0.23952622  0.19863123  1
  Se  Se242  1  0.09392149  0.24120097  0.68929805  1
  Se  Se243  1  0.09645416  0.56996512  0.19505134  1
  Se  Se244  1  0.07703469  0.58252200  0.69816355  1
  Se  Se245  1  0.08659941  0.91272231  0.19157417  1
  Se  Se246  1  0.08089958  0.92293234  0.70104761  1
  Se  Se247  1  0.42356691  0.24618040  0.19550464  1
  Se  Se248  1  0.43054189  0.23589133  0.67711107  1
  Se  Se249  1  0.42160360  0.58432368  0.20517085  1
  Se  Se250  1  0.42606036  0.57040111  0.68649219  1
  Se  Se251  1  0.42232961  0.91480837  0.19060084  1
  Se  Se252  1  0.41666269  0.92245511  0.69505859  1
  Se  Se253  1  0.74370231  0.25429909  0.19690397  1
  Se  Se254  1  0.74364630  0.25151971  0.69161872  1
  Se  Se255  1  0.75158276  0.58565817  0.19970828  1
  Se  Se256  1  0.74697115  0.57864551  0.68310389  1
  Se  Se257  1  0.75176050  0.92061226  0.20368865  1
  Se  Se258  1  0.74674457  0.91704177  0.69846510  1
