# generated using pymatgen
data_In86Cu29Se144
_symmetry_space_group_name_H-M   'P 1'
_cell_length_a   17.57663070
_cell_length_b   17.57495709
_cell_length_c   23.43325301
_cell_angle_alpha   90.00018840
_cell_angle_beta   89.97054377
_cell_angle_gamma   90.00787047
_symmetry_Int_Tables_number   1
_chemical_formula_structural   In86Cu29Se144
_chemical_formula_sum   'In86 Cu29 Se144'
_cell_volume   7238.73072301
_cell_formula_units_Z   1
loop_
 _symmetry_equiv_pos_site_id
 _symmetry_equiv_pos_as_xyz
  1  'x, y, z'
loop_
 _atom_site_type_symbol
 _atom_site_label
 _atom_site_symmetry_multiplicity
 _atom_site_fract_x
 _atom_site_fract_y
 _atom_site_fract_z
 _atom_site_occupancy
  In  In0  1  0.00189324  0.16611033  0.12251980  1
  In  In1  1  -0.00971993  0.15268369  0.61117691  1
  In  In2  1  0.00698568  0.48971063  0.12836003  1
  In  In3  1  -0.00682595  0.51239897  0.62180932  1
  In  In4  1  -0.00481275  0.82585083  0.12052256  1
  In  In5  1  0.01075518  0.84381780  0.62661370  1
  In  In6  1  0.32920946  0.16079571  0.11738742  1
  In  In7  1  0.32192396  0.15491300  0.61438651  1
  In  In8  1  0.34126834  0.51313262  0.12198109  1
  In  In9  1  0.34202404  0.49674651  0.62869563  1
  In  In10  1  0.31954997  0.84502854  0.13531833  1
  In  In11  1  0.33415397  0.84123698  0.64330895  1
  In  In12  1  0.67799990  0.17882659  0.10782528  1
  In  In13  1  0.67024376  0.17295803  0.62946967  1
  In  In14  1  0.65501235  0.49503616  0.11373030  1
  In  In15  1  0.66824296  0.48884860  0.63607912  1
  In  In16  1  0.67318057  0.81699146  0.10905570  1
  In  In17  1  0.65557180  0.84223037  0.64684308  1
  In  In18  1  0.17539483  -0.00188955  0.37548034  1
  In  In19  1  0.17059062  -0.00105355  0.87732663  1
  In  In20  1  0.15972797  0.33749215  0.37251831  1
  In  In21  1  0.17124522  0.33134584  0.88814089  1
  In  In22  1  0.16185774  0.67264779  0.35640359  1
  In  In23  1  0.17766402  0.66231654  0.88517834  1
  In  In24  1  0.49442437  0.01504788  0.37843386  1
  In  In25  1  0.51149452  0.00639666  0.86067032  1
  In  In26  1  0.49744138  0.31295984  0.37297358  1
  In  In27  1  0.52488017  0.31689835  0.89974421  1
  In  In28  1  0.49326288  0.67261447  0.37270001  1
  In  In29  1  0.49212208  0.66644814  0.87115585  1
  In  In30  1  0.84704286  0.01699424  0.37903627  1
  In  In31  1  0.83160232  0.00541492  0.86976659  1
  In  In32  1  0.83442497  0.33393279  0.37313412  1
  In  In33  1  0.81100671  0.31882758  0.87099122  1
  In  In34  1  0.82963633  0.65311975  0.37335297  1
  In  In35  1  0.83408261  0.67995711  0.87796488  1
  In  In36  1  -0.01302628  0.17617494  0.38570842  1
  In  In37  1  0.00323354  0.16001983  0.87801176  1
  In  In38  1  -0.00419775  0.49097853  0.36340566  1
  In  In39  1  0.00423471  0.50720877  0.88181706  1
  In  In40  1  0.01585176  0.83640574  0.37012106  1
  In  In41  1  -0.00653872  0.84967570  0.88376192  1
  In  In42  1  0.34530575  0.16163741  0.38237715  1
  In  In43  1  0.34241694  0.16105516  0.87939861  1
  In  In44  1  0.32300903  0.50247050  0.37094085  1
  In  In45  1  0.33693429  0.50458944  0.88398758  1
  In  In46  1  0.32115463  0.83371014  0.36136461  1
  In  In47  1  0.33393593  0.82392567  0.86811791  1
  In  In48  1  0.65801863  0.17903398  0.38079725  1
  In  In49  1  0.67012589  0.16404923  0.87452380  1
  In  In50  1  0.68364169  0.49800423  0.37561027  1
  In  In51  1  0.65361031  0.48849417  0.87470921  1
  In  In52  1  0.66631661  0.82578065  0.37889344  1
  In  In53  1  0.66841201  0.84483563  0.86104213  1
  In  In54  1  0.17083812  0.00651879  0.11830873  1
  In  In55  1  0.15903035  0.01036881  0.63780592  1
  In  In56  1  0.15478590  0.32214339  0.12000605  1
  In  In57  1  0.17264664  0.31145611  0.62297968  1
  In  In58  1  0.17056867  0.66873910  0.12430443  1
  In  In59  1  0.16711146  0.67804523  0.62803931  1
  In  In60  1  0.48622624  0.00063451  0.12190109  1
  In  In61  1  0.49342471  0.01075812  0.63793081  1
  In  In62  1  0.51007547  0.33708557  0.11546499  1
  In  In63  1  0.51171834  0.33147734  0.62562418  1
  In  In64  1  0.49690179  0.65786664  0.11874217  1
  In  In65  1  0.49312412  0.67567970  0.64694268  1
  In  In66  1  0.83177053  -0.00320867  0.11425388  1
  In  In67  1  0.83016893  0.01680412  0.63761488  1
  In  In68  1  0.83799476  0.32747832  0.12871196  1
  In  In69  1  0.81883020  0.32150401  0.61773120  1
  In  In70  1  0.82782752  0.67728156  0.11656830  1
  In  In71  1  0.82698704  0.65449424  0.62175594  1
  In  In72  1  0.49262533  0.83930743  0.51682734  1
  In  In73  1  0.50266491  0.83721632  -0.00866533  1
  In  In74  1  0.65886601  -0.00014673  0.24872330  1
  In  In75  1  0.83596219  0.49467744  -0.00273529  1
  In  In76  1  0.83253644  0.84108063  0.50646189  1
  In  In77  1  0.66430180  0.65892169  0.23455588  1
  In  In78  1  0.33983220  0.33498643  0.75325942  1
  In  In79  1  -0.00210227  0.67636317  0.75195308  1
  In  In80  1  0.50726939  0.49118016  0.50995587  1
  In  In81  1  0.16233756  0.49184818  0.48924933  1
  In  In82  1  0.33235645  0.33559961  0.24867760  1
  In  In83  1  0.00244327  -0.00020997  0.25139328  1
  In  In84  1  -0.00825138  0.32903462  0.75569775  1
  In  In85  1  0.16652058  0.83801731  0.49426733  1
  Cu  Cu86  1  0.82851396  0.49593652  0.75017742  1
  Cu  Cu87  1  0.16956580  0.83437369  0.75650261  1
  Cu  Cu88  1  0.66456635  0.66405883  0.50807919  1
  Cu  Cu89  1  0.00144273  -0.00126470  -0.00098444  1
  Cu  Cu90  1  0.17381603  0.50225156  0.75885888  1
  Cu  Cu91  1  0.32929976  0.65801413  0.50102186  1
  Cu  Cu92  1  0.33324556  0.00344036  -0.00322127  1
  Cu  Cu93  1  0.83327995  0.82982146  0.24262643  1
  Cu  Cu94  1  0.48965121  0.83487953  0.24914931  1
  Cu  Cu95  1  0.66758907  0.00073454  -0.01264550  1
  Cu  Cu96  1  0.01234846  0.66712058  0.00182466  1
  Cu  Cu97  1  -0.01007941  0.66454921  0.49202630  1
  Cu  Cu98  1  0.82958250  0.17296196  0.25020910  1
  Cu  Cu99  1  0.16896288  0.15773807  0.75163135  1
  Cu  Cu100  1  0.33188057  -0.00423825  0.50146830  1
  Cu  Cu101  1  0.50628336  0.49731072  0.24306238  1
  Cu  Cu102  1  0.33139970  0.34219185  0.00709778  1
  Cu  Cu103  1  -0.00249078  0.34168739  0.49574643  1
  Cu  Cu104  1  0.83812608  0.84001590  0.75326642  1
  Cu  Cu105  1  0.49444035  0.49820358  0.75747931  1
  Cu  Cu106  1  0.67370498  0.33345241  0.50229882  1
  Cu  Cu107  1  0.33449613  0.67364747  -0.00003179  1
  Cu  Cu108  1  0.83957475  0.49386011  0.24883173  1
  Cu  Cu109  1  0.50330413  0.17363139  0.75406073  1
  Cu  Cu110  1  -0.00478487  0.32582571  0.00147851  1
  Cu  Cu111  1  0.16723570  0.50484277  0.24426857  1
  Cu  Cu112  1  0.67320007  0.01163473  0.50531875  1
  Cu  Cu113  1  0.49861767  0.16550993  0.24961541  1
  Cu  Cu114  1  0.16471150  0.16641969  0.24582662  1
  Se  Se115  1  0.08276022  0.08567201  0.05187453  1
  Se  Se116  1  0.10502178  0.09440175  0.55797065  1
  Se  Se117  1  0.07982660  0.41243576  0.05080164  1
  Se  Se118  1  0.07845310  0.41208262  0.56329768  1
  Se  Se119  1  0.09120457  0.75484272  0.05415548  1
  Se  Se120  1  0.07206184  0.74193817  0.55268833  1
  Se  Se121  1  0.41918590  0.08641433  0.04747193  1
  Se  Se122  1  0.42016000  0.07473546  0.55484908  1
  Se  Se123  1  0.42047662  0.42433824  0.05550035  1
  Se  Se124  1  0.40699645  0.40097458  0.55844420  1
  Se  Se125  1  0.41313649  0.75715469  0.05986662  1
  Se  Se126  1  0.40059028  0.73972740  0.56603067  1
  Se  Se127  1  0.75111828  0.07995084  0.04621178  1
  Se  Se128  1  0.75630465  0.09153399  0.55952486  1
  Se  Se129  1  0.74637001  0.40366926  0.05540159  1
  Se  Se130  1  0.74876333  0.42438687  0.55583347  1
  Se  Se131  1  0.76110702  0.75186168  0.03720735  1
  Se  Se132  1  0.73734628  0.75463671  0.56539939  1
  Se  Se133  1  0.24815621  0.25085495  0.05312961  1
  Se  Se134  1  0.25484410  0.24973262  0.54700091  1
  Se  Se135  1  0.25227603  0.58632331  0.05250515  1
  Se  Se136  1  0.24626436  0.58086828  0.56032777  1
  Se  Se137  1  0.25413582  0.91875398  0.05258897  1
  Se  Se138  1  0.25391235  0.91738502  0.56464280  1
  Se  Se139  1  0.56802124  0.23535476  0.04948371  1
  Se  Se140  1  0.58823516  0.24986907  0.55383340  1
  Se  Se141  1  0.60909414  0.61233169  0.05806379  1
  Se  Se142  1  0.58217708  0.59104525  0.57091223  1
  Se  Se143  1  0.59171469  0.92624880  0.05675306  1
  Se  Se144  1  0.59346831  0.92916269  0.56446829  1
  Se  Se145  1  0.91220860  0.24379282  0.05531341  1
  Se  Se146  1  0.91942870  0.25655876  0.55269153  1
  Se  Se147  1  0.92626440  0.58539826  0.05819165  1
  Se  Se148  1  0.90966220  0.58177203  0.54688933  1
  Se  Se149  1  0.91763709  0.91268484  0.05078914  1
  Se  Se150  1  0.92301155  0.92990455  0.56365055  1
  Se  Se151  1  0.08309139  0.25757716  0.44545047  1
  Se  Se152  1  0.08248884  0.24514845  0.94816982  1
  Se  Se153  1  0.07802086  0.59156362  0.43317781  1
  Se  Se154  1  0.09199167  0.57804840  0.95163717  1
  Se  Se155  1  0.07091756  0.93306620  0.44563496  1
  Se  Se156  1  0.09108726  0.91654435  0.95009520  1
  Se  Se157  1  0.42520034  0.24411850  0.45118246  1
  Se  Se158  1  0.40733429  0.25702735  0.94879211  1
  Se  Se159  1  0.41549464  0.58157696  0.44473897  1
  Se  Se160  1  0.42172797  0.58945444  0.95092451  1
  Se  Se161  1  0.40861064  0.91303235  0.43962719  1
  Se  Se162  1  0.41284876  0.92752173  0.93285650  1
  Se  Se163  1  0.75477722  0.25089149  0.44495214  1
  Se  Se164  1  0.74476544  0.24457953  0.94993483  1
  Se  Se165  1  0.74716018  0.58656382  0.45084939  1
  Se  Se166  1  0.74907379  0.58220640  0.93509599  1
  Se  Se167  1  0.74220293  0.92787623  0.43970212  1
  Se  Se168  1  0.75061390  0.91504424  0.93724919  1
  Se  Se169  1  0.25311799  0.08053034  0.44584698  1
  Se  Se170  1  0.24797841  0.08876168  0.94607088  1
  Se  Se171  1  0.26453725  0.40237906  0.44149173  1
  Se  Se172  1  0.24890174  0.42385134  0.95125375  1
  Se  Se173  1  0.25327127  0.73813536  0.43865574  1
  Se  Se174  1  0.25274279  0.75930803  0.94797220  1
  Se  Se175  1  0.58496425  0.08458746  0.44741329  1
  Se  Se176  1  0.57764348  0.08264947  0.94097211  1
  Se  Se177  1  0.59077629  0.40962572  0.43885477  1
  Se  Se178  1  0.58121874  0.42690556  0.95871767  1
  Se  Se179  1  0.58132694  0.74417091  0.45125159  1
  Se  Se180  1  0.59185304  0.74951482  0.93212363  1
  Se  Se181  1  0.91819810  0.08676777  0.45697351  1
  Se  Se182  1  0.91549138  0.07948164  0.94479787  1
  Se  Se183  1  0.91493485  0.42363893  0.44119966  1
  Se  Se184  1  0.92076714  0.40170285  0.93364175  1
  Se  Se185  1  0.91548495  0.75371537  0.43568096  1
  Se  Se186  1  0.92730623  0.74651025  0.94683646  1
  Se  Se187  1  0.24691203  0.24230789  0.30943619  1
  Se  Se188  1  0.24397765  0.24606546  0.81002236  1
  Se  Se189  1  0.25305282  0.58519612  0.29753290  1
  Se  Se190  1  0.25645327  0.58471045  0.81055106  1
  Se  Se191  1  0.23237851  0.91286813  0.29811020  1
  Se  Se192  1  0.25498209  0.91980874  0.80581345  1
  Se  Se193  1  0.58597591  0.24927902  0.29878171  1
  Se  Se194  1  0.58447022  0.25525953  0.80993208  1
  Se  Se195  1  0.58141004  0.57836376  0.30989568  1
  Se  Se196  1  0.58152009  0.58140089  0.80701438  1
  Se  Se197  1  0.57257034  0.90695755  0.31333797  1
  Se  Se198  1  0.56554671  0.90209048  0.79343978  1
  Se  Se199  1  0.91828280  0.24973165  0.30444027  1
  Se  Se200  1  0.90348308  0.23247615  0.80809915  1
  Se  Se201  1  0.91618539  0.58525532  0.30045512  1
  Se  Se202  1  0.91126122  0.57648015  0.80815063  1
  Se  Se203  1  0.90387935  0.91058771  0.30911650  1
  Se  Se204  1  0.92318224  0.92255459  0.80395989  1
  Se  Se205  1  0.08502844  0.09390104  0.31321865  1
  Se  Se206  1  0.08465796  0.07915613  0.80735689  1
  Se  Se207  1  0.08787268  0.41623316  0.29657024  1
  Se  Se208  1  0.08996880  0.41984675  0.81215188  1
  Se  Se209  1  0.07321497  0.75191525  0.29315585  1
  Se  Se210  1  0.08882422  0.75477768  0.81766178  1
  Se  Se211  1  0.41323735  0.08335203  0.30187763  1
  Se  Se212  1  0.41527462  0.08780572  0.80054623  1
  Se  Se213  1  0.42687026  0.42316587  0.30979022  1
  Se  Se214  1  0.42699266  0.41235646  0.82218258  1
  Se  Se215  1  0.41084424  0.74619433  0.30112135  1
  Se  Se216  1  0.41537145  0.74547249  0.79813817  1
  Se  Se217  1  0.75179333  0.08834567  0.30918697  1
  Se  Se218  1  0.73281521  0.06975445  0.80292134  1
  Se  Se219  1  0.75085645  0.41432576  0.30075406  1
  Se  Se220  1  0.74439566  0.41520928  0.80419104  1
  Se  Se221  1  0.74973235  0.75041388  0.30260978  1
  Se  Se222  1  0.75610653  0.75142359  0.80160084  1
  Se  Se223  1  0.24953759  0.08563817  0.19282450  1
  Se  Se224  1  0.26104791  0.08102960  0.69928227  1
  Se  Se225  1  0.24495671  0.42122586  0.18379440  1
  Se  Se226  1  0.24019537  0.41824002  0.69212639  1
  Se  Se227  1  0.25915287  0.73949074  0.19567587  1
  Se  Se228  1  0.24920435  0.74795354  0.70209559  1
  Se  Se229  1  0.57860884  0.09071371  0.18445512  1
  Se  Se230  1  0.58683961  0.08960541  0.69943086  1
  Se  Se231  1  0.58783608  0.41356606  0.19194611  1
  Se  Se232  1  0.57651222  0.41394484  0.70302933  1
  Se  Se233  1  0.57467113  0.76290865  0.18693870  1
  Se  Se234  1  0.60332817  0.73027151  0.70465460  1
  Se  Se235  1  0.90450353  0.08390148  0.19234816  1
  Se  Se236  1  0.93264066  0.08571409  0.69784273  1
  Se  Se237  1  0.92243201  0.40844150  0.19678200  1
  Se  Se238  1  0.91213680  0.42207117  0.68893518  1
  Se  Se239  1  0.91390912  0.74384965  0.19186017  1
  Se  Se240  1  0.90792882  0.75913554  0.68480780  1
  Se  Se241  1  0.07710503  0.24835429  0.19680121  1
  Se  Se242  1  0.08609817  0.24173225  0.69663190  1
  Se  Se243  1  0.08151146  0.58600148  0.19142884  1
  Se  Se244  1  0.09032184  0.57820738  0.69625488  1
  Se  Se245  1  0.08552534  0.91482586  0.18527453  1
  Se  Se246  1  0.08418912  0.91689514  0.70404283  1
  Se  Se247  1  0.42058593  0.24714262  0.18717509  1
  Se  Se248  1  0.41904614  0.24239076  0.68813828  1
  Se  Se249  1  0.42188900  0.58584838  0.19806393  1
  Se  Se250  1  0.40904471  0.57917302  0.70384590  1
  Se  Se251  1  0.41217229  0.92574770  0.19903275  1
  Se  Se252  1  0.44392595  0.89935427  0.70099465  1
  Se  Se253  1  0.74383822  0.24809828  0.19309594  1
  Se  Se254  1  0.74799884  0.25876752  0.69949320  1
  Se  Se255  1  0.76152589  0.56875538  0.18233715  1
  Se  Se256  1  0.74821591  0.58376605  0.69831908  1
  Se  Se257  1  0.74818403  0.90798151  0.18666056  1
  Se  Se258  1  0.75214016  0.92488501  0.70286884  1
