# generated using pymatgen
data_In86Cu29Se144
_symmetry_space_group_name_H-M   'P 1'
_cell_length_a   17.58392198
_cell_length_b   17.58077087
_cell_length_c   23.44705136
_cell_angle_alpha   89.99615846
_cell_angle_beta   89.97761426
_cell_angle_gamma   90.00936989
_symmetry_Int_Tables_number   1
_chemical_formula_structural   In86Cu29Se144
_chemical_formula_sum   'In86 Cu29 Se144'
_cell_volume   7248.39507463
_cell_formula_units_Z   1
loop_
 _symmetry_equiv_pos_site_id
 _symmetry_equiv_pos_as_xyz
  1  'x, y, z'
loop_
 _atom_site_type_symbol
 _atom_site_label
 _atom_site_symmetry_multiplicity
 _atom_site_fract_x
 _atom_site_fract_y
 _atom_site_fract_z
 _atom_site_occupancy
  In  In0  1  0.00151378  0.16748197  0.12409066  1
  In  In1  1  -0.01374064  0.16025249  0.61025383  1
  In  In2  1  -0.00397243  0.49225623  0.12370290  1
  In  In3  1  -0.00779562  0.49860927  0.62160315  1
  In  In4  1  0.00558278  0.83868155  0.11695084  1
  In  In5  1  0.00503911  0.83794478  0.62801444  1
  In  In6  1  0.31533716  0.17525087  0.13290292  1
  In  In7  1  0.32326299  0.15406048  0.61527865  1
  In  In8  1  0.32267666  0.50461581  0.13624862  1
  In  In9  1  0.33753028  0.50526758  0.62638783  1
  In  In10  1  0.32538525  0.85026828  0.13590491  1
  In  In11  1  0.33923071  0.83046059  0.62527638  1
  In  In12  1  0.66472792  0.15665447  0.12323824  1
  In  In13  1  0.66497421  0.15892969  0.62035684  1
  In  In14  1  0.67618061  0.49475558  0.12345460  1
  In  In15  1  0.66414264  0.48408373  0.62950863  1
  In  In16  1  0.67803142  0.83208533  0.12260119  1
  In  In17  1  0.65467946  0.88331296  0.63694848  1
  In  In18  1  0.17392839  0.00790742  0.36903602  1
  In  In19  1  0.16719630  0.00078145  0.87758506  1
  In  In20  1  0.15751742  0.32103462  0.35821122  1
  In  In21  1  0.17371484  0.33517821  0.89384405  1
  In  In22  1  0.17667671  0.65633550  0.37150759  1
  In  In23  1  0.17250266  0.66592465  0.88374519  1
  In  In24  1  0.50437403  -0.00100194  0.37720435  1
  In  In25  1  0.49903941  0.01397036  0.86238793  1
  In  In26  1  0.48280967  0.33154307  0.37358329  1
  In  In27  1  0.50722299  0.31652606  0.87307835  1
  In  In28  1  0.49070092  0.66946112  0.37533819  1
  In  In29  1  0.49475258  0.68179149  0.87293472  1
  In  In30  1  0.84321458  0.01438473  0.36730332  1
  In  In31  1  0.83902675  0.00228274  0.87447750  1
  In  In32  1  0.85104967  0.31227544  0.38848908  1
  In  In33  1  0.83082469  0.33532268  0.87877188  1
  In  In34  1  0.82534447  0.66107004  0.37598251  1
  In  In35  1  0.84024384  0.66127645  0.88326975  1
  In  In36  1  0.00845879  0.17050017  0.37312726  1
  In  In37  1  0.01100167  0.15844018  0.88065382  1
  In  In38  1  0.00571427  0.45565066  0.37075350  1
  In  In39  1  0.00388040  0.49841250  0.88532860  1
  In  In40  1  -0.01150781  0.84070148  0.37086656  1
  In  In41  1  -0.01073615  0.85026226  0.88551008  1
  In  In42  1  0.33168852  0.16367560  0.37638773  1
  In  In43  1  0.33561476  0.16038914  0.87846499  1
  In  In44  1  0.31931791  0.48747169  0.34492385  1
  In  In45  1  0.31806884  0.50289807  0.87973147  1
  In  In46  1  0.35956968  0.85366785  0.35048825  1
  In  In47  1  0.33249424  0.83540831  0.87216058  1
  In  In48  1  0.67603729  0.15438720  0.38010926  1
  In  In49  1  0.67043240  0.17577562  0.86413496  1
  In  In50  1  0.67695944  0.50446286  0.37828144  1
  In  In51  1  0.67903313  0.49426340  0.87578699  1
  In  In52  1  0.64638637  0.83822588  0.38031449  1
  In  In53  1  0.67379247  0.85071320  0.87083629  1
  In  In54  1  0.16328150  0.00023828  0.12446392  1
  In  In55  1  0.15735350  0.00827649  0.63251416  1
  In  In56  1  0.16891617  0.32762290  0.12326927  1
  In  In57  1  0.17448932  0.32872000  0.62254882  1
  In  In58  1  0.17122189  0.67361769  0.11902739  1
  In  In59  1  0.16885779  0.67709657  0.63028616  1
  In  In60  1  0.49730894  0.00022659  0.13921827  1
  In  In61  1  0.49637698  -0.00198273  0.61535577  1
  In  In62  1  0.48876069  0.33609034  0.13644409  1
  In  In63  1  0.51375416  0.33215919  0.62621219  1
  In  In64  1  0.48390068  0.67207229  0.13524076  1
  In  In65  1  0.48432056  0.66834654  0.62622775  1
  In  In66  1  0.83544173  0.00521333  0.12238986  1
  In  In67  1  0.81403077  0.01138336  0.64211421  1
  In  In68  1  0.84661416  0.34190533  0.12029192  1
  In  In69  1  0.82046511  0.31256415  0.61143426  1
  In  In70  1  0.83670972  0.66595704  0.11810086  1
  In  In71  1  0.83700676  0.66850443  0.62110993  1
  In  In72  1  0.16988680  0.83122406  0.49949118  1
  In  In73  1  0.50045429  0.50259782  0.01395512  1
  In  In74  1  -0.00018902  0.66704431  0.24574569  1
  In  In75  1  0.16498197  0.49256760  0.49000020  1
  In  In76  1  0.00410669  0.67478872  0.75829701  1
  In  In77  1  0.82436171  0.83813330  0.51113057  1
  In  In78  1  0.66060569  0.67267360  0.25668237  1
  In  In79  1  0.50446986  0.83905623  -0.00521781  1
  In  In80  1  -0.00163418  0.32913421  0.75138013  1
  In  In81  1  0.49625323  0.16890518  -0.00011725  1
  In  In82  1  0.33829644  0.32654260  0.75097447  1
  In  In83  1  0.66197649  0.67181151  0.75540470  1
  In  In84  1  0.66701333  0.33008517  0.25046045  1
  In  In85  1  0.49895339  0.49799356  0.49638442  1
  Cu  Cu86  1  0.00023188  0.00278942  0.00106949  1
  Cu  Cu87  1  0.16260104  0.83352357  0.24299263  1
  Cu  Cu88  1  0.16345560  0.16237652  0.75101013  1
  Cu  Cu89  1  -0.00722765  0.65566830  0.49615205  1
  Cu  Cu90  1  0.67001285  0.32711318  0.50192151  1
  Cu  Cu91  1  0.33224127  0.67114130  0.00263786  1
  Cu  Cu92  1  0.49442176  0.49928922  0.74875346  1
  Cu  Cu93  1  0.67776328  0.66523534  0.00163583  1
  Cu  Cu94  1  0.17534347  0.84173877  0.75326960  1
  Cu  Cu95  1  0.67074803  0.33163761  0.00019696  1
  Cu  Cu96  1  0.16645887  0.50644534  0.75832361  1
  Cu  Cu97  1  0.33034123  0.32374819  0.49648511  1
  Cu  Cu98  1  0.33367827  -0.00108413  0.49240390  1
  Cu  Cu99  1  0.00536492  0.66359557  0.00344639  1
  Cu  Cu100  1  0.33286765  0.66678807  0.49584293  1
  Cu  Cu101  1  0.66548541  0.66823543  0.50175328  1
  Cu  Cu102  1  0.49811575  0.15847953  0.25538830  1
  Cu  Cu103  1  0.83140307  0.16164835  0.74485377  1
  Cu  Cu104  1  0.32745938  0.00423391  0.00405066  1
  Cu  Cu105  1  0.83790512  0.16711345  0.24996344  1
  Cu  Cu106  1  0.49395245  0.83837198  0.74740266  1
  Cu  Cu107  1  0.83762019  0.49575444  0.25128458  1
  Cu  Cu108  1  0.82680337  0.49088110  0.75099514  1
  Cu  Cu109  1  0.00023706  0.00664152  0.49948568  1
  Cu  Cu110  1  0.66724549  0.00216060  0.50034956  1
  Cu  Cu111  1  0.16475265  0.15974864  0.24558695  1
  Cu  Cu112  1  -0.00277646  0.32772177  0.00278435  1
  Cu  Cu113  1  0.82881798  0.84852586  0.24801199  1
  Cu  Cu114  1  0.67534675  0.00251087  -0.00153310  1
  Se  Se115  1  0.08473719  0.08502685  0.05435638  1
  Se  Se116  1  0.08908556  0.08471088  0.55271055  1
  Se  Se117  1  0.08091020  0.41134259  0.05588046  1
  Se  Se118  1  0.07814213  0.40967314  0.55766617  1
  Se  Se119  1  0.08761406  0.75378500  0.05018100  1
  Se  Se120  1  0.07192136  0.73772978  0.55493389  1
  Se  Se121  1  0.41241352  0.07884186  0.06443861  1
  Se  Se122  1  0.41611694  0.08315284  0.54674040  1
  Se  Se123  1  0.40546896  0.40963882  0.06211655  1
  Se  Se124  1  0.40710046  0.40712015  0.55802420  1
  Se  Se125  1  0.41222406  0.75626048  0.05887852  1
  Se  Se126  1  0.41490540  0.74958644  0.55001797  1
  Se  Se127  1  0.75395903  0.08999315  0.05133969  1
  Se  Se128  1  0.75727592  0.07956676  0.55370631  1
  Se  Se129  1  0.75474857  0.41758141  0.05136299  1
  Se  Se130  1  0.74719990  0.41781251  0.55399195  1
  Se  Se131  1  0.75875530  0.75483176  0.05068940  1
  Se  Se132  1  0.73143766  0.75072860  0.56935842  1
  Se  Se133  1  0.24551222  0.24165864  0.05200550  1
  Se  Se134  1  0.24344735  0.24461868  0.54913951  1
  Se  Se135  1  0.25528879  0.58333938  0.05629487  1
  Se  Se136  1  0.24931305  0.58908107  0.55583814  1
  Se  Se137  1  0.24824253  0.91565205  0.05548578  1
  Se  Se138  1  0.25376944  0.92486531  0.55967574  1
  Se  Se139  1  0.58532263  0.26176319  0.06299281  1
  Se  Se140  1  0.58245096  0.24659881  0.55309783  1
  Se  Se141  1  0.59294265  0.60011929  0.06696315  1
  Se  Se142  1  0.58496038  0.58553501  0.56327949  1
  Se  Se143  1  0.58842896  0.92913454  0.05903788  1
  Se  Se144  1  0.58077638  0.91250395  0.54550666  1
  Se  Se145  1  0.91217106  0.24402294  0.05369514  1
  Se  Se146  1  0.92474172  0.26050735  0.54579895  1
  Se  Se147  1  0.91868783  0.57937678  0.05368464  1
  Se  Se148  1  0.90898795  0.57827157  0.55236153  1
  Se  Se149  1  0.91486365  0.91853260  0.05281718  1
  Se  Se150  1  0.92240850  0.92797352  0.56231441  1
  Se  Se151  1  0.07820832  0.26702165  0.43981593  1
  Se  Se152  1  0.08420277  0.24687568  0.95090547  1
  Se  Se153  1  0.07141689  0.58271636  0.43208706  1
  Se  Se154  1  0.08976342  0.58060974  0.95036883  1
  Se  Se155  1  0.07665504  0.92069770  0.44127995  1
  Se  Se156  1  0.08757477  0.91895253  0.95005866  1
  Se  Se157  1  0.41893054  0.24292898  0.44716583  1
  Se  Se158  1  0.40524148  0.26401816  0.94538521  1
  Se  Se159  1  0.40018077  0.57464344  0.43580295  1
  Se  Se160  1  0.41795873  0.59274925  0.94498128  1
  Se  Se161  1  0.41634940  0.91160619  0.44238611  1
  Se  Se162  1  0.41429840  0.93455677  0.94002878  1
  Se  Se163  1  0.75250780  0.24068445  0.45031171  1
  Se  Se164  1  0.74679816  0.24649636  0.94314870  1
  Se  Se165  1  0.75104647  0.58472049  0.45288397  1
  Se  Se166  1  0.75403675  0.57648897  0.94797190  1
  Se  Se167  1  0.74933360  0.92402663  0.43784147  1
  Se  Se168  1  0.75684901  0.91741288  0.94616590  1
  Se  Se169  1  0.24515423  0.08391989  0.44684845  1
  Se  Se170  1  0.24743155  0.08731334  0.94780051  1
  Se  Se171  1  0.25953425  0.40746777  0.43209492  1
  Se  Se172  1  0.24918016  0.42747405  0.95662028  1
  Se  Se173  1  0.25909036  0.75012057  0.43435144  1
  Se  Se174  1  0.25521733  0.75734249  0.94662776  1
  Se  Se175  1  0.58182968  0.08461902  0.44821309  1
  Se  Se176  1  0.58960624  0.08111411  0.94037068  1
  Se  Se177  1  0.59097171  0.40513692  0.43823243  1
  Se  Se178  1  0.58427892  0.41215409  0.94406580  1
  Se  Se179  1  0.57747030  0.74278586  0.44700475  1
  Se  Se180  1  0.59891259  0.74466420  0.94018121  1
  Se  Se181  1  0.92051800  0.08886534  0.44259165  1
  Se  Se182  1  0.91656165  0.08583621  0.94672200  1
  Se  Se183  1  0.89928025  0.43192361  0.44161277  1
  Se  Se184  1  0.91657072  0.41354405  0.94767199  1
  Se  Se185  1  0.91546072  0.74870406  0.44457337  1
  Se  Se186  1  0.92276761  0.74656775  0.94850623  1
  Se  Se187  1  0.25234988  0.23977994  0.30024272  1
  Se  Se188  1  0.23778057  0.24860989  0.81127058  1
  Se  Se189  1  0.25301341  0.59554714  0.29109927  1
  Se  Se190  1  0.25166053  0.59128590  0.80631516  1
  Se  Se191  1  0.24358082  0.91515702  0.30021192  1
  Se  Se192  1  0.25716056  0.92729962  0.80600999  1
  Se  Se193  1  0.58006292  0.24121089  0.31377958  1
  Se  Se194  1  0.57028763  0.23587295  0.79643709  1
  Se  Se195  1  0.57718342  0.57248395  0.31219991  1
  Se  Se196  1  0.57437986  0.57537633  0.81432040  1
  Se  Se197  1  0.58417321  0.91945818  0.30407873  1
  Se  Se198  1  0.57887110  0.91706468  0.80300580  1
  Se  Se199  1  0.92076736  0.25159554  0.30300126  1
  Se  Se200  1  0.91002726  0.23799061  0.81056280  1
  Se  Se201  1  0.91698109  0.57736038  0.31214316  1
  Se  Se202  1  0.91359140  0.56987595  0.80722778  1
  Se  Se203  1  0.92022325  0.92593069  0.29797276  1
  Se  Se204  1  0.92085586  0.91937453  0.80504130  1
  Se  Se205  1  0.08011923  0.08013679  0.30243359  1
  Se  Se206  1  0.08190121  0.07824439  0.80473504  1
  Se  Se207  1  0.11121230  0.43657244  0.29823421  1
  Se  Se208  1  0.09113201  0.41749046  0.81271796  1
  Se  Se209  1  0.08745937  0.75658062  0.31081003  1
  Se  Se210  1  0.09402501  0.76389977  0.81637053  1
  Se  Se211  1  0.41402412  0.07756854  0.30951545  1
  Se  Se212  1  0.42022737  0.10448815  0.80003193  1
  Se  Se213  1  0.42096235  0.40845166  0.29405771  1
  Se  Se214  1  0.41960147  0.42144722  0.81561532  1
  Se  Se215  1  0.41100151  0.73595987  0.29860048  1
  Se  Se216  1  0.41239292  0.75277667  0.79984248  1
  Se  Se217  1  0.74906327  0.08464840  0.29908377  1
  Se  Se218  1  0.75104062  0.08080164  0.80410605  1
  Se  Se219  1  0.75999712  0.41418312  0.31244675  1
  Se  Se220  1  0.74543641  0.40536727  0.80275408  1
  Se  Se221  1  0.75694027  0.76506853  0.31219375  1
  Se  Se222  1  0.76140639  0.75161905  0.81282869  1
  Se  Se223  1  0.25093916  0.07328755  0.19721210  1
  Se  Se224  1  0.25147826  0.08410858  0.69743174  1
  Se  Se225  1  0.25442542  0.40168599  0.19564872  1
  Se  Se226  1  0.24355278  0.42467296  0.69555319  1
  Se  Se227  1  0.24885842  0.74965483  0.19436956  1
  Se  Se228  1  0.25306939  0.75380033  0.69800926  1
  Se  Se229  1  0.58748809  0.08520526  0.20013497  1
  Se  Se230  1  0.60514794  0.04981820  0.68158035  1
  Se  Se231  1  0.58132921  0.42899784  0.19478288  1
  Se  Se232  1  0.58144244  0.41319821  0.70370327  1
  Se  Se233  1  0.57815501  0.76342430  0.19230051  1
  Se  Se234  1  0.57755332  0.75845081  0.68807807  1
  Se  Se235  1  0.91872549  0.08360537  0.19399479  1
  Se  Se236  1  0.92334300  0.08542648  0.69325406  1
  Se  Se237  1  0.92168963  0.41211976  0.20002898  1
  Se  Se238  1  0.90630675  0.41321848  0.68882470  1
  Se  Se239  1  0.90647548  0.76064411  0.19104710  1
  Se  Se240  1  0.91124222  0.75560922  0.69425426  1
  Se  Se241  1  0.08336749  0.24810471  0.19494726  1
  Se  Se242  1  0.08659362  0.24224643  0.68836134  1
  Se  Se243  1  0.08894251  0.58006913  0.18597987  1
  Se  Se244  1  0.08560506  0.57760463  0.69257857  1
  Se  Se245  1  0.07729804  0.91743605  0.19352515  1
  Se  Se246  1  0.08398286  0.91585368  0.69994516  1
  Se  Se247  1  0.41689434  0.23998912  0.19913682  1
  Se  Se248  1  0.41728468  0.24265771  0.68141772  1
  Se  Se249  1  0.42700777  0.56963159  0.19782071  1
  Se  Se250  1  0.41093133  0.58581881  0.70057181  1
  Se  Se251  1  0.42009782  0.91298093  0.20481629  1
  Se  Se252  1  0.41401303  0.92272681  0.69128624  1
  Se  Se253  1  0.75812570  0.24624272  0.18719964  1
  Se  Se254  1  0.74640817  0.24396207  0.69157790  1
  Se  Se255  1  0.75773154  0.58224702  0.19657459  1
  Se  Se256  1  0.75258031  0.57982025  0.69364699  1
  Se  Se257  1  0.74574444  0.92562506  0.19113375  1
  Se  Se258  1  0.76627180  0.90016706  0.70423922  1
