# generated using pymatgen
data_In86Cu29Se144
_symmetry_space_group_name_H-M   'P 1'
_cell_length_a   17.58673318
_cell_length_b   17.58471100
_cell_length_c   23.43774400
_cell_angle_alpha   89.95970224
_cell_angle_beta   89.99186379
_cell_angle_gamma   90.01980079
_symmetry_Int_Tables_number   1
_chemical_formula_structural   In86Cu29Se144
_chemical_formula_sum   'In86 Cu29 Se144'
_cell_volume   7248.29864204
_cell_formula_units_Z   1
loop_
 _symmetry_equiv_pos_site_id
 _symmetry_equiv_pos_as_xyz
  1  'x, y, z'
loop_
 _atom_site_type_symbol
 _atom_site_label
 _atom_site_symmetry_multiplicity
 _atom_site_fract_x
 _atom_site_fract_y
 _atom_site_fract_z
 _atom_site_occupancy
  In  In0  1  0.00020618  0.16419169  0.12918449  1
  In  In1  1  0.02164381  0.16843863  0.62343916  1
  In  In2  1  0.00445078  0.49102466  0.13232701  1
  In  In3  1  -0.01086598  0.49277218  0.61126808  1
  In  In4  1  0.00164282  0.83652151  0.12722463  1
  In  In5  1  -0.01259519  0.83706448  0.62636909  1
  In  In6  1  0.32035847  0.15411582  0.11146559  1
  In  In7  1  0.32540446  0.17222318  0.62985048  1
  In  In8  1  0.33030275  0.51594139  0.12728576  1
  In  In9  1  0.32394998  0.50719333  0.61811388  1
  In  In10  1  0.33594510  0.83662069  0.12899529  1
  In  In11  1  0.34549824  0.83751339  0.62773783  1
  In  In12  1  0.66697483  0.16794123  0.12393319  1
  In  In13  1  0.66840004  0.16749334  0.63142058  1
  In  In14  1  0.66976318  0.49490420  0.13227005  1
  In  In15  1  0.67471164  0.48348094  0.61899621  1
  In  In16  1  0.66921849  0.82975707  0.12038369  1
  In  In17  1  0.66821793  0.84897492  0.62770471  1
  In  In18  1  0.16409541  0.00478507  0.37093951  1
  In  In19  1  0.17314315  -0.00378471  0.88506183  1
  In  In20  1  0.16026902  0.34291271  0.37944241  1
  In  In21  1  0.16693559  0.33652481  0.88663504  1
  In  In22  1  0.15776210  0.65897135  0.35998896  1
  In  In23  1  0.16820019  0.66487020  0.88766564  1
  In  In24  1  0.50708366  0.00147020  0.35761695  1
  In  In25  1  0.49984352  0.00513749  0.87959777  1
  In  In26  1  0.50908382  0.32678170  0.37606789  1
  In  In27  1  0.51087560  0.28410550  0.88859939  1
  In  In28  1  0.51392343  0.68383246  0.35154769  1
  In  In29  1  0.50660301  0.68405302  0.88457458  1
  In  In30  1  0.83434132  0.01219466  0.35305281  1
  In  In31  1  0.82278378  0.01286664  0.88858637  1
  In  In32  1  0.84368477  0.32913556  0.36229628  1
  In  In33  1  0.82094705  0.32214273  0.86537086  1
  In  In34  1  0.82707237  0.65796185  0.36632708  1
  In  In35  1  0.83403463  0.66847490  0.88614418  1
  In  In36  1  0.00030981  0.17132877  0.36531403  1
  In  In37  1  -0.00783151  0.17490522  0.88218149  1
  In  In38  1  0.00087191  0.49739831  0.37166290  1
  In  In39  1  0.01075079  0.49087245  0.87803893  1
  In  In40  1  0.00380904  0.83582134  0.36216949  1
  In  In41  1  0.00013943  0.83496736  0.89137049  1
  In  In42  1  0.32775058  0.15277143  0.37374531  1
  In  In43  1  0.35149377  0.15319899  0.89886564  1
  In  In44  1  0.32106293  0.49936218  0.37334338  1
  In  In45  1  0.32830035  0.48558615  0.87967300  1
  In  In46  1  0.34352661  0.84006681  0.35203708  1
  In  In47  1  0.32314955  0.84699209  0.88590544  1
  In  In48  1  0.68351562  0.17446385  0.34701079  1
  In  In49  1  0.66966621  0.16382897  0.87571192  1
  In  In50  1  0.67478817  0.49892252  0.37330954  1
  In  In51  1  0.67677026  0.49184091  0.87412047  1
  In  In52  1  0.67402138  0.84792854  0.35561820  1
  In  In53  1  0.64185550  0.85444741  0.90637139  1
  In  In54  1  0.16935640  -0.00069936  0.12765020  1
  In  In55  1  0.16212208  0.01818442  0.62750301  1
  In  In56  1  0.15696639  0.31686555  0.10731647  1
  In  In57  1  0.15957550  0.32896536  0.62262631  1
  In  In58  1  0.16365625  0.66979583  0.12578148  1
  In  In59  1  0.17722233  0.65833034  0.61918758  1
  In  In60  1  0.49717966  -0.00617649  0.12480374  1
  In  In61  1  0.49812674  0.00708604  0.63704520  1
  In  In62  1  0.51265414  0.33182251  0.12151371  1
  In  In63  1  0.50940350  0.32810867  0.63064141  1
  In  In64  1  0.49873588  0.67774626  0.13478133  1
  In  In65  1  0.49486062  0.67015726  0.62470982  1
  In  In66  1  0.83999863  0.01003084  0.12880320  1
  In  In67  1  0.82403480  -0.00596259  0.62717094  1
  In  In68  1  0.84086178  0.31697583  0.13942242  1
  In  In69  1  0.83220530  0.33856764  0.62606121  1
  In  In70  1  0.81797576  0.68209371  0.13362883  1
  In  In71  1  0.84883768  0.66415166  0.62266482  1
  In  In72  1  0.33953037  0.32190728  0.75968698  1
  In  In73  1  0.66989909  0.67070931  0.75493948  1
  In  In74  1  0.50168262  0.16417505  0.50340934  1
  In  In75  1  0.49856041  0.50420798  0.00022875  1
  In  In76  1  0.33432520  0.33659688  0.24381991  1
  In  In77  1  0.48941970  0.50011345  0.49718759  1
  In  In78  1  0.16602603  0.82678749  0.49313094  1
  In  In79  1  -0.00443966  0.00699867  0.75199299  1
  In  In80  1  0.33233112  0.66448715  0.74684755  1
  In  In81  1  0.83270330  0.50186371  0.00502541  1
  In  In82  1  0.50187028  0.83371166  0.48426541  1
  In  In83  1  0.83597230  0.17046666  0.48639080  1
  In  In84  1  0.83254128  0.83236747  0.49974279  1
  In  In85  1  0.00406808  0.66108890  0.75553626  1
  Cu  Cu86  1  0.17216895  0.16739941  0.75520800  1
  Cu  Cu87  1  0.50716705  0.48954688  0.75536436  1
  Cu  Cu88  1  0.33112672  0.67241465  0.00782998  1
  Cu  Cu89  1  0.66986103  0.00414321  0.00871911  1
  Cu  Cu90  1  0.00252015  0.33101652  0.49464485  1
  Cu  Cu91  1  0.32682618  0.66122819  0.48652033  1
  Cu  Cu92  1  0.32371661  0.32577100  0.50193430  1
  Cu  Cu93  1  0.67109148  0.32615710  -0.00053349  1
  Cu  Cu94  1  0.50351983  0.50191738  0.24756025  1
  Cu  Cu95  1  0.00523289  0.00329867  0.00741717  1
  Cu  Cu96  1  0.17057042  0.84371008  0.76003830  1
  Cu  Cu97  1  -0.00742138  0.33013799  0.00503731  1
  Cu  Cu98  1  0.49670398  0.16419739  0.24205318  1
  Cu  Cu99  1  0.16271124  0.48909796  0.75115394  1
  Cu  Cu100  1  0.33609452  -0.00480728  0.00578764  1
  Cu  Cu101  1  0.83841613  0.49256386  0.74508022  1
  Cu  Cu102  1  0.49563297  0.84445809  0.75995223  1
  Cu  Cu103  1  0.16480460  0.49677143  0.24764587  1
  Cu  Cu104  1  0.66307604  0.00512879  0.49042892  1
  Cu  Cu105  1  0.16696177  0.83741280  0.24376830  1
  Cu  Cu106  1  0.32153199  -0.00086441  0.49687560  1
  Cu  Cu107  1  0.83867725  0.49877386  0.25044666  1
  Cu  Cu108  1  0.83538685  0.17056792  0.75500498  1
  Cu  Cu109  1  0.82407007  0.84139735  0.76257562  1
  Cu  Cu110  1  0.67455515  0.65896294  0.49405728  1
  Cu  Cu111  1  -0.00390732  0.67065013  0.00854709  1
  Cu  Cu112  1  0.83892665  0.83414844  0.24199240  1
  Cu  Cu113  1  0.16782793  0.17163530  0.24445961  1
  Cu  Cu114  1  0.00408876  0.66090618  0.49142568  1
  Se  Se115  1  0.08804984  0.08723736  0.05977511  1
  Se  Se116  1  0.07958438  0.07747854  0.55004922  1
  Se  Se117  1  0.07658547  0.41841265  0.05214843  1
  Se  Se118  1  0.08492332  0.41426351  0.55047184  1
  Se  Se119  1  0.08353439  0.75428217  0.05595067  1
  Se  Se120  1  0.07209372  0.74145171  0.56124277  1
  Se  Se121  1  0.42255047  0.08214972  0.05203771  1
  Se  Se122  1  0.40679318  0.07326672  0.55902985  1
  Se  Se123  1  0.41241750  0.41841141  0.06471663  1
  Se  Se124  1  0.40831785  0.40268886  0.56274665  1
  Se  Se125  1  0.41853094  0.75162642  0.05894979  1
  Se  Se126  1  0.40647383  0.74275468  0.54817756  1
  Se  Se127  1  0.75589420  0.08929664  0.05644358  1
  Se  Se128  1  0.74538585  0.08060368  0.55244980  1
  Se  Se129  1  0.74869406  0.40418127  0.06169383  1
  Se  Se130  1  0.76499920  0.42013803  0.54868515  1
  Se  Se131  1  0.75383234  0.74963364  0.05036137  1
  Se  Se132  1  0.74019345  0.74295612  0.56271294  1
  Se  Se133  1  0.26515522  0.26057507  0.04683885  1
  Se  Se134  1  0.24245770  0.24241982  0.55563608  1
  Se  Se135  1  0.24516164  0.58635926  0.05383211  1
  Se  Se136  1  0.24477327  0.57835041  0.54108191  1
  Se  Se137  1  0.24948723  0.91415116  0.05769846  1
  Se  Se138  1  0.25147201  0.91570132  0.56135363  1
  Se  Se139  1  0.58200039  0.24481209  0.04877051  1
  Se  Se140  1  0.59698676  0.25718850  0.55501087  1
  Se  Se141  1  0.58617982  0.58478697  0.06618291  1
  Se  Se142  1  0.58543411  0.59096255  0.55706852  1
  Se  Se143  1  0.58380567  0.91658265  0.05451336  1
  Se  Se144  1  0.58245675  0.92626161  0.55280820  1
  Se  Se145  1  0.91260017  0.24537726  0.05895838  1
  Se  Se146  1  0.92459964  0.25061778  0.55686201  1
  Se  Se147  1  0.91854188  0.58838107  0.06913866  1
  Se  Se148  1  0.91386449  0.58426656  0.54460237  1
  Se  Se149  1  0.91899240  0.92217818  0.05958942  1
  Se  Se150  1  0.92260657  0.93101018  0.55427713  1
  Se  Se151  1  0.08164799  0.24602649  0.43987195  1
  Se  Se152  1  0.08105849  0.25030492  0.95129390  1
  Se  Se153  1  0.08940811  0.58013246  0.43914340  1
  Se  Se154  1  0.07139325  0.58744008  0.94799684  1
  Se  Se155  1  0.07401749  0.91966850  0.44044419  1
  Se  Se156  1  0.08776065  0.91751714  0.95441518  1
  Se  Se157  1  0.40728002  0.25265142  0.44143973  1
  Se  Se158  1  0.39201295  0.27702569  0.95145071  1
  Se  Se159  1  0.41991137  0.59418870  0.42730297  1
  Se  Se160  1  0.40499637  0.59507944  0.93924831  1
  Se  Se161  1  0.40683146  0.92925970  0.43427739  1
  Se  Se162  1  0.42199386  0.91606842  0.94947774  1
  Se  Se163  1  0.73964265  0.25683946  0.43173132  1
  Se  Se164  1  0.75667752  0.24491090  0.94594487  1
  Se  Se165  1  0.75934419  0.57689203  0.44465764  1
  Se  Se166  1  0.73506804  0.58825850  0.94804616  1
  Se  Se167  1  0.74986089  0.92567203  0.43586372  1
  Se  Se168  1  0.75597773  0.91798165  0.95770207  1
  Se  Se169  1  0.24004934  0.08558345  0.44720406  1
  Se  Se170  1  0.24808396  0.08148500  0.95667669  1
  Se  Se171  1  0.25056041  0.41709998  0.44852204  1
  Se  Se172  1  0.23185147  0.43745705  0.95178233  1
  Se  Se173  1  0.25648176  0.74891834  0.42548836  1
  Se  Se174  1  0.24740044  0.75454272  0.95157407  1
  Se  Se175  1  0.58745885  0.08730517  0.43020142  1
  Se  Se176  1  0.58946123  0.08293456  0.94785286  1
  Se  Se177  1  0.58900441  0.41238058  0.44579816  1
  Se  Se178  1  0.58787819  0.40718108  0.94095956  1
  Se  Se179  1  0.60320916  0.74609491  0.43343472  1
  Se  Se180  1  0.58734148  0.74160654  0.96350499  1
  Se  Se181  1  0.92156861  0.07195397  0.43387076  1
  Se  Se182  1  0.92144120  0.08373212  0.95145316  1
  Se  Se183  1  0.91830784  0.40912834  0.43778177  1
  Se  Se184  1  0.91370009  0.40826946  0.94054834  1
  Se  Se185  1  0.92298063  0.74677661  0.43623371  1
  Se  Se186  1  0.91192480  0.75240131  0.95541359  1
  Se  Se187  1  0.24642106  0.25010746  0.30895960  1
  Se  Se188  1  0.24845068  0.23890535  0.82238238  1
  Se  Se189  1  0.25274440  0.58004611  0.29672923  1
  Se  Se190  1  0.24099497  0.57609282  0.80816378  1
  Se  Se191  1  0.24512244  0.92384058  0.29984923  1
  Se  Se192  1  0.25590393  0.92764816  0.80750030  1
  Se  Se193  1  0.57538389  0.25067271  0.29698664  1
  Se  Se194  1  0.60074729  0.25865671  0.80668273  1
  Se  Se195  1  0.59245954  0.57870419  0.30183618  1
  Se  Se196  1  0.57536294  0.58089150  0.81410496  1
  Se  Se197  1  0.55752627  0.89035481  0.29731685  1
  Se  Se198  1  0.58628686  0.91560549  0.81523097  1
  Se  Se199  1  0.89244953  0.21837151  0.29683223  1
  Se  Se200  1  0.92367267  0.25301603  0.80274897  1
  Se  Se201  1  0.92221299  0.58375558  0.30226898  1
  Se  Se202  1  0.90716543  0.57354213  0.81259521  1
  Se  Se203  1  0.92036538  0.92008495  0.29555160  1
  Se  Se204  1  0.91385266  0.91634905  0.81807974  1
  Se  Se205  1  0.08526806  0.08709507  0.29919870  1
  Se  Se206  1  0.08880101  0.08809722  0.81488433  1
  Se  Se207  1  0.08310128  0.41274256  0.30158970  1
  Se  Se208  1  0.08466896  0.40588929  0.80686993  1
  Se  Se209  1  0.08241990  0.75041583  0.29433768  1
  Se  Se210  1  0.09022415  0.75875215  0.81420123  1
  Se  Se211  1  0.41322388  0.08604227  0.29967785  1
  Se  Se212  1  0.42131610  0.09578822  0.81400656  1
  Se  Se213  1  0.42450079  0.42181682  0.31059574  1
  Se  Se214  1  0.43089431  0.41179307  0.81876849  1
  Se  Se215  1  0.41162568  0.74384010  0.28838559  1
  Se  Se216  1  0.41440514  0.75608243  0.81197356  1
  Se  Se217  1  0.71387360  0.04904820  0.29679298  1
  Se  Se218  1  0.75548107  0.08244102  0.80533888  1
  Se  Se219  1  0.75266204  0.41517181  0.30238469  1
  Se  Se220  1  0.74846807  0.41529542  0.79715682  1
  Se  Se221  1  0.75659619  0.75267930  0.29883609  1
  Se  Se222  1  0.74786862  0.75897453  0.82247371  1
  Se  Se223  1  0.25261355  0.08645442  0.19533216  1
  Se  Se224  1  0.25233100  0.08312754  0.70004440  1
  Se  Se225  1  0.23953670  0.41749322  0.18314853  1
  Se  Se226  1  0.25366748  0.41677493  0.69332489  1
  Se  Se227  1  0.24949044  0.74997079  0.19453479  1
  Se  Se228  1  0.23926317  0.76046822  0.69205528  1
  Se  Se229  1  0.58171712  0.08190202  0.19048360  1
  Se  Se230  1  0.60250385  0.06980816  0.69574823  1
  Se  Se231  1  0.58293205  0.41224492  0.19824017  1
  Se  Se232  1  0.59047868  0.41613098  0.69512358  1
  Se  Se233  1  0.60137618  0.74297140  0.19578601  1
  Se  Se234  1  0.57274219  0.76323320  0.69519803  1
  Se  Se235  1  0.90332323  0.10475239  0.20248593  1
  Se  Se236  1  0.90990546  0.09426201  0.68580130  1
  Se  Se237  1  0.92076278  0.41052879  0.20140248  1
  Se  Se238  1  0.92638911  0.41517058  0.69240092  1
  Se  Se239  1  0.92340258  0.74586327  0.19544713  1
  Se  Se240  1  0.90510613  0.75882694  0.70349955  1
  Se  Se241  1  0.08501262  0.25637189  0.19267125  1
  Se  Se242  1  0.08913383  0.24984994  0.70078320  1
  Se  Se243  1  0.08364780  0.58370971  0.19591085  1
  Se  Se244  1  0.08967106  0.57471021  0.68904329  1
  Se  Se245  1  0.08036515  0.92325435  0.19700263  1
  Se  Se246  1  0.08527629  0.91048069  0.69387109  1
  Se  Se247  1  0.41627250  0.24332308  0.18211694  1
  Se  Se248  1  0.43098494  0.23516531  0.69618651  1
  Se  Se249  1  0.41708007  0.58541354  0.19905154  1
  Se  Se250  1  0.42689082  0.56680325  0.69282742  1
  Se  Se251  1  0.40783490  0.92742576  0.19786739  1
  Se  Se252  1  0.41199513  0.92252348  0.70217921  1
  Se  Se253  1  0.72566206  0.26592235  0.19496559  1
  Se  Se254  1  0.75516174  0.25188020  0.69509644  1
  Se  Se255  1  0.75268331  0.58003069  0.19820227  1
  Se  Se256  1  0.75873869  0.58203504  0.68994077  1
  Se  Se257  1  0.75460421  0.91561708  0.18790139  1
  Se  Se258  1  0.74517564  0.92272583  0.70411214  1
