# generated using pymatgen
data_In86Cu29Se144
_symmetry_space_group_name_H-M   'P 1'
_cell_length_a   17.57705369
_cell_length_b   17.58348248
_cell_length_c   23.45020081
_cell_angle_alpha   89.98760809
_cell_angle_beta   89.97885874
_cell_angle_gamma   90.00298769
_symmetry_Int_Tables_number   1
_chemical_formula_structural   In86Cu29Se144
_chemical_formula_sum   'In86 Cu29 Se144'
_cell_volume   7247.65476571
_cell_formula_units_Z   1
loop_
 _symmetry_equiv_pos_site_id
 _symmetry_equiv_pos_as_xyz
  1  'x, y, z'
loop_
 _atom_site_type_symbol
 _atom_site_label
 _atom_site_symmetry_multiplicity
 _atom_site_fract_x
 _atom_site_fract_y
 _atom_site_fract_z
 _atom_site_occupancy
  In  In0  1  0.00330503  0.16732673  0.13006001  1
  In  In1  1  -0.01598621  0.16099779  0.62710278  1
  In  In2  1  -0.01349855  0.49948921  0.11627952  1
  In  In3  1  -0.00157101  0.51073297  0.62769765  1
  In  In4  1  -0.01035312  0.85117017  0.12943886  1
  In  In5  1  -0.01263193  0.84004440  0.63190652  1
  In  In6  1  0.33609280  0.15356009  0.12562527  1
  In  In7  1  0.35238003  0.15562380  0.62932452  1
  In  In8  1  0.33475543  0.51330994  0.11684857  1
  In  In9  1  0.32756546  0.50046752  0.63567954  1
  In  In10  1  0.34677107  0.83949756  0.12584319  1
  In  In11  1  0.34816555  0.82226823  0.63088902  1
  In  In12  1  0.66433719  0.16559208  0.12429109  1
  In  In13  1  0.66383390  0.16699957  0.62774622  1
  In  In14  1  0.67233562  0.49837388  0.12425194  1
  In  In15  1  0.66972615  0.49477104  0.63104386  1
  In  In16  1  0.66639971  0.84268696  0.13098353  1
  In  In17  1  0.66286687  0.82616025  0.63139810  1
  In  In18  1  0.16326071  -0.00101687  0.36826032  1
  In  In19  1  0.16139714  0.01543416  0.86691155  1
  In  In20  1  0.15874397  0.34296280  0.37361502  1
  In  In21  1  0.18252946  0.33574238  0.87111850  1
  In  In22  1  0.17100986  0.67348737  0.37843507  1
  In  In23  1  0.15789299  0.65985786  0.86917190  1
  In  In24  1  0.50913810  -0.00015605  0.37496837  1
  In  In25  1  0.52798164  -0.02284865  0.89949642  1
  In  In26  1  0.50480180  0.31994193  0.37781667  1
  In  In27  1  0.49988907  0.32744520  0.87162665  1
  In  In28  1  0.51932116  0.66431310  0.37724267  1
  In  In29  1  0.52902151  0.70083505  0.83892591  1
  In  In30  1  0.80523767  -0.03627776  0.34133131  1
  In  In31  1  0.80892589  -0.02843950  0.87393861  1
  In  In32  1  0.83351253  0.33807398  0.36675513  1
  In  In33  1  0.83301022  0.34731459  0.87797151  1
  In  In34  1  0.81566644  0.68582863  0.39200230  1
  In  In35  1  0.82777067  0.66919095  0.87737379  1
  In  In36  1  -0.01644771  0.15754163  0.36594668  1
  In  In37  1  0.00616844  0.15735140  0.87257861  1
  In  In38  1  -0.00698586  0.48972153  0.36760101  1
  In  In39  1  -0.01685610  0.51625085  0.88520544  1
  In  In40  1  -0.02031098  0.83317772  0.37124104  1
  In  In41  1  -0.00990806  0.82250935  0.86591987  1
  In  In42  1  0.35637861  0.16104135  0.38181170  1
  In  In43  1  0.34198862  0.17831547  0.87151242  1
  In  In44  1  0.33676864  0.50459896  0.37647586  1
  In  In45  1  0.33554631  0.49750645  0.87101323  1
  In  In46  1  0.33108415  0.84602692  0.37659291  1
  In  In47  1  0.36251892  0.83490495  0.86858480  1
  In  In48  1  0.65674700  0.15680603  0.36907338  1
  In  In49  1  0.65313794  0.15209333  0.87158043  1
  In  In50  1  0.68140490  0.51631065  0.36773199  1
  In  In51  1  0.68250971  0.51089138  0.87002779  1
  In  In52  1  0.66827631  0.83088475  0.37458597  1
  In  In53  1  0.66501612  0.83018239  0.87950707  1
  In  In54  1  0.16655880  0.01069116  0.13222712  1
  In  In55  1  0.16487640  -0.00792423  0.62857953  1
  In  In56  1  0.15429829  0.33566879  0.12175853  1
  In  In57  1  0.16508998  0.34516035  0.62899008  1
  In  In58  1  0.17866912  0.66434292  0.11282608  1
  In  In59  1  0.17018431  0.65999897  0.63457760  1
  In  In60  1  0.50256234  -0.00262239  0.12844492  1
  In  In61  1  0.50857222  -0.00195159  0.62181765  1
  In  In62  1  0.51756269  0.33357052  0.12585232  1
  In  In63  1  0.50671134  0.31968171  0.63442810  1
  In  In64  1  0.51844852  0.69373110  0.11266365  1
  In  In65  1  0.49166111  0.68319449  0.64132868  1
  In  In66  1  0.82635792  -0.00190508  0.12727025  1
  In  In67  1  0.82756414  -0.00713685  0.62659475  1
  In  In68  1  0.82851442  0.34009925  0.12928654  1
  In  In69  1  0.81763123  0.32877095  0.62492221  1
  In  In70  1  0.82147113  0.67822094  0.11506178  1
  In  In71  1  0.83064040  0.66701221  0.62834003  1
  In  In72  1  0.34197897  0.66619409  0.24543933  1
  In  In73  1  0.17292059  0.17292538  -0.00613830  1
  In  In74  1  0.33451667  0.33200642  0.25854552  1
  In  In75  1  0.82022544  0.15293641  0.49530200  1
  In  In76  1  0.16588836  0.50677912  0.50752262  1
  In  In77  1  0.50626760  0.50539550  0.50148056  1
  In  In78  1  0.16481511  0.83123227  -0.00539881  1
  In  In79  1  0.17061434  0.83078304  0.51107368  1
  In  In80  1  0.33298282  0.00353275  0.75277707  1
  In  In81  1  -0.00996172  0.66693734  0.24037520  1
  In  In82  1  0.16834003  0.16844601  0.50479437  1
  In  In83  1  0.50721331  0.50976871  -0.00665740  1
  In  In84  1  0.82812603  0.16033355  0.00383338  1
  In  In85  1  0.00096748  0.32779055  0.75442863  1
  Cu  Cu86  1  0.66955125  0.33190622  0.00248487  1
  Cu  Cu87  1  0.82994683  0.83179375  0.75023693  1
  Cu  Cu88  1  0.50153686  0.16250686  0.75285006  1
  Cu  Cu89  1  0.33308601  0.66076130  -0.01247517  1
  Cu  Cu90  1  0.16243070  0.83638413  0.24939237  1
  Cu  Cu91  1  -0.00356611  0.67183374  -0.00324411  1
  Cu  Cu92  1  -0.00785936  0.66285872  0.50354559  1
  Cu  Cu93  1  0.34898854  0.00240016  0.49944855  1
  Cu  Cu94  1  0.83442752  0.50469868  0.24500930  1
  Cu  Cu95  1  0.66700017  0.33648747  0.50225438  1
  Cu  Cu96  1  0.34100378  0.33609536  0.50625189  1
  Cu  Cu97  1  -0.00485745  -0.00023795  -0.00458860  1
  Cu  Cu98  1  0.16469591  0.49707015  0.75471779  1
  Cu  Cu99  1  -0.01170095  0.33217235  0.49046485  1
  Cu  Cu100  1  0.34180903  -0.00231110  0.00359854  1
  Cu  Cu101  1  -0.00107585  0.34362928  0.00022504  1
  Cu  Cu102  1  0.16280280  0.83391163  0.74994268  1
  Cu  Cu103  1  0.50441854  0.83514415  0.24886345  1
  Cu  Cu104  1  0.66978364  0.67060659  0.50596325  1
  Cu  Cu105  1  -0.00624317  -0.01031439  0.49840818  1
  Cu  Cu106  1  0.16271862  0.49611896  0.24401732  1
  Cu  Cu107  1  0.50377492  0.16269216  0.25160443  1
  Cu  Cu108  1  0.51064766  0.50436355  0.24607429  1
  Cu  Cu109  1  0.83424395  0.50235238  0.75341508  1
  Cu  Cu110  1  0.83352268  0.17116574  0.24398294  1
  Cu  Cu111  1  0.16867275  0.16925951  0.25042370  1
  Cu  Cu112  1  0.49891097  0.49182550  0.75068749  1
  Cu  Cu113  1  0.33904994  0.33776173  -0.00511177  1
  Cu  Cu114  1  0.82603510  0.15587044  0.75148593  1
  Se  Se115  1  0.07931832  0.08051287  0.05217872  1
  Se  Se116  1  0.07216053  0.07301655  0.55660922  1
  Se  Se117  1  0.08495752  0.42551544  0.05222428  1
  Se  Se118  1  0.06871171  0.40799879  0.55467108  1
  Se  Se119  1  0.07334024  0.75047008  0.06163349  1
  Se  Se120  1  0.07566759  0.73911984  0.56507575  1
  Se  Se121  1  0.42339207  0.08313429  0.05554673  1
  Se  Se122  1  0.42989164  0.08707171  0.55236730  1
  Se  Se123  1  0.42034043  0.41488491  0.05792214  1
  Se  Se124  1  0.41788780  0.41717163  0.56601668  1
  Se  Se125  1  0.40056944  0.73964081  0.05557496  1
  Se  Se126  1  0.43171255  0.75577806  0.55597071  1
  Se  Se127  1  0.73244217  0.06734924  0.05308524  1
  Se  Se128  1  0.73128051  0.06709499  0.55709884  1
  Se  Se129  1  0.75300051  0.41663789  0.05306802  1
  Se  Se130  1  0.75016639  0.41969969  0.55428448  1
  Se  Se131  1  0.75563253  0.78125205  0.05176535  1
  Se  Se132  1  0.75379804  0.75418946  0.55883321  1
  Se  Se133  1  0.26108115  0.25951839  0.06075434  1
  Se  Se134  1  0.25842870  0.25705252  0.56553584  1
  Se  Se135  1  0.24927877  0.57794003  0.04064425  1
  Se  Se136  1  0.26459560  0.59477554  0.55863760  1
  Se  Se137  1  0.24996420  0.92410561  0.05956292  1
  Se  Se138  1  0.26721608  0.92616598  0.56187559  1
  Se  Se139  1  0.58409464  0.24795787  0.05184727  1
  Se  Se140  1  0.58633574  0.25189615  0.55593373  1
  Se  Se141  1  0.60018528  0.59579352  0.05303533  1
  Se  Se142  1  0.58779690  0.59317218  0.56720420  1
  Se  Se143  1  0.55574781  0.88889081  0.06496882  1
  Se  Se144  1  0.56272424  0.88690962  0.56200986  1
  Se  Se145  1  0.92352380  0.25489211  0.05786850  1
  Se  Se146  1  0.91335931  0.25099395  0.55298904  1
  Se  Se147  1  0.91129598  0.59302764  0.05292742  1
  Se  Se148  1  0.91035802  0.57945830  0.55681608  1
  Se  Se149  1  0.91256686  0.92389917  0.05349848  1
  Se  Se150  1  0.90991044  0.91216153  0.55491024  1
  Se  Se151  1  0.07474298  0.24992187  0.43883587  1
  Se  Se152  1  0.07452024  0.26144216  0.93908822  1
  Se  Se153  1  0.07456667  0.58893904  0.43984134  1
  Se  Se154  1  0.08311561  0.58724210  0.94864933  1
  Se  Se155  1  0.08257943  0.91349487  0.44203039  1
  Se  Se156  1  0.07776537  0.92364450  0.93461711  1
  Se  Se157  1  0.42252672  0.25134981  0.45387601  1
  Se  Se158  1  0.42171438  0.25009950  0.94780818  1
  Se  Se159  1  0.41255290  0.59562685  0.44306384  1
  Se  Se160  1  0.42261469  0.59417927  0.92783974  1
  Se  Se161  1  0.42373258  0.91515588  0.44377007  1
  Se  Se162  1  0.42004251  0.90622838  0.95493286  1
  Se  Se163  1  0.74226058  0.25586827  0.43728053  1
  Se  Se164  1  0.74602898  0.25159212  0.93871133  1
  Se  Se165  1  0.74944052  0.58100873  0.45325429  1
  Se  Se166  1  0.75703008  0.57918525  0.94830462  1
  Se  Se167  1  0.75656799  0.91683919  0.43737939  1
  Se  Se168  1  0.75150078  0.89548868  0.95796950  1
  Se  Se169  1  0.25553666  0.07536550  0.44355226  1
  Se  Se170  1  0.26192139  0.07446449  0.94069022  1
  Se  Se171  1  0.25769339  0.41089353  0.44609994  1
  Se  Se172  1  0.25302966  0.41930416  0.94506651  1
  Se  Se173  1  0.26261869  0.74490766  0.44766649  1
  Se  Se174  1  0.25620690  0.74919990  0.93094386  1
  Se  Se175  1  0.57765139  0.09115177  0.44587255  1
  Se  Se176  1  0.57872867  0.09275642  0.95460496  1
  Se  Se177  1  0.59254724  0.41714562  0.43707947  1
  Se  Se178  1  0.59379814  0.41202814  0.93750588  1
  Se  Se179  1  0.58752558  0.75111437  0.44920418  1
  Se  Se180  1  0.57137920  0.74321307  0.93755708  1
  Se  Se181  1  0.91415167  0.06734576  0.43742135  1
  Se  Se182  1  0.91178396  0.07442319  0.93491368  1
  Se  Se183  1  0.90833932  0.42064628  0.44192350  1
  Se  Se184  1  0.90901878  0.42453589  0.95279551  1
  Se  Se185  1  0.91787156  0.75593404  0.45297201  1
  Se  Se186  1  0.91334597  0.75530564  0.94492516  1
  Se  Se187  1  0.24607157  0.24045227  0.31926854  1
  Se  Se188  1  0.23448871  0.22997404  0.80775153  1
  Se  Se189  1  0.24143355  0.57693229  0.30446664  1
  Se  Se190  1  0.24988324  0.58194202  0.80434175  1
  Se  Se191  1  0.24930875  0.91667473  0.30185624  1
  Se  Se192  1  0.24456669  0.90887802  0.81365874  1
  Se  Se193  1  0.58523291  0.25265875  0.30076197  1
  Se  Se194  1  0.58685052  0.24839470  0.80322529  1
  Se  Se195  1  0.59110584  0.59073289  0.29887118  1
  Se  Se196  1  0.58533709  0.57427703  0.80067928  1
  Se  Se197  1  0.58750847  0.91652006  0.30412978  1
  Se  Se198  1  0.58625603  0.91898292  0.81095869  1
  Se  Se199  1  0.91696738  0.25439660  0.29923539  1
  Se  Se200  1  0.90415405  0.23989291  0.81200729  1
  Se  Se201  1  0.90647059  0.58623609  0.31085188  1
  Se  Se202  1  0.91460983  0.58946203  0.80529212  1
  Se  Se203  1  0.93617114  0.93102347  0.29799359  1
  Se  Se204  1  0.91208449  0.91777100  0.80415599  1
  Se  Se205  1  0.08280388  0.08638781  0.30290159  1
  Se  Se206  1  0.07534753  0.08275082  0.79472805  1
  Se  Se207  1  0.07980991  0.41400843  0.29736703  1
  Se  Se208  1  0.07961173  0.42447989  0.81719871  1
  Se  Se209  1  0.08547594  0.75125318  0.30671418  1
  Se  Se210  1  0.08023595  0.74618110  0.79989822  1
  Se  Se211  1  0.41979770  0.07959595  0.30461017  1
  Se  Se212  1  0.42912838  0.07978204  0.81716189  1
  Se  Se213  1  0.43111610  0.42829792  0.30923124  1
  Se  Se214  1  0.41433371  0.40877212  0.80403710  1
  Se  Se215  1  0.42378128  0.75493615  0.31109664  1
  Se  Se216  1  0.40195696  0.73970446  0.79177658  1
  Se  Se217  1  0.75164044  0.09000415  0.30005511  1
  Se  Se218  1  0.74538320  0.07365373  0.80800327  1
  Se  Se219  1  0.74970917  0.42145356  0.29931281  1
  Se  Se220  1  0.75059453  0.41355293  0.80119065  1
  Se  Se221  1  0.75179909  0.74610986  0.30669595  1
  Se  Se222  1  0.74777880  0.75042918  0.80624520  1
  Se  Se223  1  0.25510629  0.08499070  0.20177342  1
  Se  Se224  1  0.24190981  0.09160786  0.69046516  1
  Se  Se225  1  0.25414442  0.42201026  0.18842560  1
  Se  Se226  1  0.24882109  0.41231681  0.70376412  1
  Se  Se227  1  0.24309110  0.75616125  0.18971903  1
  Se  Se228  1  0.24871773  0.75490223  0.69571571  1
  Se  Se229  1  0.58628770  0.08162348  0.19568488  1
  Se  Se230  1  0.58266563  0.08097714  0.69560586  1
  Se  Se231  1  0.59246192  0.41654050  0.19662232  1
  Se  Se232  1  0.58603051  0.41056242  0.69804311  1
  Se  Se233  1  0.58881289  0.74885319  0.19969117  1
  Se  Se234  1  0.59684378  0.73662203  0.70657688  1
  Se  Se235  1  0.91420555  0.08486402  0.19135305  1
  Se  Se236  1  0.91047707  0.07603336  0.69676212  1
  Se  Se237  1  0.91997383  0.41968677  0.19507024  1
  Se  Se238  1  0.91143981  0.41693330  0.69209239  1
  Se  Se239  1  0.89943204  0.76533368  0.19254924  1
  Se  Se240  1  0.91574580  0.74693741  0.69893930  1
  Se  Se241  1  0.08648842  0.25260331  0.19691937  1
  Se  Se242  1  0.08501344  0.24228460  0.68685296  1
  Se  Se243  1  0.09082715  0.58200948  0.18388765  1
  Se  Se244  1  0.08163685  0.58100649  0.70139032  1
  Se  Se245  1  0.08338118  0.92249974  0.19563690  1
  Se  Se246  1  0.07925237  0.91792000  0.69809617  1
  Se  Se247  1  0.42268202  0.24711708  0.19278827  1
  Se  Se248  1  0.41415189  0.24660763  0.70296189  1
  Se  Se249  1  0.43532275  0.58288663  0.18271073  1
  Se  Se250  1  0.41734421  0.57975548  0.69962249  1
  Se  Se251  1  0.41566043  0.91951088  0.20163591  1
  Se  Se252  1  0.42641535  0.91431371  0.69772835  1
  Se  Se253  1  0.74609007  0.25121991  0.19203666  1
  Se  Se254  1  0.74848655  0.24528579  0.69897059  1
  Se  Se255  1  0.75433881  0.58776095  0.18872330  1
  Se  Se256  1  0.74990848  0.58229554  0.69790225  1
  Se  Se257  1  0.74394427  0.92730369  0.20202717  1
  Se  Se258  1  0.74489916  0.91523522  0.69789327  1
