# generated using pymatgen
data_In86Cu29Se144
_symmetry_space_group_name_H-M   'P 1'
_cell_length_a   17.58028687
_cell_length_b   17.58171280
_cell_length_c   23.44542373
_cell_angle_alpha   90.00746354
_cell_angle_beta   89.96557661
_cell_angle_gamma   90.02769991
_symmetry_Int_Tables_number   1
_chemical_formula_structural   In86Cu29Se144
_chemical_formula_sum   'In86 Cu29 Se144'
_cell_volume   7246.78025326
_cell_formula_units_Z   1
loop_
 _symmetry_equiv_pos_site_id
 _symmetry_equiv_pos_as_xyz
  1  'x, y, z'
loop_
 _atom_site_type_symbol
 _atom_site_label
 _atom_site_symmetry_multiplicity
 _atom_site_fract_x
 _atom_site_fract_y
 _atom_site_fract_z
 _atom_site_occupancy
  In  In0  1  0.00592355  0.16051317  0.13531297  1
  In  In1  1  -0.00825125  0.15667529  0.61866326  1
  In  In2  1  -0.00108395  0.49719209  0.12055766  1
  In  In3  1  -0.00405454  0.51737559  0.63146937  1
  In  In4  1  -0.01837109  0.84026704  0.13093641  1
  In  In5  1  -0.00177357  0.83316110  0.61886880  1
  In  In6  1  0.34172262  0.15424420  0.13531977  1
  In  In7  1  0.32450885  0.14543014  0.60131979  1
  In  In8  1  0.34479177  0.51404838  0.12219262  1
  In  In9  1  0.32889174  0.49570898  0.62671644  1
  In  In10  1  0.33735960  0.82536854  0.13245038  1
  In  In11  1  0.33091903  0.85067354  0.61779498  1
  In  In12  1  0.64682408  0.16451637  0.12617507  1
  In  In13  1  0.67540770  0.17107919  0.61889508  1
  In  In14  1  0.66859340  0.48905397  0.10675521  1
  In  In15  1  0.68575481  0.48763053  0.64449231  1
  In  In16  1  0.67719710  0.84196734  0.12096522  1
  In  In17  1  0.67410583  0.81353204  0.62910407  1
  In  In18  1  0.16618828  0.00207976  0.37355464  1
  In  In19  1  0.15996843  0.00683101  0.87226896  1
  In  In20  1  0.15160328  0.33366061  0.37018155  1
  In  In21  1  0.17449081  0.33178735  0.88037722  1
  In  In22  1  0.17157882  0.68174070  0.36872170  1
  In  In23  1  0.14687132  0.66726476  0.87377368  1
  In  In24  1  0.51104371  0.01555657  0.35699032  1
  In  In25  1  0.50023728  0.00202374  0.89084457  1
  In  In26  1  0.48954326  0.32461519  0.36867115  1
  In  In27  1  0.51634487  0.32639952  0.89277251  1
  In  In28  1  0.50030511  0.67697939  0.36568956  1
  In  In29  1  0.52302867  0.64821154  0.89354165  1
  In  In30  1  0.83205290  -0.00099753  0.37558724  1
  In  In31  1  0.83902374  -0.01170871  0.87663592  1
  In  In32  1  0.84179999  0.32356811  0.38121685  1
  In  In33  1  0.82328402  0.36921134  0.88772946  1
  In  In34  1  0.84145508  0.65758332  0.38118469  1
  In  In35  1  0.83645854  0.66501187  0.87173282  1
  In  In36  1  -0.00083032  0.16638244  0.37450655  1
  In  In37  1  -0.00125523  0.16329138  0.86899190  1
  In  In38  1  -0.00670831  0.49192404  0.36713968  1
  In  In39  1  -0.02441531  0.52009321  0.90227478  1
  In  In40  1  -0.00131799  0.83432770  0.37345431  1
  In  In41  1  -0.00400144  0.82887420  0.86932248  1
  In  In42  1  0.34898486  0.14541420  0.38847688  1
  In  In43  1  0.33725306  0.17776456  0.87976696  1
  In  In44  1  0.32621379  0.50151410  0.36549784  1
  In  In45  1  0.33753962  0.49792260  0.88821313  1
  In  In46  1  0.32535092  0.83188227  0.36867560  1
  In  In47  1  0.34046566  0.84632256  0.87809723  1
  In  In48  1  0.67476399  0.16341550  0.37796220  1
  In  In49  1  0.65349120  0.16625884  0.87260688  1
  In  In50  1  0.67424445  0.50913670  0.37301265  1
  In  In51  1  0.67083035  0.49993212  0.87370119  1
  In  In52  1  0.66169790  0.84336644  0.37492125  1
  In  In53  1  0.68397535  0.82241130  0.88746219  1
  In  In54  1  0.16189287  0.00222123  0.13645525  1
  In  In55  1  0.15611543  -0.01930347  0.59880123  1
  In  In56  1  0.15121387  0.33782739  0.12556401  1
  In  In57  1  0.17339946  0.32546477  0.62306910  1
  In  In58  1  0.17008316  0.65966483  0.13006678  1
  In  In59  1  0.15079501  0.66423072  0.62321794  1
  In  In60  1  0.50312207  -0.00023827  0.13005528  1
  In  In61  1  0.49226124  0.00622337  0.62220611  1
  In  In62  1  0.50704510  0.33537404  0.11650886  1
  In  In63  1  0.51172051  0.33013583  0.62716680  1
  In  In64  1  0.49012595  0.65866398  0.12123644  1
  In  In65  1  0.51351254  0.67393569  0.62793581  1
  In  In66  1  0.84435907  -0.01185454  0.13214452  1
  In  In67  1  0.84494304  0.00808662  0.61695086  1
  In  In68  1  0.83364020  0.34240866  0.11641396  1
  In  In69  1  0.82666352  0.32669330  0.62310355  1
  In  In70  1  0.83767403  0.66937265  0.12226429  1
  In  In71  1  0.83616129  0.66706859  0.62079760  1
  In  In72  1  0.50408718  0.49517373  0.49665161  1
  In  In73  1  0.16546640  0.82977875  0.00028285  1
  In  In74  1  0.66925910  -0.00445754  0.75253210  1
  In  In75  1  0.15607323  0.49761026  0.50188644  1
  In  In76  1  0.33994050  0.66915589  0.74762437  1
  In  In77  1  0.66440214  0.66685003  0.24093503  1
  In  In78  1  0.17081976  0.16262672  0.01043749  1
  In  In79  1  0.33007248  0.00057511  0.74596601  1
  In  In80  1  -0.00723739  0.34244630  0.75799620  1
  In  In81  1  0.50281523  0.83929215  0.49825921  1
  In  In82  1  0.83394128  0.16814493  0.00042937  1
  In  In83  1  0.32958692  0.33359378  0.24587898  1
  In  In84  1  0.66954232  0.33263163  0.23945795  1
  In  In85  1  0.33706101  0.32918633  0.74850564  1
  Cu  Cu86  1  0.15687775  0.50568121  0.76172372  1
  Cu  Cu87  1  0.82931325  0.83094256  0.25375370  1
  Cu  Cu88  1  0.00138320  0.67322643  0.49764683  1
  Cu  Cu89  1  0.16820026  0.16938554  0.25759658  1
  Cu  Cu90  1  0.84225596  0.83096889  0.74778938  1
  Cu  Cu91  1  0.32995238  0.66965288  0.00504024  1
  Cu  Cu92  1  0.66579835  0.33220502  0.50303979  1
  Cu  Cu93  1  0.33562998  0.33336428  0.00511816  1
  Cu  Cu94  1  0.32882886  0.32364350  0.49474461  1
  Cu  Cu95  1  0.15997318  0.50917177  0.24791356  1
  Cu  Cu96  1  -0.00984796  0.33369679  0.49814873  1
  Cu  Cu97  1  -0.00200315  0.00038109  0.49123988  1
  Cu  Cu98  1  0.83811207  0.49576578  0.24558934  1
  Cu  Cu99  1  0.15659157  0.83225158  0.24905487  1
  Cu  Cu100  1  0.15301856  0.15644864  0.74398500  1
  Cu  Cu101  1  0.33949517  -0.00075187  0.00977548  1
  Cu  Cu102  1  0.49755023  0.17123872  0.75051836  1
  Cu  Cu103  1  0.83502418  0.16474791  0.25468024  1
  Cu  Cu104  1  0.50897551  0.82856344  0.76019211  1
  Cu  Cu105  1  0.15564091  0.83310058  0.74077857  1
  Cu  Cu106  1  0.83229956  0.17299547  0.74552832  1
  Cu  Cu107  1  0.49296395  0.83767503  0.24837872  1
  Cu  Cu108  1  0.33262041  0.67108359  0.49117350  1
  Cu  Cu109  1  -0.00264241  0.66675657  0.00079237  1
  Cu  Cu110  1  0.66689335  -0.00200954  0.49633727  1
  Cu  Cu111  1  0.66582697  0.00409987  0.00393458  1
  Cu  Cu112  1  0.50943565  0.49775501  0.75990363  1
  Cu  Cu113  1  0.67108301  0.67196682  0.00195964  1
  Cu  Cu114  1  0.67764778  0.65964790  0.50345445  1
  Se  Se115  1  0.07426750  0.06907244  0.05841965  1
  Se  Se116  1  0.07981736  0.08608428  0.54646037  1
  Se  Se117  1  0.08192196  0.41652403  0.04997244  1
  Se  Se118  1  0.06935959  0.40831953  0.56569555  1
  Se  Se119  1  0.07512708  0.74682926  0.06418743  1
  Se  Se120  1  0.08847047  0.75351071  0.54972968  1
  Se  Se121  1  0.42257039  0.08633754  0.05846136  1
  Se  Se122  1  0.42341907  0.07399178  0.54126030  1
  Se  Se123  1  0.41829383  0.42093448  0.05505043  1
  Se  Se124  1  0.40664171  0.40687277  0.55657389  1
  Se  Se125  1  0.41505170  0.75372751  0.05492215  1
  Se  Se126  1  0.41382484  0.74310665  0.55872607  1
  Se  Se127  1  0.74871422  0.07971410  0.06575043  1
  Se  Se128  1  0.74956319  0.08119282  0.55190644  1
  Se  Se129  1  0.75637935  0.41387179  0.03978695  1
  Se  Se130  1  0.74506818  0.41689911  0.55799247  1
  Se  Se131  1  0.75651243  0.75402794  0.05421041  1
  Se  Se132  1  0.75634367  0.75370445  0.54976307  1
  Se  Se133  1  0.26064638  0.25474411  0.06964789  1
  Se  Se134  1  0.24108084  0.24420342  0.54682270  1
  Se  Se135  1  0.24717764  0.58306934  0.05454955  1
  Se  Se136  1  0.25686338  0.58957384  0.55545123  1
  Se  Se137  1  0.25062684  0.92168104  0.06354412  1
  Se  Se138  1  0.27057086  0.93167890  0.54046828  1
  Se  Se139  1  0.60522745  0.26595728  0.05351432  1
  Se  Se140  1  0.58117633  0.24673351  0.55277893  1
  Se  Se141  1  0.58550288  0.58915700  0.05352832  1
  Se  Se142  1  0.59095091  0.58133261  0.56073993  1
  Se  Se143  1  0.58331036  0.91910560  0.05697385  1
  Se  Se144  1  0.59495850  0.91963316  0.56597721  1
  Se  Se145  1  0.93079796  0.24892818  0.06170835  1
  Se  Se146  1  0.91155888  0.24754157  0.55425676  1
  Se  Se147  1  0.91303700  0.58145253  0.05255916  1
  Se  Se148  1  0.92232315  0.58558394  0.55114880  1
  Se  Se149  1  0.91006154  0.91202265  0.05143709  1
  Se  Se150  1  0.91758149  0.91719000  0.54878311  1
  Se  Se151  1  0.07755363  0.25515767  0.44507755  1
  Se  Se152  1  0.08389248  0.24477647  0.94220044  1
  Se  Se153  1  0.07879984  0.58887341  0.43557234  1
  Se  Se154  1  0.09008934  0.58486637  0.95431320  1
  Se  Se155  1  0.08365697  0.91568381  0.44200515  1
  Se  Se156  1  0.07847817  0.92050704  0.94047336  1
  Se  Se157  1  0.42339942  0.24736298  0.44822834  1
  Se  Se158  1  0.41886804  0.24772833  0.95351638  1
  Se  Se159  1  0.41356086  0.58853653  0.43670442  1
  Se  Se160  1  0.41680378  0.58550902  0.95435144  1
  Se  Se161  1  0.42586179  0.91779069  0.42519439  1
  Se  Se162  1  0.42000325  0.91290547  0.95636589  1
  Se  Se163  1  0.75006911  0.24989356  0.44831637  1
  Se  Se164  1  0.74695723  0.25255423  0.93452856  1
  Se  Se165  1  0.75678204  0.57403041  0.44966888  1
  Se  Se166  1  0.74874763  0.58967472  0.94268388  1
  Se  Se167  1  0.74981435  0.91315093  0.44576566  1
  Se  Se168  1  0.75156742  0.92305944  0.95092251  1
  Se  Se169  1  0.23224036  0.09756520  0.44257768  1
  Se  Se170  1  0.26064959  0.07380784  0.94345077  1
  Se  Se171  1  0.25224547  0.41314777  0.44015452  1
  Se  Se172  1  0.25008217  0.41391025  0.95213097  1
  Se  Se173  1  0.24697143  0.75680570  0.44593979  1
  Se  Se174  1  0.25587099  0.74313806  0.93512116  1
  Se  Se175  1  0.58445173  0.07888422  0.44123387  1
  Se  Se176  1  0.58414455  0.09079638  0.95254948  1
  Se  Se177  1  0.59171391  0.40548129  0.43384433  1
  Se  Se178  1  0.56913110  0.44291068  0.94319088  1
  Se  Se179  1  0.59267447  0.73777601  0.44417115  1
  Se  Se180  1  0.58309193  0.75757611  0.95279776  1
  Se  Se181  1  0.91264945  0.08659162  0.44333931  1
  Se  Se182  1  0.92650221  0.07546399  0.94355615  1
  Se  Se183  1  0.91372284  0.42272733  0.44531921  1
  Se  Se184  1  0.93716647  0.39650981  0.95284626  1
  Se  Se185  1  0.91509486  0.75320570  0.44507428  1
  Se  Se186  1  0.91902968  0.74916369  0.94269021  1
  Se  Se187  1  0.25226934  0.24737078  0.31619082  1
  Se  Se188  1  0.23840940  0.23495228  0.80341460  1
  Se  Se189  1  0.24639093  0.58887204  0.30134715  1
  Se  Se190  1  0.25212099  0.58086760  0.81298942  1
  Se  Se191  1  0.24224790  0.91547401  0.30140959  1
  Se  Se192  1  0.23811639  0.90703258  0.80488794  1
  Se  Se193  1  0.58502283  0.24527255  0.30591728  1
  Se  Se194  1  0.57635387  0.25560073  0.80528774  1
  Se  Se195  1  0.57634291  0.57560843  0.30398087  1
  Se  Se196  1  0.58871341  0.59037210  0.80563480  1
  Se  Se197  1  0.58585055  0.91436227  0.29764440  1
  Se  Se198  1  0.58191272  0.91377959  0.82041958  1
  Se  Se199  1  0.91858012  0.25231764  0.30354680  1
  Se  Se200  1  0.90105792  0.25136145  0.81480973  1
  Se  Se201  1  0.91311779  0.58270589  0.30202674  1
  Se  Se202  1  0.92035937  0.57338917  0.81068801  1
  Se  Se203  1  0.91313648  0.91584181  0.30524618  1
  Se  Se204  1  0.92054368  0.91957368  0.80017209  1
  Se  Se205  1  0.08041426  0.08411376  0.30431013  1
  Se  Se206  1  0.07263420  0.07418003  0.79874839  1
  Se  Se207  1  0.08112930  0.41754188  0.29682331  1
  Se  Se208  1  0.08399842  0.42345300  0.82238868  1
  Se  Se209  1  0.07430248  0.74695699  0.30144082  1
  Se  Se210  1  0.07838413  0.74841857  0.79741804  1
  Se  Se211  1  0.41001026  0.08910880  0.29855622  1
  Se  Se212  1  0.42027207  0.08793697  0.81048964  1
  Se  Se213  1  0.42501400  0.42715470  0.30208799  1
  Se  Se214  1  0.42021211  0.41793304  0.81353251  1
  Se  Se215  1  0.41106666  0.75073365  0.29907851  1
  Se  Se216  1  0.42373081  0.75072122  0.81716313  1
  Se  Se217  1  0.74952064  0.08164057  0.30449840  1
  Se  Se218  1  0.75821676  0.08902049  0.81085263  1
  Se  Se219  1  0.75735397  0.41739573  0.30690436  1
  Se  Se220  1  0.74878426  0.41730613  0.80208857  1
  Se  Se221  1  0.74914140  0.74801050  0.31221081  1
  Se  Se222  1  0.75579386  0.75601113  0.80513302  1
  Se  Se223  1  0.24817773  0.08406116  0.20230579  1
  Se  Se224  1  0.23982415  0.08458232  0.68374510  1
  Se  Se225  1  0.24257091  0.42891241  0.18765687  1
  Se  Se226  1  0.23482280  0.42506110  0.69936506  1
  Se  Se227  1  0.24452221  0.75056262  0.19765655  1
  Se  Se228  1  0.24847951  0.75894804  0.68552924  1
  Se  Se229  1  0.58715255  0.07736307  0.20130017  1
  Se  Se230  1  0.57816551  0.08724616  0.69345204  1
  Se  Se231  1  0.57936706  0.43064863  0.18812923  1
  Se  Se232  1  0.58334662  0.41126214  0.70137727  1
  Se  Se233  1  0.57464484  0.76016302  0.18499986  1
  Se  Se234  1  0.59001875  0.74572816  0.70571890  1
  Se  Se235  1  0.91813817  0.07963058  0.20067551  1
  Se  Se236  1  0.91411969  0.08526820  0.69652315  1
  Se  Se237  1  0.91827690  0.41122727  0.19144219  1
  Se  Se238  1  0.90644688  0.42494010  0.69057640  1
  Se  Se239  1  0.91089991  0.74609283  0.19998258  1
  Se  Se240  1  0.92204735  0.74841120  0.69062329  1
  Se  Se241  1  0.08660690  0.24975262  0.20023363  1
  Se  Se242  1  0.07989958  0.25029791  0.69130670  1
  Se  Se243  1  0.07276640  0.58551618  0.19300694  1
  Se  Se244  1  0.08212297  0.59009478  0.70346770  1
  Se  Se245  1  0.07324712  0.91719091  0.19784449  1
  Se  Se246  1  0.08391192  0.92194015  0.68454357  1
  Se  Se247  1  0.43143495  0.24912643  0.19308072  1
  Se  Se248  1  0.41343401  0.23574162  0.68223550  1
  Se  Se249  1  0.41124602  0.59299554  0.20026573  1
  Se  Se250  1  0.43064019  0.56998340  0.69144546  1
  Se  Se251  1  0.40962853  0.92235763  0.19661830  1
  Se  Se252  1  0.43009444  0.90524326  0.69637807  1
  Se  Se253  1  0.76163826  0.23941887  0.18468126  1
  Se  Se254  1  0.74240385  0.25194942  0.69698451  1
  Se  Se255  1  0.75228306  0.56973773  0.18555363  1
  Se  Se256  1  0.73660516  0.60796951  0.69071452  1
  Se  Se257  1  0.74926859  0.91648246  0.20012399  1
  Se  Se258  1  0.75993277  0.91247245  0.68834110  1
