# generated using pymatgen
data_In86Cu29Se144
_symmetry_space_group_name_H-M   'P 1'
_cell_length_a   17.58642002
_cell_length_b   17.58723797
_cell_length_c   23.44947462
_cell_angle_alpha   89.97895648
_cell_angle_beta   89.98232276
_cell_angle_gamma   90.01941521
_symmetry_Int_Tables_number   1
_chemical_formula_structural   In86Cu29Se144
_chemical_formula_sum   'In86 Cu29 Se144'
_cell_volume   7252.84044105
_cell_formula_units_Z   1
loop_
 _symmetry_equiv_pos_site_id
 _symmetry_equiv_pos_as_xyz
  1  'x, y, z'
loop_
 _atom_site_type_symbol
 _atom_site_label
 _atom_site_symmetry_multiplicity
 _atom_site_fract_x
 _atom_site_fract_y
 _atom_site_fract_z
 _atom_site_occupancy
  In  In0  1  -0.01103362  0.17165727  0.13887973  1
  In  In1  1  0.00949481  0.15280919  0.63323194  1
  In  In2  1  0.00691604  0.49424783  0.13047874  1
  In  In3  1  -0.00943705  0.50604628  0.62247293  1
  In  In4  1  -0.01097505  0.84892882  0.13467211  1
  In  In5  1  0.01469420  0.83390444  0.62334116  1
  In  In6  1  0.32752434  0.15682561  0.11976924  1
  In  In7  1  0.32644033  0.17381593  0.63301518  1
  In  In8  1  0.33112201  0.52020890  0.11641591  1
  In  In9  1  0.32708225  0.49167296  0.63077092  1
  In  In10  1  0.34637192  0.82250795  0.12446246  1
  In  In11  1  0.32562322  0.84573149  0.62929843  1
  In  In12  1  0.66677825  0.16638724  0.12325283  1
  In  In13  1  0.66499079  0.16968612  0.63825456  1
  In  In14  1  0.67384986  0.49203648  0.13227239  1
  In  In15  1  0.67201217  0.48709232  0.62313476  1
  In  In16  1  0.66398235  0.83654760  0.12164260  1
  In  In17  1  0.67088136  0.84626076  0.62458478  1
  In  In18  1  0.16388009  -0.00135598  0.37684532  1
  In  In19  1  0.17220800  -0.00723828  0.86068924  1
  In  In20  1  0.15394508  0.33839259  0.37731526  1
  In  In21  1  0.17338815  0.33621902  0.87021614  1
  In  In22  1  0.17516482  0.67423716  0.36583279  1
  In  In23  1  0.15717786  0.66321202  0.87975078  1
  In  In24  1  0.50134196  0.00424794  0.36669987  1
  In  In25  1  0.49964555  0.00289882  0.87391603  1
  In  In26  1  0.50457599  0.32091026  0.37491998  1
  In  In27  1  0.48032871  0.30544842  0.85274569  1
  In  In28  1  0.50250617  0.67169004  0.36264206  1
  In  In29  1  0.50818135  0.66352668  0.88235698  1
  In  In30  1  0.83456939  0.00748300  0.35933733  1
  In  In31  1  0.83304609  0.00276652  0.88171877  1
  In  In32  1  0.84438678  0.33725874  0.36519471  1
  In  In33  1  0.82028435  0.31730492  0.86740634  1
  In  In34  1  0.83043661  0.66030661  0.36512575  1
  In  In35  1  0.84472088  0.67546973  0.88342319  1
  In  In36  1  0.00487828  0.17620716  0.36821884  1
  In  In37  1  -0.01017053  0.15543675  0.87224430  1
  In  In38  1  -0.00655734  0.49207087  0.36815406  1
  In  In39  1  0.01258726  0.49731581  0.87941622  1
  In  In40  1  0.00959706  0.84096524  0.36914338  1
  In  In41  1  -0.00295421  0.83302924  0.87904695  1
  In  In42  1  0.33153207  0.15107860  0.37406759  1
  In  In43  1  0.34229197  0.16415210  0.87024927  1
  In  In44  1  0.32225468  0.50869504  0.37259830  1
  In  In45  1  0.34150975  0.46240644  0.88736028  1
  In  In46  1  0.32430797  0.82704828  0.36759364  1
  In  In47  1  0.32906129  0.84794948  0.87372973  1
  In  In48  1  0.67766038  0.17268177  0.35373244  1
  In  In49  1  0.66468836  0.16616968  0.87824372  1
  In  In50  1  0.67554658  0.50876394  0.36611871  1
  In  In51  1  0.66633825  0.48970557  0.87299023  1
  In  In52  1  0.67441191  0.83815882  0.36464425  1
  In  In53  1  0.65420842  0.84540055  0.89037531  1
  In  In54  1  0.16828503  0.00266784  0.13308693  1
  In  In55  1  0.16018246  -0.00063122  0.62519552  1
  In  In56  1  0.15384421  0.32701489  0.12126411  1
  In  In57  1  0.17208068  0.31998590  0.63444742  1
  In  In58  1  0.17442445  0.66074304  0.13068287  1
  In  In59  1  0.15707333  0.67444727  0.61750435  1
  In  In60  1  0.49916827  0.00114660  0.11996014  1
  In  In61  1  0.48639989  0.02251047  0.65087094  1
  In  In62  1  0.51284958  0.33433417  0.12049070  1
  In  In63  1  0.50685946  0.32628445  0.65097762  1
  In  In64  1  0.48739886  0.67983915  0.12775696  1
  In  In65  1  0.48935066  0.67010629  0.62448527  1
  In  In66  1  0.83379048  0.00326800  0.12536601  1
  In  In67  1  0.82851479  0.00556411  0.63401794  1
  In  In68  1  0.83585099  0.32226682  0.13046194  1
  In  In69  1  0.83298403  0.33913442  0.62729613  1
  In  In70  1  0.82171772  0.68086112  0.13407235  1
  In  In71  1  0.85424956  0.66398973  0.61493481  1
  In  In72  1  0.16940445  0.83149369  0.00026627  1
  In  In73  1  0.00288498  0.67039621  0.74690269  1
  In  In74  1  0.50007593  0.49900715  0.50725467  1
  In  In75  1  0.33512228  0.34231651  0.24739201  1
  In  In76  1  0.50221740  0.16558282  0.51267333  1
  In  In77  1  0.83707481  0.16991224  0.49349030  1
  In  In78  1  0.67173185  0.66605949  0.75633390  1
  In  In79  1  0.33177690  0.65707392  0.75173421  1
  In  In80  1  0.16841128  0.17231274  -0.00410771  1
  In  In81  1  0.50188852  0.49845829  0.00205541  1
  In  In82  1  0.83518685  0.50314126  0.00264781  1
  In  In83  1  0.16172555  0.50263180  0.50093256  1
  In  In84  1  0.50725785  0.84197788  0.49113638  1
  In  In85  1  0.83711164  0.83514174  0.48819210  1
  Cu  Cu86  1  0.83639294  0.49986773  0.74736791  1
  Cu  Cu87  1  0.34239402  -0.00089777  -0.00194484  1
  Cu  Cu88  1  0.83670693  0.49704318  0.24619114  1
  Cu  Cu89  1  0.16883595  0.83839172  0.24858791  1
  Cu  Cu90  1  0.16332577  0.16333231  0.75249976  1
  Cu  Cu91  1  -0.00657063  0.33232378  0.00344538  1
  Cu  Cu92  1  -0.00147480  0.67469348  0.00782349  1
  Cu  Cu93  1  0.00093332  0.33018824  0.49795880  1
  Cu  Cu94  1  0.83419905  0.16847299  0.75496502  1
  Cu  Cu95  1  0.67844919  0.66125219  0.49439610  1
  Cu  Cu96  1  0.16859040  0.16755313  0.25062654  1
  Cu  Cu97  1  0.16382345  0.50315437  0.24962017  1
  Cu  Cu98  1  0.50089138  0.83919487  0.24378922  1
  Cu  Cu99  1  0.33107615  0.32754230  0.50956433  1
  Cu  Cu100  1  0.66750831  0.00185109  0.00241783  1
  Cu  Cu101  1  0.67435976  0.34160298  0.50098422  1
  Cu  Cu102  1  0.17088748  0.49045191  0.75417528  1
  Cu  Cu103  1  0.66563294  0.66965140  0.00717223  1
  Cu  Cu104  1  -0.00135412  0.00667001  0.00531765  1
  Cu  Cu105  1  0.50144712  0.16489692  0.24498178  1
  Cu  Cu106  1  0.33121152  0.67426057  0.49270215  1
  Cu  Cu107  1  0.66483757  0.31988868  -0.00433779  1
  Cu  Cu108  1  0.50568732  0.83297497  0.75735065  1
  Cu  Cu109  1  0.83077560  0.82977635  0.24672500  1
  Cu  Cu110  1  0.65859618  0.00930497  0.49973998  1
  Cu  Cu111  1  0.83141982  0.84430382  0.75624144  1
  Cu  Cu112  1  0.31815278  -0.00398283  0.50074163  1
  Cu  Cu113  1  0.00360762  -0.00455615  0.50122577  1
  Cu  Cu114  1  0.49995358  0.50257979  0.24267638  1
  Se  Se115  1  0.08240764  0.08603031  0.06229906  1
  Se  Se116  1  0.08299449  0.08440282  0.55249106  1
  Se  Se117  1  0.07903893  0.41655832  0.05240778  1
  Se  Se118  1  0.08082600  0.40668806  0.56232894  1
  Se  Se119  1  0.07805693  0.75475064  0.06805952  1
  Se  Se120  1  0.05926433  0.73378407  0.55062578  1
  Se  Se121  1  0.41901932  0.08846640  0.05019264  1
  Se  Se122  1  0.40497937  0.07120850  0.56129852  1
  Se  Se123  1  0.40816500  0.41127341  0.06174658  1
  Se  Se124  1  0.41741917  0.40115915  0.56724006  1
  Se  Se125  1  0.41471089  0.74524303  0.04649217  1
  Se  Se126  1  0.41125729  0.75519114  0.55291963  1
  Se  Se127  1  0.75166413  0.08471640  0.05475704  1
  Se  Se128  1  0.74352781  0.08635265  0.55834377  1
  Se  Se129  1  0.74370451  0.40578356  0.05432236  1
  Se  Se130  1  0.76198723  0.42217528  0.55061876  1
  Se  Se131  1  0.75288464  0.75444368  0.05371827  1
  Se  Se132  1  0.74785043  0.74860620  0.55697736  1
  Se  Se133  1  0.25895711  0.26175658  0.05560203  1
  Se  Se134  1  0.24448300  0.24335516  0.55625301  1
  Se  Se135  1  0.23909349  0.58774059  0.04861825  1
  Se  Se136  1  0.26151294  0.59107510  0.55824436  1
  Se  Se137  1  0.25670878  0.92491459  0.05972162  1
  Se  Se138  1  0.23951078  0.91045019  0.55475228  1
  Se  Se139  1  0.57866444  0.24195845  0.05056538  1
  Se  Se140  1  0.59412221  0.26395959  0.56327398  1
  Se  Se141  1  0.59034615  0.58496691  0.06599331  1
  Se  Se142  1  0.59340091  0.59560841  0.56087921  1
  Se  Se143  1  0.58064506  0.91638051  0.05111215  1
  Se  Se144  1  0.57925858  0.93340420  0.56221475  1
  Se  Se145  1  0.91781858  0.24520886  0.05796287  1
  Se  Se146  1  0.92434666  0.25005899  0.56167432  1
  Se  Se147  1  0.91855336  0.59207794  0.06706207  1
  Se  Se148  1  0.92563356  0.58145479  0.54287258  1
  Se  Se149  1  0.91596976  0.91854730  0.05425654  1
  Se  Se150  1  0.91388441  0.92379621  0.55961834  1
  Se  Se151  1  0.08466587  0.24652349  0.44660617  1
  Se  Se152  1  0.07160230  0.25582852  0.93756507  1
  Se  Se153  1  0.08356234  0.58479588  0.43043087  1
  Se  Se154  1  0.07579605  0.58803462  0.95307520  1
  Se  Se155  1  0.08615608  0.91178849  0.44799455  1
  Se  Se156  1  0.08160389  0.92977502  0.94380345  1
  Se  Se157  1  0.41019196  0.25041260  0.44628004  1
  Se  Se158  1  0.41533809  0.24983223  0.94110591  1
  Se  Se159  1  0.41623702  0.59129103  0.44034227  1
  Se  Se160  1  0.40733638  0.58154912  0.93992471  1
  Se  Se161  1  0.40706342  0.92782614  0.43830221  1
  Se  Se162  1  0.42129595  0.91358882  0.94410181  1
  Se  Se163  1  0.74143925  0.25682160  0.43669209  1
  Se  Se164  1  0.75751545  0.24079522  0.94885426  1
  Se  Se165  1  0.75868179  0.57740657  0.44207246  1
  Se  Se166  1  0.74097107  0.59103606  0.94139293  1
  Se  Se167  1  0.74151437  0.93264803  0.43971477  1
  Se  Se168  1  0.75351282  0.91673165  0.95198358  1
  Se  Se169  1  0.24318491  0.08633553  0.44730328  1
  Se  Se170  1  0.25146864  0.07148788  0.93964053  1
  Se  Se171  1  0.25909022  0.41009953  0.44543161  1
  Se  Se172  1  0.22935633  0.42183282  0.94961860  1
  Se  Se173  1  0.24386761  0.75540017  0.44419730  1
  Se  Se174  1  0.25828892  0.74384464  0.93880145  1
  Se  Se175  1  0.58706533  0.09185556  0.43624283  1
  Se  Se176  1  0.58263776  0.08151037  0.94615496  1
  Se  Se177  1  0.58728239  0.41437629  0.44067144  1
  Se  Se178  1  0.58428822  0.40462928  0.94052622  1
  Se  Se179  1  0.59665209  0.74270175  0.43784623  1
  Se  Se180  1  0.57910056  0.74944609  0.95393700  1
  Se  Se181  1  0.92380649  0.07258561  0.43817255  1
  Se  Se182  1  0.91368217  0.08810617  0.95226320  1
  Se  Se183  1  0.91852958  0.41145757  0.44332424  1
  Se  Se184  1  0.91540682  0.41014164  0.93875353  1
  Se  Se185  1  0.92374575  0.74323286  0.43146802  1
  Se  Se186  1  0.91718698  0.75954326  0.95534275  1
  Se  Se187  1  0.24839082  0.25143000  0.31108415  1
  Se  Se188  1  0.24957326  0.24393226  0.80574385  1
  Se  Se189  1  0.25372719  0.58699392  0.29605278  1
  Se  Se190  1  0.24475288  0.57197256  0.81685978  1
  Se  Se191  1  0.25002696  0.92248260  0.30454473  1
  Se  Se192  1  0.25128837  0.90789590  0.79373840  1
  Se  Se193  1  0.58090674  0.25456858  0.29597905  1
  Se  Se194  1  0.60606119  0.26487222  0.80780484  1
  Se  Se195  1  0.58441867  0.58390144  0.29893066  1
  Se  Se196  1  0.57491358  0.57388385  0.80667358  1
  Se  Se197  1  0.58348615  0.91784422  0.30150712  1
  Se  Se198  1  0.58880681  0.91722349  0.80794760  1
  Se  Se199  1  0.89526457  0.22583627  0.30558659  1
  Se  Se200  1  0.92230062  0.25182612  0.80382720  1
  Se  Se201  1  0.91993337  0.58151950  0.29857014  1
  Se  Se202  1  0.91287483  0.58073914  0.81028674  1
  Se  Se203  1  0.91469120  0.91117683  0.30157706  1
  Se  Se204  1  0.91819264  0.91971845  0.81187405  1
  Se  Se205  1  0.08630396  0.08463540  0.30602281  1
  Se  Se206  1  0.07966122  0.07937537  0.80412226  1
  Se  Se207  1  0.08297820  0.41376397  0.29977028  1
  Se  Se208  1  0.07903648  0.41295351  0.80402522  1
  Se  Se209  1  0.08563400  0.75243197  0.29958723  1
  Se  Se210  1  0.09183257  0.75950872  0.80743670  1
  Se  Se211  1  0.41564863  0.08457799  0.29876904  1
  Se  Se212  1  0.40586765  0.06689059  0.80313692  1
  Se  Se213  1  0.42640669  0.42746506  0.31360696  1
  Se  Se214  1  0.41558670  0.41779756  0.80031253  1
  Se  Se215  1  0.41707593  0.75561403  0.29928670  1
  Se  Se216  1  0.42376131  0.74852834  0.81131280  1
  Se  Se217  1  0.73359608  0.06561215  0.29387043  1
  Se  Se218  1  0.75329724  0.08467031  0.81045320  1
  Se  Se219  1  0.75149454  0.41578345  0.30128488  1
  Se  Se220  1  0.75392844  0.41873883  0.80246752  1
  Se  Se221  1  0.74622228  0.74488958  0.29867988  1
  Se  Se222  1  0.75546890  0.76028014  0.81692069  1
  Se  Se223  1  0.25437541  0.08586767  0.19934497  1
  Se  Se224  1  0.24464867  0.08178107  0.69422912  1
  Se  Se225  1  0.24197420  0.42453103  0.18546665  1
  Se  Se226  1  0.25447506  0.40650027  0.70149134  1
  Se  Se227  1  0.25145583  0.75505844  0.19386977  1
  Se  Se228  1  0.24233621  0.74833673  0.69181164  1
  Se  Se229  1  0.58243344  0.08062239  0.19092339  1
  Se  Se230  1  0.59843102  0.07644160  0.70580037  1
  Se  Se231  1  0.58301497  0.41315684  0.19765386  1
  Se  Se232  1  0.59147276  0.42492152  0.69998898  1
  Se  Se233  1  0.58306782  0.75172801  0.19254344  1
  Se  Se234  1  0.58034494  0.75467479  0.69078617  1
  Se  Se235  1  0.92799944  0.06548423  0.19759578  1
  Se  Se236  1  0.91560835  0.08261488  0.70115152  1
  Se  Se237  1  0.91907071  0.41097113  0.19469926  1
  Se  Se238  1  0.92221714  0.41882373  0.69497196  1
  Se  Se239  1  0.92156142  0.74765884  0.19900489  1
  Se  Se240  1  0.90593306  0.76196052  0.69242433  1
  Se  Se241  1  0.08386444  0.25278608  0.20053461  1
  Se  Se242  1  0.07844449  0.24827769  0.70104388  1
  Se  Se243  1  0.08032382  0.58742160  0.19738481  1
  Se  Se244  1  0.09580381  0.57375751  0.69143729  1
  Se  Se245  1  0.08241166  0.92358135  0.20069414  1
  Se  Se246  1  0.07248834  0.92416947  0.69563858  1
  Se  Se247  1  0.41848908  0.24691574  0.18720977  1
  Se  Se248  1  0.43074932  0.22358142  0.70177365  1
  Se  Se249  1  0.41273456  0.58538191  0.19450666  1
  Se  Se250  1  0.42836730  0.56959133  0.69274072  1
  Se  Se251  1  0.41493274  0.91971358  0.19056738  1
  Se  Se252  1  0.41925878  0.90867751  0.69992449  1
  Se  Se253  1  0.73480847  0.25923528  0.19319217  1
  Se  Se254  1  0.75644344  0.25394283  0.69757051  1
  Se  Se255  1  0.75007004  0.58278739  0.19813494  1
  Se  Se256  1  0.76266896  0.58608796  0.68746596  1
  Se  Se257  1  0.75012101  0.91425542  0.19136503  1
  Se  Se258  1  0.74457308  0.92134128  0.70115392  1
