# generated using pymatgen
data_In86Cu29Se144
_symmetry_space_group_name_H-M   'P 1'
_cell_length_a   17.58055166
_cell_length_b   17.57670147
_cell_length_c   23.43806158
_cell_angle_alpha   89.99647292
_cell_angle_beta   90.01582811
_cell_angle_gamma   89.99468946
_symmetry_Int_Tables_number   1
_chemical_formula_structural   In86Cu29Se144
_chemical_formula_sum   'In86 Cu29 Se144'
_cell_volume   7242.55075071
_cell_formula_units_Z   1
loop_
 _symmetry_equiv_pos_site_id
 _symmetry_equiv_pos_as_xyz
  1  'x, y, z'
loop_
 _atom_site_type_symbol
 _atom_site_label
 _atom_site_symmetry_multiplicity
 _atom_site_fract_x
 _atom_site_fract_y
 _atom_site_fract_z
 _atom_site_occupancy
  In  In0  1  0.01454531  0.18160114  0.10153494  1
  In  In1  1  0.00564622  0.16236710  0.63340260  1
  In  In2  1  -0.01173588  0.49801545  0.13123059  1
  In  In3  1  -0.00370366  0.49066165  0.62010400  1
  In  In4  1  -0.00680564  0.83530282  0.12897532  1
  In  In5  1  0.02426116  0.83317752  0.63068487  1
  In  In6  1  0.32849235  0.18158079  0.11974525  1
  In  In7  1  0.32986721  0.16470466  0.63528015  1
  In  In8  1  0.33461909  0.49214186  0.12629978  1
  In  In9  1  0.33546221  0.49907534  0.62323311  1
  In  In10  1  0.33822330  0.82029493  0.12004961  1
  In  In11  1  0.33144153  0.82722433  0.62636701  1
  In  In12  1  0.67447072  0.15855783  0.12577616  1
  In  In13  1  0.65673488  0.16335797  0.63064580  1
  In  In14  1  0.66473194  0.49114066  0.12745465  1
  In  In15  1  0.67399047  0.50670621  0.61802928  1
  In  In16  1  0.66694379  0.84627297  0.12536905  1
  In  In17  1  0.65530244  0.83872686  0.63026456  1
  In  In18  1  0.16914811  -0.00688492  0.38403309  1
  In  In19  1  0.17305146  0.00598911  0.86862761  1
  In  In20  1  0.18134389  0.34049310  0.36669486  1
  In  In21  1  0.15346681  0.32537698  0.86778275  1
  In  In22  1  0.15445433  0.67446062  0.38024042  1
  In  In23  1  0.17126795  0.66473994  0.86353908  1
  In  In24  1  0.50519603  -0.01229429  0.37721749  1
  In  In25  1  0.48903029  -0.01229165  0.86680647  1
  In  In26  1  0.51276958  0.35315962  0.35588154  1
  In  In27  1  0.50065511  0.34905965  0.87578721  1
  In  In28  1  0.49720132  0.67257291  0.38633423  1
  In  In29  1  0.50587533  0.66261224  0.87306540  1
  In  In30  1  0.83406482  0.01469644  0.37324976  1
  In  In31  1  0.84128861  0.01601927  0.86878322  1
  In  In32  1  0.85692342  0.37484214  0.33658906  1
  In  In33  1  0.85384488  0.31881148  0.90015886  1
  In  In34  1  0.83540329  0.64372619  0.37356672  1
  In  In35  1  0.81998533  0.67231541  0.87649215  1
  In  In36  1  -0.01036104  0.17333557  0.37320200  1
  In  In37  1  -0.00146247  0.17182389  0.88515857  1
  In  In38  1  0.00541115  0.50255511  0.37387306  1
  In  In39  1  0.00292775  0.48671083  0.87939454  1
  In  In40  1  0.01894305  0.82402613  0.37749394  1
  In  In41  1  -0.00368642  0.83861792  0.86900479  1
  In  In42  1  0.32563928  0.17521448  0.37533871  1
  In  In43  1  0.32120868  0.16073684  0.86799106  1
  In  In44  1  0.33803402  0.49521494  0.38172080  1
  In  In45  1  0.34065115  0.50822408  0.86492502  1
  In  In46  1  0.33266079  0.83446309  0.38736052  1
  In  In47  1  0.33844098  0.84357345  0.86216139  1
  In  In48  1  0.67016316  0.17577514  0.36430679  1
  In  In49  1  0.67839217  0.16713481  0.87873035  1
  In  In50  1  0.66708746  0.49988366  0.37856083  1
  In  In51  1  0.66719099  0.50093876  0.88222074  1
  In  In52  1  0.65298068  0.82956526  0.37654652  1
  In  In53  1  0.66000378  0.82218156  0.86627489  1
  In  In54  1  0.15244906  0.01139085  0.12043485  1
  In  In55  1  0.19437885  -0.04153559  0.66610436  1
  In  In56  1  0.16561823  0.33187146  0.12610158  1
  In  In57  1  0.16211736  0.33604273  0.62704915  1
  In  In58  1  0.16633552  0.65793098  0.12871312  1
  In  In59  1  0.18183953  0.67737739  0.61547564  1
  In  In60  1  0.51191892  -0.00181695  0.11994573  1
  In  In61  1  0.49989123  -0.00642375  0.63039400  1
  In  In62  1  0.49343194  0.34961552  0.13575571  1
  In  In63  1  0.49147073  0.33013961  0.62417609  1
  In  In64  1  0.49706874  0.66042453  0.11843969  1
  In  In65  1  0.49718007  0.66429255  0.62417991  1
  In  In66  1  0.82942295  -0.00165381  0.12192717  1
  In  In67  1  0.83298779  0.00057890  0.63639969  1
  In  In68  1  0.83703461  0.33033975  0.12486835  1
  In  In69  1  0.83660863  0.34851636  0.62424687  1
  In  In70  1  0.84593390  0.66557876  0.13140686  1
  In  In71  1  0.83711978  0.64664574  0.62719638  1
  In  In72  1  0.82982549  0.82972200  0.50086583  1
  In  In73  1  0.66801398  0.66450613  0.25570221  1
  In  In74  1  0.66923201  0.33416371  0.75668084  1
  In  In75  1  0.32798114  0.66332575  0.24971843  1
  In  In76  1  0.00116360  0.66391051  0.74597491  1
  In  In77  1  0.50217974  0.17149571  -0.00001975  1
  In  In78  1  -0.00317318  0.00368742  0.24856945  1
  In  In79  1  0.83004704  0.17654469  0.49392901  1
  In  In80  1  0.83190607  0.83580925  0.00276143  1
  In  In81  1  0.16645930  0.16115071  0.50230126  1
  In  In82  1  0.49653803  0.16843858  0.50495450  1
  In  In83  1  0.33460365  0.00111742  0.26023730  1
  In  In84  1  0.16836476  0.49523698  0.00326070  1
  In  In85  1  0.17258619  0.83958388  -0.00887795  1
  Cu  Cu86  1  0.66071254  0.66724752  0.50131516  1
  Cu  Cu87  1  0.49595347  0.16048777  0.75119645  1
  Cu  Cu88  1  0.00398966  0.66395928  0.00642823  1
  Cu  Cu89  1  0.34944084  0.66581111  -0.00758227  1
  Cu  Cu90  1  0.50030581  0.82449764  0.74745018  1
  Cu  Cu91  1  0.15799007  0.17622451  0.75439968  1
  Cu  Cu92  1  0.50053401  0.16648605  0.24009844  1
  Cu  Cu93  1  -0.00035323  0.65762136  0.50289998  1
  Cu  Cu94  1  0.33030473  0.33801314  -0.00060260  1
  Cu  Cu95  1  0.83489711  0.17195694  0.75974971  1
  Cu  Cu96  1  0.50233148  0.83732623  0.25147256  1
  Cu  Cu97  1  0.66764905  0.33929009  0.00629161  1
  Cu  Cu98  1  0.66264242  0.00051513  0.50491750  1
  Cu  Cu99  1  0.16249364  0.16934352  0.24692876  1
  Cu  Cu100  1  0.67008574  0.34246099  0.48922955  1
  Cu  Cu101  1  0.00943765  -0.00795916  0.50929298  1
  Cu  Cu102  1  0.17204141  0.49803059  0.74503021  1
  Cu  Cu103  1  0.33781258  0.34048947  0.49784431  1
  Cu  Cu104  1  0.83133302  0.16848813  0.24423808  1
  Cu  Cu105  1  0.33023246  0.66247569  0.50430709  1
  Cu  Cu106  1  0.82663731  0.83201345  0.74964678  1
  Cu  Cu107  1  0.15819466  0.49814255  0.25005733  1
  Cu  Cu108  1  0.83327079  0.49511871  0.75403895  1
  Cu  Cu109  1  0.33491991  -0.00182496  -0.00884169  1
  Cu  Cu110  1  0.66252208  -0.01050667  -0.00480334  1
  Cu  Cu111  1  0.83364312  0.83635143  0.24882521  1
  Cu  Cu112  1  -0.00136111  0.33818485  0.49389603  1
  Cu  Cu113  1  0.66470358  0.66174489  0.00019092  1
  Cu  Cu114  1  0.50209974  0.50301903  0.74900913  1
  Se  Se115  1  0.08811116  0.08374227  0.04038265  1
  Se  Se116  1  0.08746811  0.07272806  0.56856001  1
  Se  Se117  1  0.07119046  0.41164436  0.05878519  1
  Se  Se118  1  0.08481579  0.41350865  0.55134192  1
  Se  Se119  1  0.08489012  0.75042108  0.05888504  1
  Se  Se120  1  0.08073186  0.74729524  0.55184691  1
  Se  Se121  1  0.40949042  0.07829763  0.05768100  1
  Se  Se122  1  0.40750274  0.07741601  0.56267523  1
  Se  Se123  1  0.41660823  0.41641154  0.05360109  1
  Se  Se124  1  0.42311612  0.41926750  0.55302724  1
  Se  Se125  1  0.42617225  0.75201673  0.04844148  1
  Se  Se126  1  0.41461835  0.74774370  0.55532258  1
  Se  Se127  1  0.74317129  0.07304777  0.05057885  1
  Se  Se128  1  0.74675949  0.08201107  0.55955454  1
  Se  Se129  1  0.75508270  0.41985381  0.05761205  1
  Se  Se130  1  0.75339947  0.41855340  0.54992643  1
  Se  Se131  1  0.74390943  0.74200679  0.06336151  1
  Se  Se132  1  0.74483119  0.74087713  0.56459586  1
  Se  Se133  1  0.24333674  0.25487967  0.04884006  1
  Se  Se134  1  0.26002190  0.25552485  0.55725400  1
  Se  Se135  1  0.26343025  0.59347986  0.05503910  1
  Se  Se136  1  0.24682017  0.57450566  0.55263605  1
  Se  Se137  1  0.25795641  0.92488567  0.06076321  1
  Se  Se138  1  0.24122603  0.91719825  0.56769142  1
  Se  Se139  1  0.58500162  0.25854215  0.06597121  1
  Se  Se140  1  0.59785628  0.26132226  0.55546751  1
  Se  Se141  1  0.58590977  0.57721190  0.05654426  1
  Se  Se142  1  0.57915873  0.58032398  0.55350173  1
  Se  Se143  1  0.57921051  0.90740458  0.04825618  1
  Se  Se144  1  0.57909226  0.91673079  0.55486226  1
  Se  Se145  1  0.89730343  0.23584110  0.05160862  1
  Se  Se146  1  0.92502971  0.25580534  0.55812009  1
  Se  Se147  1  0.91677823  0.58390365  0.05616718  1
  Se  Se148  1  0.91277312  0.57341181  0.55029141  1
  Se  Se149  1  0.93021137  0.92694939  0.05388021  1
  Se  Se150  1  0.91851668  0.91724798  0.56413421  1
  Se  Se151  1  0.08132011  0.25420036  0.43858231  1
  Se  Se152  1  0.07988550  0.26297483  0.94885421  1
  Se  Se153  1  0.08618424  0.57858421  0.44829496  1
  Se  Se154  1  0.08480535  0.59293531  0.94081588  1
  Se  Se155  1  0.08769317  0.90973089  0.45199888  1
  Se  Se156  1  0.07512089  0.92648591  0.93820992  1
  Se  Se157  1  0.41827659  0.25995864  0.43784085  1
  Se  Se158  1  0.40926843  0.25581270  0.93782877  1
  Se  Se159  1  0.41587790  0.58300787  0.44949215  1
  Se  Se160  1  0.42496343  0.57425354  0.94174902  1
  Se  Se161  1  0.41815587  0.92099985  0.44793363  1
  Se  Se162  1  0.41602639  0.90939595  0.94358676  1
  Se  Se163  1  0.75259413  0.26743473  0.42878909  1
  Se  Se164  1  0.74504998  0.24902152  0.95492332  1
  Se  Se165  1  0.74572771  0.58456296  0.44897202  1
  Se  Se166  1  0.75446901  0.58356573  0.94931215  1
  Se  Se167  1  0.74513226  0.92683168  0.44088147  1
  Se  Se168  1  0.74668246  0.91615025  0.93294077  1
  Se  Se169  1  0.26592373  0.07393076  0.44578897  1
  Se  Se170  1  0.24851311  0.08406985  0.94551755  1
  Se  Se171  1  0.24524485  0.41738310  0.44791602  1
  Se  Se172  1  0.25435803  0.41572558  0.93361529  1
  Se  Se173  1  0.24793302  0.74594883  0.44870344  1
  Se  Se174  1  0.26049400  0.74195684  0.93620951  1
  Se  Se175  1  0.59270582  0.08700879  0.44132832  1
  Se  Se176  1  0.58261048  0.07463273  0.93744753  1
  Se  Se177  1  0.57456536  0.41960171  0.44348420  1
  Se  Se178  1  0.58292769  0.41824178  0.95093201  1
  Se  Se179  1  0.57879572  0.75775020  0.45449744  1
  Se  Se180  1  0.58653850  0.74678884  0.94427265  1
  Se  Se181  1  0.93005889  0.07509060  0.44983129  1
  Se  Se182  1  0.90562571  0.09048973  0.94828936  1
  Se  Se183  1  0.91401516  0.41364376  0.43510222  1
  Se  Se184  1  0.91110818  0.43308162  0.95393662  1
  Se  Se185  1  0.92005954  0.73958331  0.44086292  1
  Se  Se186  1  0.92560689  0.74414533  0.94301141  1
  Se  Se187  1  0.25275722  0.24869802  0.29719585  1
  Se  Se188  1  0.25156614  0.25711516  0.80193750  1
  Se  Se189  1  0.23938298  0.57682814  0.31239156  1
  Se  Se190  1  0.25401287  0.58537403  0.79507717  1
  Se  Se191  1  0.24208095  0.90492503  0.30987008  1
  Se  Se192  1  0.24019815  0.91331134  0.79891742  1
  Se  Se193  1  0.58204356  0.25028164  0.29562448  1
  Se  Se194  1  0.57458009  0.24158700  0.81327188  1
  Se  Se195  1  0.56914574  0.58379141  0.31295699  1
  Se  Se196  1  0.59019404  0.57715598  0.80553775  1
  Se  Se197  1  0.58971340  0.91926340  0.30160165  1
  Se  Se198  1  0.58116576  0.91262048  0.80061218  1
  Se  Se199  1  0.91852960  0.24965506  0.29654340  1
  Se  Se200  1  0.91696608  0.25592739  0.81241686  1
  Se  Se201  1  0.91427286  0.57068219  0.30116945  1
  Se  Se202  1  0.91321246  0.58047114  0.81285830  1
  Se  Se203  1  0.91443853  0.91172794  0.31506382  1
  Se  Se204  1  0.90843617  0.91607818  0.80284263  1
  Se  Se205  1  0.09168653  0.08854814  0.31323492  1
  Se  Se206  1  0.07946381  0.09214739  0.81124169  1
  Se  Se207  1  0.08126731  0.41004444  0.30437940  1
  Se  Se208  1  0.08367148  0.42245634  0.80045554  1
  Se  Se209  1  0.08001072  0.74281806  0.29962506  1
  Se  Se210  1  0.08953194  0.76098383  0.80167436  1
  Se  Se211  1  0.42952244  0.09409363  0.31297695  1
  Se  Se212  1  0.40901949  0.07839583  0.80263568  1
  Se  Se213  1  0.39629535  0.40857972  0.30410473  1
  Se  Se214  1  0.41887937  0.41565732  0.79873659  1
  Se  Se215  1  0.41933105  0.75793997  0.30900185  1
  Se  Se216  1  0.41863070  0.74439580  0.80525826  1
  Se  Se217  1  0.75094998  0.08428879  0.29956323  1
  Se  Se218  1  0.74404614  0.08514109  0.80107322  1
  Se  Se219  1  0.72572876  0.41369863  0.30012742  1
  Se  Se220  1  0.76255184  0.41331098  0.81965373  1
  Se  Se221  1  0.75990105  0.75696688  0.31522561  1
  Se  Se222  1  0.74593911  0.74178689  0.79704396  1
  Se  Se223  1  0.24706481  0.08701606  0.19137023  1
  Se  Se224  1  0.24260041  0.08984572  0.70427145  1
  Se  Se225  1  0.24396957  0.41970133  0.19397938  1
  Se  Se226  1  0.25477239  0.41258764  0.69244954  1
  Se  Se227  1  0.24083601  0.76014774  0.19249563  1
  Se  Se228  1  0.24548444  0.74912977  0.69688073  1
  Se  Se229  1  0.58488484  0.07863391  0.19351206  1
  Se  Se230  1  0.58190658  0.07846978  0.69971661  1
  Se  Se231  1  0.58292312  0.42259735  0.20367181  1
  Se  Se232  1  0.58275040  0.41869335  0.68983095  1
  Se  Se233  1  0.57868107  0.75331327  0.19075287  1
  Se  Se234  1  0.58484784  0.74158234  0.69480569  1
  Se  Se235  1  0.91582019  0.09283518  0.18353086  1
  Se  Se236  1  0.91371922  0.08886024  0.70079899  1
  Se  Se237  1  0.91385517  0.40987017  0.19993203  1
  Se  Se238  1  0.91971276  0.41721317  0.69944225  1
  Se  Se239  1  0.92061619  0.75220332  0.20200425  1
  Se  Se240  1  0.90953626  0.75653340  0.68635391  1
  Se  Se241  1  0.07787717  0.24541203  0.18976744  1
  Se  Se242  1  0.07714007  0.25866019  0.69772184  1
  Se  Se243  1  0.07844979  0.58261932  0.19507922  1
  Se  Se244  1  0.09033273  0.57795608  0.68352300  1
  Se  Se245  1  0.09269185  0.91350786  0.19332680  1
  Se  Se246  1  0.05831987  0.93573433  0.70344363  1
  Se  Se247  1  0.41288889  0.25029815  0.19312976  1
  Se  Se248  1  0.41852022  0.24917541  0.69822583  1
  Se  Se249  1  0.42440545  0.57565402  0.19518684  1
  Se  Se250  1  0.41542203  0.58217955  0.69471208  1
  Se  Se251  1  0.41916676  0.91358770  0.19041148  1
  Se  Se252  1  0.41599065  0.91024684  0.69692015  1
  Se  Se253  1  0.74567836  0.25163579  0.19294618  1
  Se  Se254  1  0.75832174  0.24635778  0.69045660  1
  Se  Se255  1  0.75680032  0.57814364  0.19443076  1
  Se  Se256  1  0.74983051  0.57580075  0.69925110  1
  Se  Se257  1  0.75153862  0.92074841  0.19735864  1
  Se  Se258  1  0.74301618  0.91800233  0.69808769  1
