# generated using pymatgen
data_In86Cu29Se144
_symmetry_space_group_name_H-M   'P 1'
_cell_length_a   17.57737430
_cell_length_b   17.57263404
_cell_length_c   23.42849372
_cell_angle_alpha   89.97286493
_cell_angle_beta   90.01503099
_cell_angle_gamma   89.99975858
_symmetry_Int_Tables_number   1
_chemical_formula_structural   In86Cu29Se144
_chemical_formula_sum   'In86 Cu29 Se144'
_cell_volume   7236.61002552
_cell_formula_units_Z   1
loop_
 _symmetry_equiv_pos_site_id
 _symmetry_equiv_pos_as_xyz
  1  'x, y, z'
loop_
 _atom_site_type_symbol
 _atom_site_label
 _atom_site_symmetry_multiplicity
 _atom_site_fract_x
 _atom_site_fract_y
 _atom_site_fract_z
 _atom_site_occupancy
  In  In0  1  0.00387292  0.15560736  0.12022358  1
  In  In1  1  -0.00907694  0.17503154  0.63008342  1
  In  In2  1  0.01261418  0.49639395  0.12531768  1
  In  In3  1  -0.00194666  0.49867396  0.62796005  1
  In  In4  1  -0.01424402  0.83122573  0.12269238  1
  In  In5  1  0.00303028  0.82955619  0.62825060  1
  In  In6  1  0.32442839  0.17026884  0.12332876  1
  In  In7  1  0.34865574  0.15936827  0.63813720  1
  In  In8  1  0.33134215  0.51023045  0.12663073  1
  In  In9  1  0.32496125  0.51099546  0.63125304  1
  In  In10  1  0.34030885  0.82900717  0.13075646  1
  In  In11  1  0.32958630  0.83618903  0.62343804  1
  In  In12  1  0.67718668  0.17292352  0.12807659  1
  In  In13  1  0.64606435  0.13680480  0.60139684  1
  In  In14  1  0.65625845  0.50191397  0.13543262  1
  In  In15  1  0.67918469  0.50133566  0.61799303  1
  In  In16  1  0.66616599  0.82572110  0.11251273  1
  In  In17  1  0.68665119  0.85271352  0.59800195  1
  In  In18  1  0.16512293  -0.01714397  0.37564903  1
  In  In19  1  0.17495341  0.00874370  0.86396049  1
  In  In20  1  0.18314460  0.34616641  0.38271916  1
  In  In21  1  0.16432186  0.33360873  0.87273858  1
  In  In22  1  0.16487916  0.66669929  0.37465795  1
  In  In23  1  0.15884953  0.65745876  0.86842602  1
  In  In24  1  0.49735066  0.00601699  0.38774116  1
  In  In25  1  0.48716202  -0.00958737  0.85980816  1
  In  In26  1  0.49898695  0.31819493  0.38447869  1
  In  In27  1  0.49932057  0.34399949  0.86660018  1
  In  In28  1  0.50102404  0.68260603  0.37928983  1
  In  In29  1  0.50143465  0.68379542  0.87190331  1
  In  In30  1  0.82742852  -0.00186164  0.39526168  1
  In  In31  1  0.82295394  -0.00810955  0.86028480  1
  In  In32  1  0.82299297  0.34637321  0.38384217  1
  In  In33  1  0.83301254  0.32433813  0.86759950  1
  In  In34  1  0.84422567  0.65788184  0.39069779  1
  In  In35  1  0.84192747  0.66816254  0.87483271  1
  In  In36  1  0.00286655  0.15364278  0.38220148  1
  In  In37  1  0.00766250  0.17647411  0.86175222  1
  In  In38  1  -0.01240790  0.51778831  0.38119035  1
  In  In39  1  0.00566712  0.51438881  0.86410864  1
  In  In40  1  0.00908491  0.82287087  0.38300774  1
  In  In41  1  -0.01074200  0.82265230  0.86319667  1
  In  In42  1  0.35193054  0.16324858  0.38293314  1
  In  In43  1  0.32533999  0.15554200  0.86121830  1
  In  In44  1  0.31075687  0.49767675  0.38314752  1
  In  In45  1  0.32388472  0.49099461  0.86424407  1
  In  In46  1  0.33195092  0.83127023  0.37376183  1
  In  In47  1  0.34093660  0.83866015  0.86615832  1
  In  In48  1  0.65689039  0.17106310  0.38989626  1
  In  In49  1  0.68244051  0.16118907  0.86997020  1
  In  In50  1  0.69789000  0.50224018  0.37971428  1
  In  In51  1  0.67599099  0.50139507  0.87145761  1
  In  In52  1  0.66676290  0.82875177  0.39967007  1
  In  In53  1  0.65562306  0.83548803  0.88167769  1
  In  In54  1  0.16983259  0.01015596  0.12024409  1
  In  In55  1  0.17657954  -0.00917864  0.63355678  1
  In  In56  1  0.16819741  0.33407246  0.11356905  1
  In  In57  1  0.16066619  0.34156358  0.63008997  1
  In  In58  1  0.17379718  0.65905395  0.12820554  1
  In  In59  1  0.16589148  0.66702525  0.62586454  1
  In  In60  1  0.50055774  -0.01603720  0.12381219  1
  In  In61  1  0.50334041  -0.00489779  0.62274011  1
  In  In62  1  0.50048695  0.34555514  0.13161287  1
  In  In63  1  0.49733113  0.31605315  0.62581704  1
  In  In64  1  0.49114541  0.66677457  0.12820939  1
  In  In65  1  0.48771947  0.67554322  0.62507887  1
  In  In66  1  0.84065699  -0.00739161  0.12264406  1
  In  In67  1  0.83393378  0.00075803  0.62528711  1
  In  In68  1  0.83096504  0.32945803  0.13372900  1
  In  In69  1  0.84163031  0.33678121  0.61942180  1
  In  In70  1  0.83121771  0.68180254  0.13078375  1
  In  In71  1  0.83728110  0.67428841  0.62002043  1
  In  In72  1  0.66852027  0.32605885  0.73864971  1
  In  In73  1  -0.00066787  -0.00936955  0.24557508  1
  In  In74  1  0.33639239  0.33357953  0.25479686  1
  In  In75  1  0.83935141  0.16085842  -0.00091214  1
  In  In76  1  0.49903325  0.49900566  0.50424032  1
  In  In77  1  0.66563531  0.67281725  0.73985402  1
  In  In78  1  0.16716417  0.16769861  0.51083536  1
  In  In79  1  0.66292563  -0.00140029  0.25755602  1
  In  In80  1  0.16584370  0.83445651  -0.00953775  1
  In  In81  1  0.83627754  0.50514156  -0.00484361  1
  In  In82  1  0.49480810  0.51080509  0.00753448  1
  In  In83  1  0.49653631  0.16350911  -0.01172722  1
  In  In84  1  -0.00222721  0.33659146  0.25257514  1
  In  In85  1  0.66937616  0.66741972  0.26002810  1
  Cu  Cu86  1  0.17061490  0.82597965  0.25186916  1
  Cu  Cu87  1  0.50535910  0.16143228  0.26061499  1
  Cu  Cu88  1  0.32381070  0.66933020  0.50088048  1
  Cu  Cu89  1  0.83335640  0.83424416  0.25556152  1
  Cu  Cu90  1  0.00590655  0.66648422  0.50554145  1
  Cu  Cu91  1  0.83023115  0.16358671  0.73882028  1
  Cu  Cu92  1  0.16218450  0.50714857  0.25299029  1
  Cu  Cu93  1  0.33571820  -0.00146332  -0.01110593  1
  Cu  Cu94  1  0.00482540  0.33972550  0.50418067  1
  Cu  Cu95  1  0.49667746  0.50410661  0.74376302  1
  Cu  Cu96  1  0.33370848  0.66660176  0.00133151  1
  Cu  Cu97  1  0.32162834  0.33155388  -0.00683988  1
  Cu  Cu98  1  0.16398468  0.16950833  0.74469541  1
  Cu  Cu99  1  0.50100685  0.83960926  0.74370337  1
  Cu  Cu100  1  0.66504578  -0.01133198  -0.00727021  1
  Cu  Cu101  1  0.67183558  0.33235779  0.50339527  1
  Cu  Cu102  1  0.49594752  0.83540184  0.25489517  1
  Cu  Cu103  1  0.16409146  0.50111643  0.74800555  1
  Cu  Cu104  1  0.32944456  -0.00163896  0.50650435  1
  Cu  Cu105  1  0.66103400  0.33957920  0.00634386  1
  Cu  Cu106  1  0.50249576  0.49982211  0.25658094  1
  Cu  Cu107  1  0.00659545  0.33567848  -0.00631647  1
  Cu  Cu108  1  -0.00339084  -0.00616791  0.50680707  1
  Cu  Cu109  1  0.16850904  0.83019662  0.74889777  1
  Cu  Cu110  1  0.82988460  0.83317097  0.74100820  1
  Cu  Cu111  1  0.00161258  0.00123494  -0.00712490  1
  Cu  Cu112  1  0.17348404  0.16516412  0.24584704  1
  Cu  Cu113  1  0.00249369  0.66655307  -0.00595702  1
  Cu  Cu114  1  0.82652641  0.17400120  0.25814220  1
  Se  Se115  1  0.08536335  0.08299663  0.04650334  1
  Se  Se116  1  0.07713454  0.07482285  0.56724941  1
  Se  Se117  1  0.08628835  0.42094894  0.04821688  1
  Se  Se118  1  0.08702843  0.42352828  0.55572678  1
  Se  Se119  1  0.08123022  0.74689583  0.05737046  1
  Se  Se120  1  0.08814977  0.75363122  0.55559224  1
  Se  Se121  1  0.41217481  0.07670905  0.05615447  1
  Se  Se122  1  0.41412564  0.08180626  0.55726052  1
  Se  Se123  1  0.40309779  0.40692329  0.05714786  1
  Se  Se124  1  0.41138822  0.41490148  0.56791968  1
  Se  Se125  1  0.41578063  0.74964485  0.05535162  1
  Se  Se126  1  0.40893527  0.75278125  0.55122936  1
  Se  Se127  1  0.73997541  0.07157622  0.05603412  1
  Se  Se128  1  0.76547227  0.08782559  0.55099900  1
  Se  Se129  1  0.74600875  0.41707414  0.06300222  1
  Se  Se130  1  0.75827329  0.41888741  0.54874590  1
  Se  Se131  1  0.76568323  0.75693272  0.05190025  1
  Se  Se132  1  0.74145371  0.73325306  0.54821136  1
  Se  Se133  1  0.24549187  0.24313796  0.04790878  1
  Se  Se134  1  0.25722556  0.25039401  0.57248563  1
  Se  Se135  1  0.24947846  0.58132847  0.05164530  1
  Se  Se136  1  0.24561194  0.58227276  0.55404501  1
  Se  Se137  1  0.25726501  0.91979510  0.05400657  1
  Se  Se138  1  0.24168815  0.91411363  0.55263453  1
  Se  Se139  1  0.58093052  0.25320340  0.06007612  1
  Se  Se140  1  0.58028946  0.25054866  0.54871075  1
  Se  Se141  1  0.59480766  0.59654691  0.06143437  1
  Se  Se142  1  0.58546934  0.59239505  0.56244603  1
  Se  Se143  1  0.57960568  0.91121484  0.04891248  1
  Se  Se144  1  0.56663538  0.90425205  0.54815745  1
  Se  Se145  1  0.92514154  0.26048491  0.05812318  1
  Se  Se146  1  0.92143570  0.25004030  0.54982399  1
  Se  Se147  1  0.92415146  0.59013156  0.06077952  1
  Se  Se148  1  0.91932767  0.58333041  0.55625135  1
  Se  Se149  1  0.91919025  0.91897479  0.04780908  1
  Se  Se150  1  0.91514822  0.90904057  0.55980316  1
  Se  Se151  1  0.08274580  0.25742828  0.44192885  1
  Se  Se152  1  0.08341952  0.24540391  0.94174046  1
  Se  Se153  1  0.08620628  0.58354918  0.44712353  1
  Se  Se154  1  0.08429952  0.57962939  0.94482995  1
  Se  Se155  1  0.08228364  0.91582069  0.45104285  1
  Se  Se156  1  0.07691160  0.92212945  0.92885990  1
  Se  Se157  1  0.40934655  0.25431836  0.45602302  1
  Se  Se158  1  0.40833266  0.25981110  0.93351320  1
  Se  Se159  1  0.40843292  0.58869050  0.44174144  1
  Se  Se160  1  0.41004596  0.58747787  0.93533294  1
  Se  Se161  1  0.40795193  0.91696202  0.44585353  1
  Se  Se162  1  0.42139973  0.91364575  0.94131914  1
  Se  Se163  1  0.75563845  0.24838033  0.44984304  1
  Se  Se164  1  0.74262827  0.25853201  0.94744757  1
  Se  Se165  1  0.73629142  0.60219890  0.45396780  1
  Se  Se166  1  0.73935917  0.59630880  0.94347623  1
  Se  Se167  1  0.74852936  0.91604667  0.46328017  1
  Se  Se168  1  0.75677429  0.91389380  0.94045673  1
  Se  Se169  1  0.24955313  0.07766912  0.44222371  1
  Se  Se170  1  0.25060186  0.08455082  0.94130985  1
  Se  Se171  1  0.25670061  0.41207808  0.46246553  1
  Se  Se172  1  0.24431309  0.42192038  0.94207961  1
  Se  Se173  1  0.24473660  0.75308251  0.44306725  1
  Se  Se174  1  0.25754933  0.74249428  0.93475897  1
  Se  Se175  1  0.58960160  0.07526868  0.45528560  1
  Se  Se176  1  0.59108957  0.07418047  0.93330488  1
  Se  Se177  1  0.59305102  0.41482369  0.44071781  1
  Se  Se178  1  0.58627710  0.41943941  0.94408415  1
  Se  Se179  1  0.56729474  0.75549035  0.45961924  1
  Se  Se180  1  0.58279705  0.74451615  0.94943278  1
  Se  Se181  1  0.91894858  0.08386428  0.45504440  1
  Se  Se182  1  0.92063816  0.07816334  0.92982392  1
  Se  Se183  1  0.91988368  0.41955152  0.44732921  1
  Se  Se184  1  0.92053782  0.40980852  0.93504973  1
  Se  Se185  1  0.92011952  0.75247302  0.45410046  1
  Se  Se186  1  0.91845571  0.75281864  0.94597587  1
  Se  Se187  1  0.24634483  0.24109227  0.31337029  1
  Se  Se188  1  0.24606663  0.25215857  0.80165631  1
  Se  Se189  1  0.25157339  0.58415179  0.30537069  1
  Se  Se190  1  0.25054765  0.58606303  0.79919877  1
  Se  Se191  1  0.25046284  0.91543835  0.30173165  1
  Se  Se192  1  0.25304240  0.91707758  0.79928845  1
  Se  Se193  1  0.58556783  0.24842885  0.31085655  1
  Se  Se194  1  0.58439053  0.24525579  0.80996777  1
  Se  Se195  1  0.58066896  0.57605228  0.32076696  1
  Se  Se196  1  0.57901139  0.57937525  0.80607252  1
  Se  Se197  1  0.57958225  0.90573819  0.31861611  1
  Se  Se198  1  0.58858703  0.91404180  0.80225406  1
  Se  Se199  1  0.91611428  0.24396718  0.31689040  1
  Se  Se200  1  0.91153761  0.24747209  0.79503093  1
  Se  Se201  1  0.90835446  0.58983876  0.30667905  1
  Se  Se202  1  0.90440246  0.58025095  0.80217341  1
  Se  Se203  1  0.91074271  0.91613213  0.31693936  1
  Se  Se204  1  0.91560644  0.91482082  0.79564995  1
  Se  Se205  1  0.09011920  0.08520672  0.30373185  1
  Se  Se206  1  0.08168386  0.08173875  0.79685280  1
  Se  Se207  1  0.08858436  0.42287937  0.31455472  1
  Se  Se208  1  0.08187159  0.41716509  0.80323232  1
  Se  Se209  1  0.08101277  0.74904614  0.30383386  1
  Se  Se210  1  0.08266492  0.74554470  0.79985458  1
  Se  Se211  1  0.41919737  0.07742557  0.30820827  1
  Se  Se212  1  0.42783430  0.09449488  0.79789986  1
  Se  Se213  1  0.42122470  0.42247577  0.31898691  1
  Se  Se214  1  0.41527507  0.41745615  0.79553492  1
  Se  Se215  1  0.41406237  0.74597757  0.30346962  1
  Se  Se216  1  0.41944176  0.75218915  0.79612139  1
  Se  Se217  1  0.75484636  0.08613934  0.31712345  1
  Se  Se218  1  0.74573513  0.08043292  0.79153966  1
  Se  Se219  1  0.75328526  0.41548196  0.30223490  1
  Se  Se220  1  0.75638478  0.42001156  0.80018116  1
  Se  Se221  1  0.75420583  0.76045411  0.32052989  1
  Se  Se222  1  0.75166139  0.75681898  0.80796909  1
  Se  Se223  1  0.25561647  0.07958252  0.19463723  1
  Se  Se224  1  0.25153581  0.08236442  0.69994410  1
  Se  Se225  1  0.24032172  0.41980986  0.19365147  1
  Se  Se226  1  0.25106456  0.41783642  0.69849163  1
  Se  Se227  1  0.25448831  0.74494005  0.19539319  1
  Se  Se228  1  0.25221683  0.74896638  0.69408728  1
  Se  Se229  1  0.57872385  0.08788563  0.18938328  1
  Se  Se230  1  0.58340354  0.08228855  0.69050870  1
  Se  Se231  1  0.58462189  0.41319554  0.20630254  1
  Se  Se232  1  0.57925016  0.42626754  0.68450778  1
  Se  Se233  1  0.58127913  0.75746635  0.19487342  1
  Se  Se234  1  0.58363272  0.76758300  0.68014041  1
  Se  Se235  1  0.90484526  0.09369883  0.19541488  1
  Se  Se236  1  0.92105283  0.07775045  0.69602175  1
  Se  Se237  1  0.90981663  0.42915396  0.19348318  1
  Se  Se238  1  0.92626236  0.40320640  0.69430386  1
  Se  Se239  1  0.91922458  0.75340747  0.20271555  1
  Se  Se240  1  0.91678785  0.74623454  0.69649527  1
  Se  Se241  1  0.08903565  0.24477135  0.18952091  1
  Se  Se242  1  0.07858646  0.25530806  0.69689633  1
  Se  Se243  1  0.08012308  0.58731095  0.19651552  1
  Se  Se244  1  0.08125264  0.58575194  0.69520223  1
  Se  Se245  1  0.09460148  0.90480308  0.18468800  1
  Se  Se246  1  0.08304551  0.91453956  0.69864023  1
  Se  Se247  1  0.42662559  0.24000184  0.19459022  1
  Se  Se248  1  0.42240126  0.25123993  0.70593859  1
  Se  Se249  1  0.41938564  0.57846582  0.19952603  1
  Se  Se250  1  0.41277628  0.59293216  0.69779958  1
  Se  Se251  1  0.41564184  0.91976232  0.19980201  1
  Se  Se252  1  0.41193562  0.92015432  0.69276455  1
  Se  Se253  1  0.74358624  0.25581019  0.20435680  1
  Se  Se254  1  0.75020210  0.23732030  0.67405435  1
  Se  Se255  1  0.75672771  0.58049725  0.19540035  1
  Se  Se256  1  0.76113805  0.57686678  0.69254786  1
  Se  Se257  1  0.75236791  0.91046041  0.19289542  1
  Se  Se258  1  0.74403809  0.91446201  0.68865149  1
