# generated using pymatgen
data_In86Cu29Se144
_symmetry_space_group_name_H-M   'P 1'
_cell_length_a   17.59019397
_cell_length_b   17.58543907
_cell_length_c   23.44653100
_cell_angle_alpha   89.97072906
_cell_angle_beta   89.98192973
_cell_angle_gamma   89.99404034
_symmetry_Int_Tables_number   1
_chemical_formula_structural   In86Cu29Se144
_chemical_formula_sum   'In86 Cu29 Se144'
_cell_volume   7252.74420368
_cell_formula_units_Z   1
loop_
 _symmetry_equiv_pos_site_id
 _symmetry_equiv_pos_as_xyz
  1  'x, y, z'
loop_
 _atom_site_type_symbol
 _atom_site_label
 _atom_site_symmetry_multiplicity
 _atom_site_fract_x
 _atom_site_fract_y
 _atom_site_fract_z
 _atom_site_occupancy
  In  In0  1  -0.01722572  0.16940170  0.11073294  1
  In  In1  1  0.00565242  0.16469092  0.63071601  1
  In  In2  1  -0.00079414  0.49517160  0.11595271  1
  In  In3  1  0.00393727  0.50431016  0.61725752  1
  In  In4  1  0.00607636  0.82612454  0.12738122  1
  In  In5  1  -0.01059937  0.83891115  0.62078793  1
  In  In6  1  0.34722604  0.16885606  0.11004804  1
  In  In7  1  0.33867300  0.15673656  0.63903047  1
  In  In8  1  0.31732849  0.49816811  0.12662445  1
  In  In9  1  0.32607688  0.50515832  0.63420088  1
  In  In10  1  0.31644978  0.83896048  0.11874989  1
  In  In11  1  0.33881271  0.83292739  0.63456519  1
  In  In12  1  0.66414006  0.16575725  0.12111285  1
  In  In13  1  0.66226247  0.18393264  0.63360141  1
  In  In14  1  0.68103549  0.48254342  0.14290457  1
  In  In15  1  0.67188041  0.49760948  0.62910243  1
  In  In16  1  0.67679368  0.82499493  0.13551086  1
  In  In17  1  0.67148995  0.82516807  0.62634032  1
  In  In18  1  0.16647729  0.00706462  0.36602331  1
  In  In19  1  0.17626633  0.00154302  0.88552287  1
  In  In20  1  0.17837665  0.33222434  0.36939626  1
  In  In21  1  0.18056956  0.32312821  0.89017329  1
  In  In22  1  0.15309749  0.66977969  0.37461768  1
  In  In23  1  0.17261735  0.65313562  0.88673569  1
  In  In24  1  0.51310366  0.00057840  0.37960568  1
  In  In25  1  0.51086590  0.00774039  0.86919531  1
  In  In26  1  0.49667709  0.32818479  0.37154460  1
  In  In27  1  0.48924578  0.31743159  0.86782098  1
  In  In28  1  0.49945114  0.65516659  0.37674163  1
  In  In29  1  0.50419019  0.67137995  0.86346925  1
  In  In30  1  0.83079257  -0.00599172  0.36786460  1
  In  In31  1  0.82897729  0.01138289  0.87578498  1
  In  In32  1  0.82989436  0.35193535  0.37062758  1
  In  In33  1  0.82793871  0.33568410  0.88053296  1
  In  In34  1  0.83511781  0.66711085  0.37187621  1
  In  In35  1  0.82887074  0.66132254  0.87812644  1
  In  In36  1  0.01014225  0.16177453  0.36570593  1
  In  In37  1  0.00033121  0.17241957  0.88928194  1
  In  In38  1  -0.01781296  0.51487041  0.37847754  1
  In  In39  1  0.01139657  0.48057123  0.90824971  1
  In  In40  1  -0.01075896  0.81714009  0.36013688  1
  In  In41  1  0.00428618  0.83950595  0.88078932  1
  In  In42  1  0.33286906  0.17950275  0.37603550  1
  In  In43  1  0.33177462  0.16784221  0.87910873  1
  In  In44  1  0.33814031  0.48981328  0.37858685  1
  In  In45  1  0.33146829  0.49038961  0.86713157  1
  In  In46  1  0.31956360  0.83291390  0.37877244  1
  In  In47  1  0.32841711  0.82837300  0.86615858  1
  In  In48  1  0.66166960  0.15834339  0.37049625  1
  In  In49  1  0.66705225  0.16212997  0.87520947  1
  In  In50  1  0.68302787  0.51181077  0.35794907  1
  In  In51  1  0.67220649  0.50267066  0.87004617  1
  In  In52  1  0.67545836  0.84565159  0.37011959  1
  In  In53  1  0.66411356  0.82950060  0.86717318  1
  In  In54  1  0.16031464  -0.00862196  0.10793864  1
  In  In55  1  0.17459489  0.00832105  0.63136994  1
  In  In56  1  0.17143080  0.34343407  0.11787143  1
  In  In57  1  0.15998687  0.34633972  0.63166973  1
  In  In58  1  0.13696050  0.64382992  0.09899407  1
  In  In59  1  0.18097119  0.65849552  0.62788369  1
  In  In60  1  0.50010640  0.01245031  0.12008629  1
  In  In61  1  0.49469668  0.01242972  0.63080622  1
  In  In62  1  0.50816927  0.32296975  0.13047230  1
  In  In63  1  0.50819249  0.32474797  0.63042290  1
  In  In64  1  0.50975947  0.67230798  0.12683557  1
  In  In65  1  0.49697473  0.66790435  0.63236542  1
  In  In66  1  0.82241817  0.00853420  0.12927559  1
  In  In67  1  0.83881613  -0.01260949  0.62480861  1
  In  In68  1  0.82685830  0.32747217  0.11667180  1
  In  In69  1  0.81893849  0.34359622  0.62706336  1
  In  In70  1  0.85105571  0.64369276  0.14345712  1
  In  In71  1  0.82441995  0.65944525  0.61636844  1
  In  In72  1  0.83918589  0.82625200  0.00204356  1
  In  In73  1  0.00018986  0.00341485  0.76017838  1
  In  In74  1  -0.00508961  0.66280545  0.76378337  1
  In  In75  1  -0.00105981  0.33404405  0.24433133  1
  In  In76  1  0.16850688  0.17177370  0.50709456  1
  In  In77  1  0.33168514  0.66753187  0.25084811  1
  In  In78  1  0.00210049  0.32968622  0.76437043  1
  In  In79  1  0.50175949  0.83679237  -0.00553461  1
  In  In80  1  0.15790262  0.82793234  0.49930351  1
  In  In81  1  0.50092906  0.83227785  0.51069972  1
  In  In82  1  0.50405496  0.49685716  0.49856689  1
  In  In83  1  0.49862282  0.49860296  -0.00379648  1
  In  In84  1  0.33638611  0.00691915  0.23777402  1
  In  In85  1  0.83393069  0.17560095  0.50416878  1
  Cu  Cu86  1  0.83666666  0.49634660  0.75242212  1
  Cu  Cu87  1  0.33591398  0.33427105  0.50075892  1
  Cu  Cu88  1  0.82459008  0.82557157  0.74862886  1
  Cu  Cu89  1  0.17100344  0.83684549  0.75242716  1
  Cu  Cu90  1  0.33690940  0.00317125  0.50778723  1
  Cu  Cu91  1  -0.00632607  -0.00839571  0.49318314  1
  Cu  Cu92  1  0.16143926  0.83039312  0.23857390  1
  Cu  Cu93  1  0.66935394  0.01003012  0.49749465  1
  Cu  Cu94  1  0.49935982  0.84147885  0.74767293  1
  Cu  Cu95  1  0.50138499  0.16697743  0.24657928  1
  Cu  Cu96  1  0.82920474  0.17002667  0.24302148  1
  Cu  Cu97  1  -0.00651030  0.66301093  0.49498352  1
  Cu  Cu98  1  0.16032981  0.49934594  0.24482351  1
  Cu  Cu99  1  0.50469074  0.83768095  0.25204527  1
  Cu  Cu100  1  0.50600819  0.49690845  0.74824331  1
  Cu  Cu101  1  0.00197124  0.34174247  0.49928382  1
  Cu  Cu102  1  0.50129980  0.17029852  0.75393738  1
  Cu  Cu103  1  0.16408467  0.16430270  0.24286436  1
  Cu  Cu104  1  0.67093733  0.67041475  0.49544604  1
  Cu  Cu105  1  0.33496409  0.33635841  -0.00409673  1
  Cu  Cu106  1  0.33033816  0.67208503  -0.00502780  1
  Cu  Cu107  1  -0.00141312  0.00265790  -0.00115000  1
  Cu  Cu108  1  0.66518602  0.33911484  0.50094827  1
  Cu  Cu109  1  0.66014426  0.32823491  0.00029408  1
  Cu  Cu110  1  0.67479604  0.65274026  0.00285021  1
  Cu  Cu111  1  0.49686812  0.49387487  0.25416999  1
  Cu  Cu112  1  0.83632345  0.83860233  0.25015917  1
  Cu  Cu113  1  0.17199193  0.50066355  0.75745730  1
  Cu  Cu114  1  0.66700093  0.00294421  0.00060616  1
  Se  Se115  1  0.07937387  0.09005168  0.05029482  1
  Se  Se116  1  0.07433127  0.06917774  0.55580411  1
  Se  Se117  1  0.09316370  0.42584098  0.04857749  1
  Se  Se118  1  0.08976627  0.42004076  0.55183995  1
  Se  Se119  1  0.09797882  0.77011299  0.05270489  1
  Se  Se120  1  0.07196583  0.73698260  0.56310644  1
  Se  Se121  1  0.41262849  0.06903398  0.04483556  1
  Se  Se122  1  0.41611557  0.09187625  0.55712225  1
  Se  Se123  1  0.41311206  0.41267610  0.06279204  1
  Se  Se124  1  0.41590340  0.41224061  0.56351427  1
  Se  Se125  1  0.41263339  0.74469269  0.05769550  1
  Se  Se126  1  0.40355030  0.73935454  0.55903644  1
  Se  Se127  1  0.75202821  0.08695791  0.05157630  1
  Se  Se128  1  0.74865016  0.08265639  0.56401416  1
  Se  Se129  1  0.73869846  0.41598863  0.05417569  1
  Se  Se130  1  0.74922300  0.42428805  0.55079535  1
  Se  Se131  1  0.74971957  0.73771822  0.06239348  1
  Se  Se132  1  0.75242667  0.75461498  0.54972920  1
  Se  Se133  1  0.25320765  0.25435344  0.05242539  1
  Se  Se134  1  0.25742450  0.25920811  0.56705343  1
  Se  Se135  1  0.25482652  0.58318034  0.04976458  1
  Se  Se136  1  0.24219085  0.56757397  0.55654608  1
  Se  Se137  1  0.26825677  0.93432445  0.04555352  1
  Se  Se138  1  0.25226427  0.91864234  0.55930329  1
  Se  Se139  1  0.57596039  0.24455818  0.05187007  1
  Se  Se140  1  0.58610215  0.25176272  0.55301667  1
  Se  Se141  1  0.58932896  0.57852332  0.06250772  1
  Se  Se142  1  0.58944694  0.59365517  0.55818017  1
  Se  Se143  1  0.59571884  0.91478777  0.06139980  1
  Se  Se144  1  0.59147240  0.92950126  0.56174793  1
  Se  Se145  1  0.92355988  0.27165055  0.04359886  1
  Se  Se146  1  0.92891627  0.26191398  0.56412288  1
  Se  Se147  1  0.91178482  0.58441163  0.05534635  1
  Se  Se148  1  0.91267176  0.57893027  0.55076087  1
  Se  Se149  1  0.91903888  0.92399670  0.06256460  1
  Se  Se150  1  0.90909483  0.91037394  0.54547013  1
  Se  Se151  1  0.07777071  0.25552738  0.44057039  1
  Se  Se152  1  0.07508534  0.26478204  0.95279726  1
  Se  Se153  1  0.08159386  0.58139284  0.44499336  1
  Se  Se154  1  0.07750342  0.59335899  0.95695318  1
  Se  Se155  1  0.07820709  0.91827861  0.43187648  1
  Se  Se156  1  0.08493531  0.91918224  0.94970462  1
  Se  Se157  1  0.41892232  0.25063199  0.44800628  1
  Se  Se158  1  0.41985007  0.24843172  0.94964290  1
  Se  Se159  1  0.40518509  0.59010935  0.44828263  1
  Se  Se160  1  0.41429481  0.59375628  0.93566084  1
  Se  Se161  1  0.40970959  0.92060470  0.44384771  1
  Se  Se162  1  0.41483548  0.92048631  0.93147370  1
  Se  Se163  1  0.74509089  0.25863764  0.43844900  1
  Se  Se164  1  0.74523511  0.24694342  0.94590621  1
  Se  Se165  1  0.74912582  0.58412700  0.44072807  1
  Se  Se166  1  0.75508839  0.57136726  0.94715509  1
  Se  Se167  1  0.75070274  0.92408803  0.44555294  1
  Se  Se168  1  0.74320295  0.91380508  0.94317215  1
  Se  Se169  1  0.25439429  0.07730551  0.44356403  1
  Se  Se170  1  0.23891126  0.10175993  0.95031654  1
  Se  Se171  1  0.24948319  0.41185323  0.44617184  1
  Se  Se172  1  0.25428710  0.42777308  0.94878316  1
  Se  Se173  1  0.25411842  0.73524920  0.44685200  1
  Se  Se174  1  0.24848403  0.75711805  0.94316816  1
  Se  Se175  1  0.58077690  0.09178187  0.45008885  1
  Se  Se176  1  0.58184437  0.08405983  0.94798244  1
  Se  Se177  1  0.59338782  0.41692940  0.43247835  1
  Se  Se178  1  0.58464077  0.40784671  0.93504058  1
  Se  Se179  1  0.58557915  0.74976430  0.43926328  1
  Se  Se180  1  0.59477810  0.73626543  0.94414924  1
  Se  Se181  1  0.92158479  0.08544109  0.43928945  1
  Se  Se182  1  0.91036556  0.08399165  0.94917282  1
  Se  Se183  1  0.91333979  0.41866551  0.44664200  1
  Se  Se184  1  0.91166302  0.39903852  0.95968905  1
  Se  Se185  1  0.91625295  0.75230119  0.44251985  1
  Se  Se186  1  0.92930304  0.73742811  0.94252253  1
  Se  Se187  1  0.24841959  0.24296241  0.29865231  1
  Se  Se188  1  0.26175450  0.26404397  0.81132297  1
  Se  Se189  1  0.24240307  0.57464191  0.31008987  1
  Se  Se190  1  0.25344242  0.58950260  0.80683229  1
  Se  Se191  1  0.24554072  0.90950284  0.29778327  1
  Se  Se192  1  0.24772283  0.92499033  0.80585120  1
  Se  Se193  1  0.58314273  0.24769634  0.30405406  1
  Se  Se194  1  0.59030171  0.25088376  0.80432930  1
  Se  Se195  1  0.57788704  0.58524165  0.30116637  1
  Se  Se196  1  0.58792124  0.58304676  0.80079191  1
  Se  Se197  1  0.58561392  0.92431239  0.30329457  1
  Se  Se198  1  0.58782923  0.91881896  0.80069545  1
  Se  Se199  1  0.90874967  0.24467454  0.30871895  1
  Se  Se200  1  0.90613028  0.23712188  0.81322259  1
  Se  Se201  1  0.91380457  0.58618027  0.29948751  1
  Se  Se202  1  0.91827073  0.56087308  0.82151445  1
  Se  Se203  1  0.92396879  0.92309071  0.29992098  1
  Se  Se204  1  0.90517828  0.90434378  0.80993829  1
  Se  Se205  1  0.08195124  0.07770068  0.29268299  1
  Se  Se206  1  0.08848986  0.09340899  0.81735441  1
  Se  Se207  1  0.08329120  0.42154907  0.31096923  1
  Se  Se208  1  0.09080165  0.42472819  0.82035691  1
  Se  Se209  1  0.08452623  0.74408249  0.29487980  1
  Se  Se210  1  0.09272055  0.75608559  0.81259529  1
  Se  Se211  1  0.42128905  0.08717800  0.31035905  1
  Se  Se212  1  0.41726873  0.08821197  0.80755954  1
  Se  Se213  1  0.41043261  0.41046078  0.30353452  1
  Se  Se214  1  0.42109469  0.41470050  0.80091530  1
  Se  Se215  1  0.42125614  0.76104798  0.31278236  1
  Se  Se216  1  0.41758547  0.75243075  0.79784447  1
  Se  Se217  1  0.75244744  0.08502982  0.30268337  1
  Se  Se218  1  0.73602730  0.06872130  0.80478448  1
  Se  Se219  1  0.74825005  0.41314630  0.29305062  1
  Se  Se220  1  0.75159342  0.41219444  0.80383996  1
  Se  Se221  1  0.75272622  0.75573069  0.30504083  1
  Se  Se222  1  0.74857090  0.73924339  0.80519837  1
  Se  Se223  1  0.24339034  0.08983198  0.17813181  1
  Se  Se224  1  0.24302732  0.08768797  0.70517408  1
  Se  Se225  1  0.24718420  0.41228329  0.19981519  1
  Se  Se226  1  0.25018786  0.41475823  0.70258260  1
  Se  Se227  1  0.24030504  0.74352813  0.18339752  1
  Se  Se228  1  0.24913105  0.75046199  0.69758804  1
  Se  Se229  1  0.58400904  0.08236060  0.19396167  1
  Se  Se230  1  0.58458149  0.08951589  0.69687264  1
  Se  Se231  1  0.58040851  0.40918557  0.20228330  1
  Se  Se232  1  0.59000425  0.41311061  0.69580511  1
  Se  Se233  1  0.58496722  0.74842181  0.20227796  1
  Se  Se234  1  0.58167462  0.75324063  0.69613020  1
  Se  Se235  1  0.91652701  0.09044259  0.19063396  1
  Se  Se236  1  0.90969151  0.08687445  0.69392387  1
  Se  Se237  1  0.90588257  0.42068011  0.18762765  1
  Se  Se238  1  0.92281310  0.42119846  0.69320598  1
  Se  Se239  1  0.91857757  0.75309223  0.19807744  1
  Se  Se240  1  0.91255592  0.74851590  0.69240821  1
  Se  Se241  1  0.08549057  0.24510211  0.18197920  1
  Se  Se242  1  0.09313945  0.24286810  0.69970505  1
  Se  Se243  1  0.07911481  0.57955412  0.18847089  1
  Se  Se244  1  0.08602542  0.57769001  0.69821611  1
  Se  Se245  1  0.08487910  0.92324099  0.18912407  1
  Se  Se246  1  0.08381129  0.91017068  0.69233219  1
  Se  Se247  1  0.41262754  0.24368521  0.19282619  1
  Se  Se248  1  0.41730841  0.25277820  0.69962422  1
  Se  Se249  1  0.42198188  0.57568786  0.18971078  1
  Se  Se250  1  0.41803240  0.58162243  0.69962337  1
  Se  Se251  1  0.42387052  0.90567515  0.18561299  1
  Se  Se252  1  0.41319408  0.92643132  0.69827182  1
  Se  Se253  1  0.74544521  0.25114857  0.19010402  1
  Se  Se254  1  0.76413303  0.24793912  0.69703451  1
  Se  Se255  1  0.72942033  0.60136584  0.19508138  1
  Se  Se256  1  0.75719336  0.58165608  0.69625881  1
  Se  Se257  1  0.74862172  0.92111997  0.19987476  1
  Se  Se258  1  0.74961360  0.91404916  0.69415927  1
