# generated using pymatgen
data_In86Cu29Se144
_symmetry_space_group_name_H-M   'P 1'
_cell_length_a   17.57919014
_cell_length_b   17.57421207
_cell_length_c   23.44042157
_cell_angle_alpha   89.99524967
_cell_angle_beta   89.98777388
_cell_angle_gamma   89.99505385
_symmetry_Int_Tables_number   1
_chemical_formula_structural   In86Cu29Se144
_chemical_formula_sum   'In86 Cu29 Se144'
_cell_volume   7241.69336202
_cell_formula_units_Z   1
loop_
 _symmetry_equiv_pos_site_id
 _symmetry_equiv_pos_as_xyz
  1  'x, y, z'
loop_
 _atom_site_type_symbol
 _atom_site_label
 _atom_site_symmetry_multiplicity
 _atom_site_fract_x
 _atom_site_fract_y
 _atom_site_fract_z
 _atom_site_occupancy
  In  In0  1  0.01151415  0.17549467  0.12470009  1
  In  In1  1  -0.00159430  0.16702478  0.62565164  1
  In  In2  1  0.00748569  0.47847876  0.13086197  1
  In  In3  1  -0.01146671  0.49122088  0.61829086  1
  In  In4  1  -0.00620814  0.84872249  0.12405424  1
  In  In5  1  0.00477765  0.84190157  0.62054573  1
  In  In6  1  0.32926963  0.18616166  0.12697831  1
  In  In7  1  0.32377160  0.17291063  0.62003040  1
  In  In8  1  0.32712457  0.49386306  0.10728295  1
  In  In9  1  0.33705817  0.51307623  0.62455674  1
  In  In10  1  0.35003596  0.81341637  0.12169186  1
  In  In11  1  0.32200167  0.82222988  0.61742302  1
  In  In12  1  0.67654369  0.16462272  0.14238467  1
  In  In13  1  0.68293293  0.16800046  0.61943242  1
  In  In14  1  0.66904248  0.50680540  0.13622839  1
  In  In15  1  0.67733914  0.49523230  0.62951729  1
  In  In16  1  0.66202419  0.83137010  0.12306366  1
  In  In17  1  0.65980747  0.82624207  0.61776554  1
  In  In18  1  0.16320559  0.01182136  0.38946324  1
  In  In19  1  0.16620637  0.01267571  0.87483413  1
  In  In20  1  0.15798143  0.33455222  0.37357454  1
  In  In21  1  0.15612005  0.33797964  0.88075542  1
  In  In22  1  0.16854871  0.66557321  0.38275244  1
  In  In23  1  0.16550373  0.65094582  0.87436109  1
  In  In24  1  0.50795913  -0.01418031  0.37841172  1
  In  In25  1  0.49361967  -0.00248641  0.88124148  1
  In  In26  1  0.50695745  0.34225817  0.36558249  1
  In  In27  1  0.51589868  0.33781425  0.87773917  1
  In  In28  1  0.51075678  0.66776550  0.37224420  1
  In  In29  1  0.50286371  0.66403054  0.87411445  1
  In  In30  1  0.82096048  0.00878935  0.37884248  1
  In  In31  1  0.83401859  -0.01332639  0.87253591  1
  In  In32  1  0.84045950  0.33587838  0.37007088  1
  In  In33  1  0.83410287  0.33567539  0.86962923  1
  In  In34  1  0.82667276  0.67581455  0.38466333  1
  In  In35  1  0.83220496  0.68224854  0.87472272  1
  In  In36  1  -0.01571169  0.18293397  0.37767560  1
  In  In37  1  0.00699961  0.17682551  0.86587919  1
  In  In38  1  0.00977437  0.48876951  0.38115560  1
  In  In39  1  0.01175344  0.49558550  0.87846543  1
  In  In40  1  -0.00100496  0.83376134  0.38481159  1
  In  In41  1  -0.01647914  0.83147439  0.87285468  1
  In  In42  1  0.31805841  0.16800646  0.37654567  1
  In  In43  1  0.32058689  0.15595129  0.87924928  1
  In  In44  1  0.32531442  0.48770554  0.37074983  1
  In  In45  1  0.32827893  0.51288929  0.88373180  1
  In  In46  1  0.33558404  0.83962648  0.39166714  1
  In  In47  1  0.34878235  0.82922281  0.87805823  1
  In  In48  1  0.69286772  0.18186146  0.35576342  1
  In  In49  1  0.65933220  0.17253087  0.87630760  1
  In  In50  1  0.68354926  0.51309673  0.35721923  1
  In  In51  1  0.66001561  0.49635905  0.87451760  1
  In  In52  1  0.66582268  0.83174640  0.37510008  1
  In  In53  1  0.68041578  0.82810493  0.88088163  1
  In  In54  1  0.15116694  0.00614321  0.12479512  1
  In  In55  1  0.15893057  -0.01281533  0.61751599  1
  In  In56  1  0.17069756  0.34282106  0.12228604  1
  In  In57  1  0.15267058  0.32183184  0.61485490  1
  In  In58  1  0.17491061  0.65003017  0.12173119  1
  In  In59  1  0.16988637  0.67060584  0.62165111  1
  In  In60  1  0.51369258  -0.00429774  0.12262724  1
  In  In61  1  0.51362871  -0.00695723  0.62300623  1
  In  In62  1  0.48974711  0.33770519  0.12974990  1
  In  In63  1  0.50715924  0.34902951  0.62342479  1
  In  In64  1  0.50796035  0.67385484  0.11129471  1
  In  In65  1  0.49526672  0.67258132  0.63287711  1
  In  In66  1  0.82853234  -0.00939610  0.12573711  1
  In  In67  1  0.84269766  0.01284191  0.61541438  1
  In  In68  1  0.84411372  0.32909075  0.14827959  1
  In  In69  1  0.83730050  0.33399976  0.62368228  1
  In  In70  1  0.81583907  0.65960235  0.12774557  1
  In  In71  1  0.82603967  0.65611848  0.61770902  1
  In  In72  1  -0.00183007  0.66213408  0.75035862  1
  In  In73  1  0.33752992  0.65995316  0.24863022  1
  In  In74  1  0.50093677  0.50179102  0.49311931  1
  In  In75  1  0.67127915  -0.00004467  0.75113568  1
  In  In76  1  -0.00855564  0.65354068  0.24550054  1
  In  In77  1  0.83721208  0.16590473  0.01353379  1
  In  In78  1  0.33303538  0.33968845  0.75057510  1
  In  In79  1  0.16637038  0.83363837  0.00267678  1
  In  In80  1  0.49638517  0.16865970  0.00185133  1
  In  In81  1  0.83608059  0.49665269  0.00818463  1
  In  In82  1  0.50061151  0.15906336  0.49422440  1
  In  In83  1  -0.01128251  0.01004677  0.25913811  1
  In  In84  1  0.33506237  -0.00433547  0.75130289  1
  In  In85  1  0.33181956  0.00178940  0.25687002  1
  Cu  Cu86  1  0.83173626  0.83431646  0.74645062  1
  Cu  Cu87  1  0.83025998  0.49910642  0.74691926  1
  Cu  Cu88  1  0.49848435  0.16395922  0.24599107  1
  Cu  Cu89  1  0.66265683  0.66704843  0.49807162  1
  Cu  Cu90  1  0.67051586  -0.00268583  0.49608803  1
  Cu  Cu91  1  0.32992155  -0.00268712  0.00268407  1
  Cu  Cu92  1  0.66737187  0.33368320  0.00709852  1
  Cu  Cu93  1  0.50337273  0.82589372  0.75040637  1
  Cu  Cu94  1  0.16863292  0.83031762  0.74394912  1
  Cu  Cu95  1  0.32991165  0.66742525  0.50236299  1
  Cu  Cu96  1  0.16491068  0.18237738  0.25087757  1
  Cu  Cu97  1  0.00058290  -0.00067168  0.50047815  1
  Cu  Cu98  1  0.16620587  0.82799839  0.25746703  1
  Cu  Cu99  1  0.50586136  0.17883368  0.75187342  1
  Cu  Cu100  1  0.16772592  0.49417073  0.75172555  1
  Cu  Cu101  1  0.67858329  0.33045493  0.49591477  1
  Cu  Cu102  1  0.50786684  0.50438136  0.75074293  1
  Cu  Cu103  1  -0.00740604  0.00437021  -0.00103896  1
  Cu  Cu104  1  0.15754274  0.16550455  0.74715296  1
  Cu  Cu105  1  -0.00067204  0.66476593  0.50224207  1
  Cu  Cu106  1  0.83660617  0.17170656  0.74299721  1
  Cu  Cu107  1  0.32813869  0.33619188  0.00039627  1
  Cu  Cu108  1  0.66638081  0.66698911  0.00035182  1
  Cu  Cu109  1  0.32247431  0.33082544  0.49343734  1
  Cu  Cu110  1  0.49935030  0.50005759  0.24524758  1
  Cu  Cu111  1  -0.00440032  0.66749404  -0.00148524  1
  Cu  Cu112  1  -0.00207179  0.33019846  0.49861429  1
  Cu  Cu113  1  0.50669779  0.82846203  0.24893898  1
  Cu  Cu114  1  0.82022282  0.82780214  0.25117005  1
  Se  Se115  1  0.07836542  0.08648848  0.05071438  1
  Se  Se116  1  0.08139140  0.08344359  0.55624352  1
  Se  Se117  1  0.09091064  0.42603508  0.05132920  1
  Se  Se118  1  0.08085214  0.41806848  0.55028255  1
  Se  Se119  1  0.07492561  0.74488421  0.06462113  1
  Se  Se120  1  0.08242777  0.75001813  0.55525521  1
  Se  Se121  1  0.40662483  0.07969889  0.06549524  1
  Se  Se122  1  0.41569605  0.07867309  0.56428170  1
  Se  Se123  1  0.42367055  0.41199861  0.04781423  1
  Se  Se124  1  0.40593891  0.41048594  0.55273737  1
  Se  Se125  1  0.41161765  0.73789325  0.04192339  1
  Se  Se126  1  0.41927512  0.74543186  0.55516519  1
  Se  Se127  1  0.73589499  0.07679502  0.06070643  1
  Se  Se128  1  0.75335128  0.08647897  0.54515401  1
  Se  Se129  1  0.75034855  0.40539907  0.07007871  1
  Se  Se130  1  0.75262036  0.41711886  0.55434511  1
  Se  Se131  1  0.75030672  0.74876510  0.05497614  1
  Se  Se132  1  0.74941397  0.74792580  0.55138716  1
  Se  Se133  1  0.24545948  0.25029063  0.05123208  1
  Se  Se134  1  0.24219767  0.24509192  0.54653062  1
  Se  Se135  1  0.26474776  0.59951901  0.04565020  1
  Se  Se136  1  0.24777691  0.58086643  0.55315207  1
  Se  Se137  1  0.25444576  0.91987981  0.06928358  1
  Se  Se138  1  0.25903507  0.92272103  0.55430523  1
  Se  Se139  1  0.59003378  0.24865114  0.06632973  1
  Se  Se140  1  0.58811315  0.25744057  0.55434434  1
  Se  Se141  1  0.59362647  0.57663832  0.05593183  1
  Se  Se142  1  0.58531167  0.58562836  0.56141791  1
  Se  Se143  1  0.57081518  0.90152828  0.05231685  1
  Se  Se144  1  0.58487317  0.91463902  0.54714727  1
  Se  Se145  1  0.92409810  0.26841866  0.06179880  1
  Se  Se146  1  0.91547287  0.24714055  0.55453798  1
  Se  Se147  1  0.92501360  0.58925342  0.06675124  1
  Se  Se148  1  0.91229451  0.57848599  0.54919579  1
  Se  Se149  1  0.91062150  0.91836064  0.04980785  1
  Se  Se150  1  0.91454989  0.91531328  0.55139719  1
  Se  Se151  1  0.08283598  0.24720142  0.44516330  1
  Se  Se152  1  0.09096993  0.23679035  0.94376629  1
  Se  Se153  1  0.08353068  0.58243953  0.44842529  1
  Se  Se154  1  0.08193523  0.58345543  0.95026407  1
  Se  Se155  1  0.08673294  0.91464709  0.45022105  1
  Se  Se156  1  0.07452472  0.92135398  0.93989862  1
  Se  Se157  1  0.41630548  0.26045974  0.43785686  1
  Se  Se158  1  0.40762237  0.25681147  0.93657193  1
  Se  Se159  1  0.40584298  0.59096966  0.43513314  1
  Se  Se160  1  0.43538653  0.57060975  0.94355000  1
  Se  Se161  1  0.42142088  0.92402402  0.45289123  1
  Se  Se162  1  0.41625842  0.91584351  0.95252540  1
  Se  Se163  1  0.75953436  0.24742789  0.44103483  1
  Se  Se164  1  0.74772028  0.25492846  0.94663067  1
  Se  Se165  1  0.74332280  0.58003135  0.44533666  1
  Se  Se166  1  0.75109420  0.58652340  0.94186763  1
  Se  Se167  1  0.75309040  0.91044117  0.44454354  1
  Se  Se168  1  0.74727811  0.92543594  0.94634244  1
  Se  Se169  1  0.26214872  0.07974610  0.45226338  1
  Se  Se170  1  0.24355525  0.08100542  0.95449785  1
  Se  Se171  1  0.24056038  0.41921831  0.44471090  1
  Se  Se172  1  0.24665450  0.41898878  0.94410172  1
  Se  Se173  1  0.24575737  0.75292211  0.45120102  1
  Se  Se174  1  0.25015882  0.74580996  0.93822718  1
  Se  Se175  1  0.59991350  0.08411858  0.43288731  1
  Se  Se176  1  0.59058081  0.07665025  0.94581631  1
  Se  Se177  1  0.59734294  0.41428033  0.43847027  1
  Se  Se178  1  0.58793148  0.41831192  0.95298781  1
  Se  Se179  1  0.57946140  0.75184039  0.44639945  1
  Se  Se180  1  0.58673848  0.74914257  0.94274532  1
  Se  Se181  1  0.92034723  0.07945835  0.44165506  1
  Se  Se182  1  0.91636439  0.08591551  0.93711216  1
  Se  Se183  1  0.91441826  0.41530898  0.44682029  1
  Se  Se184  1  0.92286301  0.40798794  0.94420551  1
  Se  Se185  1  0.91542842  0.75209496  0.45264831  1
  Se  Se186  1  0.91249693  0.75426113  0.95075700  1
  Se  Se187  1  0.25258745  0.25855252  0.30529987  1
  Se  Se188  1  0.24412665  0.24282595  0.80635198  1
  Se  Se189  1  0.23876536  0.57770582  0.30568964  1
  Se  Se190  1  0.25140826  0.57961104  0.80173630  1
  Se  Se191  1  0.24074183  0.91196751  0.31645807  1
  Se  Se192  1  0.24396524  0.90704081  0.81266865  1
  Se  Se193  1  0.58018125  0.24615181  0.30196186  1
  Se  Se194  1  0.59209635  0.25911109  0.80241607  1
  Se  Se195  1  0.58094236  0.58598864  0.29786028  1
  Se  Se196  1  0.59180859  0.58793764  0.80352179  1
  Se  Se197  1  0.58673017  0.91463641  0.30189847  1
  Se  Se198  1  0.57686659  0.91297102  0.81019935  1
  Se  Se199  1  0.91715855  0.25235645  0.29696686  1
  Se  Se200  1  0.91690816  0.25497244  0.80045949  1
  Se  Se201  1  0.91323694  0.58089915  0.32196230  1
  Se  Se202  1  0.90844343  0.57490687  0.81401860  1
  Se  Se203  1  0.90663450  0.90484412  0.31047502  1
  Se  Se204  1  0.91770663  0.91707531  0.79700770  1
  Se  Se205  1  0.09051800  0.09558960  0.31113153  1
  Se  Se206  1  0.07898618  0.07790310  0.80086157  1
  Se  Se207  1  0.07574944  0.41173652  0.30183646  1
  Se  Se208  1  0.08129880  0.41298101  0.80241071  1
  Se  Se209  1  0.07997943  0.74775180  0.31016126  1
  Se  Se210  1  0.08857105  0.75477223  0.81011034  1
  Se  Se211  1  0.42438797  0.08982200  0.31525254  1
  Se  Se212  1  0.42544287  0.09506611  0.80800557  1
  Se  Se213  1  0.41554850  0.41950178  0.30005344  1
  Se  Se214  1  0.42597463  0.42385911  0.81130133  1
  Se  Se215  1  0.41642192  0.76010395  0.31044395  1
  Se  Se216  1  0.41705691  0.74553708  0.80341979  1
  Se  Se217  1  0.75295717  0.07405013  0.29552478  1
  Se  Se218  1  0.75902497  0.09523040  0.80974938  1
  Se  Se219  1  0.73228253  0.39481048  0.30590081  1
  Se  Se220  1  0.74759798  0.41819501  0.80531872  1
  Se  Se221  1  0.74355272  0.74186185  0.30645938  1
  Se  Se222  1  0.74846991  0.75191323  0.79992699  1
  Se  Se223  1  0.23988030  0.09028702  0.19418310  1
  Se  Se224  1  0.24440002  0.08605735  0.69190155  1
  Se  Se225  1  0.26430968  0.41794394  0.18761033  1
  Se  Se226  1  0.24290462  0.41894682  0.68355706  1
  Se  Se227  1  0.24298321  0.75540079  0.19157102  1
  Se  Se228  1  0.25285133  0.74426003  0.69655080  1
  Se  Se229  1  0.58236884  0.07691484  0.19851187  1
  Se  Se230  1  0.58136306  0.09430475  0.69153388  1
  Se  Se231  1  0.58282326  0.41370765  0.19511251  1
  Se  Se232  1  0.58841138  0.41715933  0.69863048  1
  Se  Se233  1  0.58269484  0.74288763  0.19220543  1
  Se  Se234  1  0.59125494  0.74791938  0.69680330  1
  Se  Se235  1  0.91136024  0.09159950  0.18541980  1
  Se  Se236  1  0.91750467  0.08115386  0.69567189  1
  Se  Se237  1  0.89790922  0.44827992  0.19917646  1
  Se  Se238  1  0.91672532  0.41641776  0.69690890  1
  Se  Se239  1  0.90954177  0.75865078  0.19042738  1
  Se  Se240  1  0.91262903  0.75173762  0.68695284  1
  Se  Se241  1  0.08431749  0.26297635  0.19436050  1
  Se  Se242  1  0.07853572  0.25401611  0.69565630  1
  Se  Se243  1  0.09679999  0.57037131  0.19598086  1
  Se  Se244  1  0.08691101  0.57386916  0.68889397  1
  Se  Se245  1  0.08546357  0.91386657  0.20159109  1
  Se  Se246  1  0.08356076  0.91639415  0.69706961  1
  Se  Se247  1  0.41285641  0.25275485  0.20169127  1
  Se  Se248  1  0.42332843  0.24886629  0.68767979  1
  Se  Se249  1  0.42424835  0.57957551  0.18135799  1
  Se  Se250  1  0.41720207  0.58310402  0.70026115  1
  Se  Se251  1  0.41872422  0.90899512  0.19405442  1
  Se  Se252  1  0.42442294  0.90741597  0.68964138  1
  Se  Se253  1  0.74649049  0.25642849  0.20889368  1
  Se  Se254  1  0.74910878  0.25386935  0.69347974  1
  Se  Se255  1  0.75867504  0.57776516  0.20683084  1
  Se  Se256  1  0.74946973  0.58817764  0.69799204  1
  Se  Se257  1  0.74340164  0.91371233  0.19518338  1
  Se  Se258  1  0.75505886  0.91543020  0.68342002  1
