# generated using pymatgen
data_In86Cu29Se144
_symmetry_space_group_name_H-M   'P 1'
_cell_length_a   17.56986328
_cell_length_b   17.56778955
_cell_length_c   23.42730599
_cell_angle_alpha   90.00023979
_cell_angle_beta   90.02188592
_cell_angle_gamma   90.01127651
_symmetry_Int_Tables_number   1
_chemical_formula_structural   In86Cu29Se144
_chemical_formula_sum   'In86 Cu29 Se144'
_cell_volume   7231.15735477
_cell_formula_units_Z   1
loop_
 _symmetry_equiv_pos_site_id
 _symmetry_equiv_pos_as_xyz
  1  'x, y, z'
loop_
 _atom_site_type_symbol
 _atom_site_label
 _atom_site_symmetry_multiplicity
 _atom_site_fract_x
 _atom_site_fract_y
 _atom_site_fract_z
 _atom_site_occupancy
  In  In0  1  0.00463355  0.15862652  0.13271080  1
  In  In1  1  -0.00575808  0.16494886  0.63046563  1
  In  In2  1  -0.01393639  0.50010658  0.12466528  1
  In  In3  1  -0.01024748  0.51240396  0.63869339  1
  In  In4  1  0.00904323  0.84636715  0.11391906  1
  In  In5  1  -0.01351808  0.85029969  0.63900470  1
  In  In6  1  0.31480730  0.13723093  0.09700008  1
  In  In7  1  0.33468454  0.16438363  0.60865261  1
  In  In8  1  0.34257705  0.51035593  0.12926018  1
  In  In9  1  0.33209964  0.48764268  0.62068194  1
  In  In10  1  0.32554849  0.82841391  0.11802637  1
  In  In11  1  0.32977178  0.83756203  0.62841411  1
  In  In12  1  0.66282545  0.17534979  0.12758185  1
  In  In13  1  0.67012766  0.16892176  0.62872820  1
  In  In14  1  0.66760896  0.48710470  0.12522656  1
  In  In15  1  0.66789909  0.49886233  0.62479449  1
  In  In16  1  0.66777528  0.83348708  0.11425808  1
  In  In17  1  0.67701995  0.81998736  0.63607945  1
  In  In18  1  0.17164705  0.01759098  0.37778960  1
  In  In19  1  0.16375585  0.00579708  0.88475154  1
  In  In20  1  0.14714754  0.32897055  0.37320212  1
  In  In21  1  0.14610373  0.32478169  0.87337784  1
  In  In22  1  0.16993086  0.66103518  0.36877143  1
  In  In23  1  0.17028481  0.67851926  0.87787649  1
  In  In24  1  0.50290513  0.00233668  0.37732736  1
  In  In25  1  0.51183567  -0.00574846  0.88058973  1
  In  In26  1  0.51362631  0.32452801  0.37693295  1
  In  In27  1  0.50260695  0.32386868  0.87292426  1
  In  In28  1  0.48830386  0.66743543  0.37432748  1
  In  In29  1  0.50846746  0.66860771  0.87737391  1
  In  In30  1  0.84243650  -0.00497419  0.38283935  1
  In  In31  1  0.82171180  0.00102206  0.85496749  1
  In  In32  1  0.83305691  0.33066493  0.38065256  1
  In  In33  1  0.83905278  0.33831051  0.86147061  1
  In  In34  1  0.83002068  0.66743911  0.38586455  1
  In  In35  1  0.83331241  0.66498468  0.87503818  1
  In  In36  1  -0.00323193  0.16584744  0.38197087  1
  In  In37  1  0.00031455  0.16974942  0.86398267  1
  In  In38  1  0.00044336  0.48870902  0.37855715  1
  In  In39  1  -0.00965263  0.48254934  0.86350400  1
  In  In40  1  -0.01072011  0.83204181  0.37446258  1
  In  In41  1  -0.00144482  0.83306385  0.87505049  1
  In  In42  1  0.33258867  0.15812867  0.38660694  1
  In  In43  1  0.34028731  0.15317919  0.89055029  1
  In  In44  1  0.33466952  0.51433000  0.37353352  1
  In  In45  1  0.33860494  0.50768198  0.87996923  1
  In  In46  1  0.34257471  0.82986313  0.36424766  1
  In  In47  1  0.33503121  0.83994756  0.90381077  1
  In  In48  1  0.65911433  0.17477831  0.38010565  1
  In  In49  1  0.66871751  0.16505645  0.85662583  1
  In  In50  1  0.68110441  0.48933653  0.38577747  1
  In  In51  1  0.67502532  0.51403404  0.86499774  1
  In  In52  1  0.67196964  0.84354264  0.37478307  1
  In  In53  1  0.67165561  0.83308513  0.87373104  1
  In  In54  1  0.15058569  -0.01170301  0.12044079  1
  In  In55  1  0.15414727  0.00284272  0.62695952  1
  In  In56  1  0.16305645  0.31648301  0.12383623  1
  In  In57  1  0.16364431  0.32242413  0.62783877  1
  In  In58  1  0.17501557  0.68599674  0.11934589  1
  In  In59  1  0.14639710  0.65661843  0.62827689  1
  In  In60  1  0.48180412  -0.01292203  0.10025708  1
  In  In61  1  0.50603718  0.01612848  0.61900586  1
  In  In62  1  0.50697064  0.32878896  0.12793780  1
  In  In63  1  0.50515659  0.34021924  0.61716705  1
  In  In64  1  0.48762083  0.67825018  0.12702841  1
  In  In65  1  0.51430243  0.66809804  0.62637145  1
  In  In66  1  0.84655708  0.00282972  0.12462449  1
  In  In67  1  0.83304735  0.00224365  0.62840535  1
  In  In68  1  0.82638306  0.33630655  0.13091829  1
  In  In69  1  0.82738957  0.32814894  0.63015088  1
  In  In70  1  0.83077846  0.66478349  0.11380292  1
  In  In71  1  0.83429947  0.66642172  0.62601632  1
  In  In72  1  0.32750943  0.32959654  0.74854595  1
  In  In73  1  0.33176946  -0.00212556  0.75891422  1
  In  In74  1  0.16575576  0.84204336  0.50197181  1
  In  In75  1  0.15960224  0.49845822  0.00011196  1
  In  In76  1  0.66448122  0.66185851  0.24403084  1
  In  In77  1  0.33652847  0.33086649  0.24632037  1
  In  In78  1  0.16498269  0.49440783  0.49838669  1
  In  In79  1  0.33645535  0.66827578  0.76271389  1
  In  In80  1  0.83106427  0.16302097  -0.00713964  1
  In  In81  1  0.66248540  0.00636203  0.25457618  1
  In  In82  1  0.32507798  -0.00710674  0.23906491  1
  In  In83  1  0.00431817  0.66986850  0.24566269  1
  In  In84  1  0.50454206  0.83676889  0.49185390  1
  In  In85  1  0.50589371  0.50512518  0.00356986  1
  Cu  Cu86  1  0.67306265  -0.00061486  0.50291799  1
  Cu  Cu87  1  0.49492897  0.16427174  0.24489386  1
  Cu  Cu88  1  0.83440838  0.82742830  0.75165656  1
  Cu  Cu89  1  0.33974695  0.33233473  0.49550420  1
  Cu  Cu90  1  -0.00348129  -0.00444302  -0.00344800  1
  Cu  Cu91  1  0.16786538  0.50279765  0.25074124  1
  Cu  Cu92  1  0.50861678  0.49751970  0.24942565  1
  Cu  Cu93  1  0.83900440  0.48942325  0.25763048  1
  Cu  Cu94  1  0.83715952  0.83614484  0.24778228  1
  Cu  Cu95  1  0.33682864  0.66769037  0.49824101  1
  Cu  Cu96  1  0.50626317  0.17038062  0.74516121  1
  Cu  Cu97  1  0.66951744  0.00397864  -0.01106913  1
  Cu  Cu98  1  -0.00868760  0.67194765  0.50549196  1
  Cu  Cu99  1  0.66968519  0.67178179  -0.00571611  1
  Cu  Cu100  1  0.83898009  0.17231461  0.25402934  1
  Cu  Cu101  1  0.82568263  0.50243018  0.74650569  1
  Cu  Cu102  1  0.67424685  0.33954466  -0.00066942  1
  Cu  Cu103  1  0.32915946  0.33119828  -0.00050808  1
  Cu  Cu104  1  -0.00336740  0.66509693  -0.00444008  1
  Cu  Cu105  1  0.16599779  0.16364032  0.75238735  1
  Cu  Cu106  1  -0.01116097  0.32494781  -0.00806686  1
  Cu  Cu107  1  0.66811952  0.32914616  0.50476623  1
  Cu  Cu108  1  0.16604902  0.82740679  0.75574797  1
  Cu  Cu109  1  0.15634177  0.17036683  0.25374729  1
  Cu  Cu110  1  -0.00536650  0.00599257  0.50829223  1
  Cu  Cu111  1  -0.00706125  0.33192984  0.50478814  1
  Cu  Cu112  1  0.50325354  0.49973429  0.74432593  1
  Cu  Cu113  1  0.50710834  0.84069455  0.75506904  1
  Cu  Cu114  1  0.67057889  0.66107576  0.50755673  1
  Se  Se115  1  0.07438261  0.08118303  0.05384158  1
  Se  Se116  1  0.08239130  0.08971493  0.55633687  1
  Se  Se117  1  0.06922051  0.40346579  0.05681774  1
  Se  Se118  1  0.07444744  0.41459932  0.56395360  1
  Se  Se119  1  0.07981707  0.74821754  0.04929396  1
  Se  Se120  1  0.07357913  0.75382426  0.56243929  1
  Se  Se121  1  0.44726079  0.11540511  0.05474905  1
  Se  Se122  1  0.41972063  0.08035814  0.54592640  1
  Se  Se123  1  0.41010943  0.41040206  0.05911317  1
  Se  Se124  1  0.41847768  0.42007146  0.54811939  1
  Se  Se125  1  0.42065691  0.75759403  0.05097919  1
  Se  Se126  1  0.41405273  0.74958447  0.55957597  1
  Se  Se127  1  0.74194864  0.07800371  0.05978482  1
  Se  Se128  1  0.75119489  0.08457804  0.55831189  1
  Se  Se129  1  0.75783140  0.41985734  0.05350843  1
  Se  Se130  1  0.75091945  0.41302956  0.55818425  1
  Se  Se131  1  0.75518918  0.75507006  0.04702950  1
  Se  Se132  1  0.75182139  0.75108709  0.55588000  1
  Se  Se133  1  0.24074360  0.24708678  0.04663019  1
  Se  Se134  1  0.25038091  0.25916384  0.55170459  1
  Se  Se135  1  0.25613655  0.58600918  0.05641424  1
  Se  Se136  1  0.25174312  0.59244793  0.55864279  1
  Se  Se137  1  0.26949111  0.94519775  0.06449746  1
  Se  Se138  1  0.25854547  0.93141975  0.56028604  1
  Se  Se139  1  0.58967806  0.25736690  0.05242536  1
  Se  Se140  1  0.58359031  0.24437033  0.55679201  1
  Se  Se141  1  0.59519925  0.59610555  0.06445742  1
  Se  Se142  1  0.58041969  0.57920685  0.55428046  1
  Se  Se143  1  0.58958857  0.91809016  0.04455579  1
  Se  Se144  1  0.59277451  0.91482409  0.56154875  1
  Se  Se145  1  0.91560805  0.24822305  0.06096587  1
  Se  Se146  1  0.91307691  0.24768927  0.56008583  1
  Se  Se147  1  0.91502800  0.57909880  0.04834246  1
  Se  Se148  1  0.91616118  0.57985743  0.55696456  1
  Se  Se149  1  0.90914100  0.91530737  0.04912015  1
  Se  Se150  1  0.91347426  0.91528213  0.55662512  1
  Se  Se151  1  0.08041917  0.25104922  0.45147934  1
  Se  Se152  1  0.07598591  0.23895717  0.94604034  1
  Se  Se153  1  0.07513487  0.59510654  0.44387326  1
  Se  Se154  1  0.07281822  0.58225848  0.93405455  1
  Se  Se155  1  0.07199849  0.92739980  0.44217355  1
  Se  Se156  1  0.08392789  0.91139596  0.94677016  1
  Se  Se157  1  0.42273556  0.24724861  0.44365002  1
  Se  Se158  1  0.41900700  0.25424569  0.94701009  1
  Se  Se159  1  0.42012610  0.58122856  0.44922346  1
  Se  Se160  1  0.41118150  0.59824814  0.94994052  1
  Se  Se161  1  0.40263432  0.92367912  0.44065189  1
  Se  Se162  1  0.41662890  0.94016414  0.95386351  1
  Se  Se163  1  0.75048089  0.24632637  0.44911083  1
  Se  Se164  1  0.74550977  0.25743912  0.93430514  1
  Se  Se165  1  0.75628144  0.57852155  0.45423516  1
  Se  Se166  1  0.74985349  0.58112804  0.94580069  1
  Se  Se167  1  0.75334041  0.91336815  0.44922176  1
  Se  Se168  1  0.75594039  0.92448942  0.93652565  1
  Se  Se169  1  0.24293598  0.08888464  0.45597042  1
  Se  Se170  1  0.25114377  0.07804660  0.95569326  1
  Se  Se171  1  0.25574336  0.40842010  0.43338352  1
  Se  Se172  1  0.25153639  0.40906503  0.93718487  1
  Se  Se173  1  0.25430633  0.74716964  0.44073512  1
  Se  Se174  1  0.24744119  0.74537507  0.95546129  1
  Se  Se175  1  0.58680598  0.07862059  0.44684269  1
  Se  Se176  1  0.59381857  0.09464971  0.93625034  1
  Se  Se177  1  0.58561668  0.41243128  0.44849077  1
  Se  Se178  1  0.59026021  0.41710976  0.93808932  1
  Se  Se179  1  0.59647368  0.73864630  0.43857368  1
  Se  Se180  1  0.58441418  0.75642994  0.94536248  1
  Se  Se181  1  0.91074251  0.08789495  0.45249640  1
  Se  Se182  1  0.91916712  0.07341433  0.93279035  1
  Se  Se183  1  0.91414762  0.41834492  0.45003217  1
  Se  Se184  1  0.90986877  0.41391796  0.94159656  1
  Se  Se185  1  0.91239369  0.75655398  0.44976977  1
  Se  Se186  1  0.91346411  0.75087792  0.94387896  1
  Se  Se187  1  0.24694848  0.24372837  0.31115739  1
  Se  Se188  1  0.25076602  0.23578515  0.81552798  1
  Se  Se189  1  0.25510610  0.58698148  0.29739870  1
  Se  Se190  1  0.24056909  0.57303854  0.81108968  1
  Se  Se191  1  0.23909939  0.91394428  0.31058020  1
  Se  Se192  1  0.24765965  0.90320894  0.81834382  1
  Se  Se193  1  0.58155077  0.24288917  0.29944094  1
  Se  Se194  1  0.58563010  0.25989629  0.79587994  1
  Se  Se195  1  0.58557096  0.57527830  0.31460000  1
  Se  Se196  1  0.57767214  0.58783295  0.80098780  1
  Se  Se197  1  0.57053310  0.90589042  0.30586383  1
  Se  Se198  1  0.59331420  0.92380651  0.80475337  1
  Se  Se199  1  0.92061520  0.25344590  0.31090116  1
  Se  Se200  1  0.91470304  0.24659103  0.79689326  1
  Se  Se201  1  0.91352661  0.58261360  0.31120486  1
  Se  Se202  1  0.91143845  0.57978993  0.80368054  1
  Se  Se203  1  0.91566757  0.91960643  0.30366812  1
  Se  Se204  1  0.91842959  0.91359466  0.80196177  1
  Se  Se205  1  0.07822571  0.08445869  0.30873303  1
  Se  Se206  1  0.08737993  0.07557607  0.80568667  1
  Se  Se207  1  0.08193236  0.42093936  0.30130701  1
  Se  Se208  1  0.08467514  0.40939350  0.79838889  1
  Se  Se209  1  0.09068704  0.76004040  0.30802780  1
  Se  Se210  1  0.07961033  0.74525052  0.80619853  1
  Se  Se211  1  0.41493691  0.08463135  0.30524179  1
  Se  Se212  1  0.42820040  0.09226689  0.80900225  1
  Se  Se213  1  0.42350672  0.42027843  0.30993607  1
  Se  Se214  1  0.42088592  0.42403355  0.80657310  1
  Se  Se215  1  0.41891202  0.74417047  0.29753071  1
  Se  Se216  1  0.42042819  0.76917478  0.81772900  1
  Se  Se217  1  0.75765752  0.09035811  0.31441155  1
  Se  Se218  1  0.77016960  0.10851371  0.78805767  1
  Se  Se219  1  0.74912923  0.41015869  0.30764488  1
  Se  Se220  1  0.74281900  0.41672874  0.79902680  1
  Se  Se221  1  0.75726838  0.75327618  0.30570206  1
  Se  Se222  1  0.74869036  0.74521294  0.80465415  1
  Se  Se223  1  0.23664735  0.09422796  0.18916716  1
  Se  Se224  1  0.25192177  0.08989030  0.69150245  1
  Se  Se225  1  0.24320135  0.42154481  0.18669559  1
  Se  Se226  1  0.23781240  0.42522216  0.69356397  1
  Se  Se227  1  0.25017186  0.75631647  0.19607723  1
  Se  Se228  1  0.24423336  0.74951009  0.69302326  1
  Se  Se229  1  0.57150397  0.07987149  0.18465198  1
  Se  Se230  1  0.58715128  0.08026613  0.69687724  1
  Se  Se231  1  0.58826959  0.40988063  0.19879720  1
  Se  Se232  1  0.58401920  0.41314764  0.69331253  1
  Se  Se233  1  0.58132200  0.76317551  0.19173752  1
  Se  Se234  1  0.58208061  0.74842709  0.70340203  1
  Se  Se235  1  0.91598300  0.08210538  0.20172541  1
  Se  Se236  1  0.93959064  0.05681470  0.69376392  1
  Se  Se237  1  0.92025270  0.41160449  0.19812450  1
  Se  Se238  1  0.91032065  0.41561114  0.69730644  1
  Se  Se239  1  0.91080426  0.75422970  0.18460940  1
  Se  Se240  1  0.91910819  0.74455450  0.69791206  1
  Se  Se241  1  0.07576606  0.25522877  0.19994310  1
  Se  Se242  1  0.08199418  0.24689352  0.69996725  1
  Se  Se243  1  0.09239277  0.57944642  0.18330758  1
  Se  Se244  1  0.08344135  0.58084127  0.70705826  1
  Se  Se245  1  0.07632061  0.91419719  0.19659833  1
  Se  Se246  1  0.08962155  0.91646526  0.70215375  1
  Se  Se247  1  0.41051916  0.23534143  0.18150365  1
  Se  Se248  1  0.41834082  0.24352546  0.68622018  1
  Se  Se249  1  0.42563721  0.58484296  0.20074083  1
  Se  Se250  1  0.41558239  0.57982369  0.68959197  1
  Se  Se251  1  0.42675599  0.90989181  0.18714583  1
  Se  Se252  1  0.42558138  0.91578099  0.69288050  1
  Se  Se253  1  0.74973253  0.24739154  0.19928140  1
  Se  Se254  1  0.76291834  0.23247374  0.70237069  1
  Se  Se255  1  0.76401669  0.57145537  0.19294722  1
  Se  Se256  1  0.74406761  0.58831466  0.69353209  1
  Se  Se257  1  0.75173245  0.91561602  0.19092350  1
  Se  Se258  1  0.75249039  0.91509632  0.69886314  1
