# generated using pymatgen
data_In86Cu29Se144
_symmetry_space_group_name_H-M   'P 1'
_cell_length_a   17.64072149
_cell_length_b   17.63934327
_cell_length_c   23.49997561
_cell_angle_alpha   90.01156446
_cell_angle_beta   89.97207412
_cell_angle_gamma   90.00495894
_symmetry_Int_Tables_number   1
_chemical_formula_structural   In86Cu29Se144
_chemical_formula_sum   'In86 Cu29 Se144'
_cell_volume   7312.50380004
_cell_formula_units_Z   1
loop_
 _symmetry_equiv_pos_site_id
 _symmetry_equiv_pos_as_xyz
  1  'x, y, z'
loop_
 _atom_site_type_symbol
 _atom_site_label
 _atom_site_symmetry_multiplicity
 _atom_site_fract_x
 _atom_site_fract_y
 _atom_site_fract_z
 _atom_site_occupancy
  In  In0  1  -0.03042674  0.12070362  0.08104820  1
  In  In1  1  0.00003057  0.17269948  0.62461179  1
  In  In2  1  -0.00888790  0.49077610  0.11066820  1
  In  In3  1  -0.01910587  0.48087881  0.62015322  1
  In  In4  1  -0.00444110  0.85367727  0.11959080  1
  In  In5  1  -0.01112859  0.83166540  0.62147955  1
  In  In6  1  0.32216807  0.16289944  0.12074438  1
  In  In7  1  0.33896214  0.15601626  0.63214373  1
  In  In8  1  0.33494372  0.50910750  0.10361905  1
  In  In9  1  0.33391072  0.50064404  0.62771548  1
  In  In10  1  0.35480443  0.83457969  0.11982410  1
  In  In11  1  0.34197890  0.82323626  0.63410180  1
  In  In12  1  0.66276599  0.16852549  0.12994138  1
  In  In13  1  0.66702609  0.19513436  0.63163233  1
  In  In14  1  0.66516642  0.49559538  0.11996817  1
  In  In15  1  0.65661514  0.50409042  0.62943056  1
  In  In16  1  0.67419948  0.83804114  0.11742170  1
  In  In17  1  0.65331968  0.83404153  0.62444626  1
  In  In18  1  0.16531832  -0.00113403  0.36326204  1
  In  In19  1  0.17367269  -0.00116255  0.87958672  1
  In  In20  1  0.17364638  0.33532679  0.37929489  1
  In  In21  1  0.16920899  0.33100669  0.86821950  1
  In  In22  1  0.16248406  0.65814491  0.37824468  1
  In  In23  1  0.16865350  0.64706388  0.88267041  1
  In  In24  1  0.49869493  0.00219025  0.37510560  1
  In  In25  1  0.49068034  -0.00054718  0.87781359  1
  In  In26  1  0.50756553  0.32677879  0.38901463  1
  In  In27  1  0.51261123  0.34424671  0.86142040  1
  In  In28  1  0.50315913  0.66726036  0.38781968  1
  In  In29  1  0.49719455  0.66142872  0.87530356  1
  In  In30  1  0.83431705  0.00869201  0.36146613  1
  In  In31  1  0.83933822  0.00141771  0.89645733  1
  In  In32  1  0.82777611  0.34432289  0.37677488  1
  In  In33  1  0.83639673  0.32811571  0.87266733  1
  In  In34  1  0.82442836  0.65850278  0.37929915  1
  In  In35  1  0.83094785  0.66611059  0.87878047  1
  In  In36  1  0.00404712  0.16531598  0.36946469  1
  In  In37  1  -0.02063733  0.18441628  0.89081933  1
  In  In38  1  0.00023806  0.49459674  0.38306710  1
  In  In39  1  0.00464683  0.49605407  0.87625517  1
  In  In40  1  -0.00794497  0.83610628  0.36859167  1
  In  In41  1  -0.00499080  0.82334949  0.88945719  1
  In  In42  1  0.33952243  0.16887880  0.37479093  1
  In  In43  1  0.32992826  0.15920608  0.86472857  1
  In  In44  1  0.33664487  0.49962067  0.38391052  1
  In  In45  1  0.33704975  0.50014993  0.87003279  1
  In  In46  1  0.33834944  0.84456355  0.37303258  1
  In  In47  1  0.33972021  0.83925378  0.87094758  1
  In  In48  1  0.66151144  0.16266610  0.36784746  1
  In  In49  1  0.68500104  0.18340435  0.86883295  1
  In  In50  1  0.67130657  0.49633746  0.38378747  1
  In  In51  1  0.66212449  0.49392473  0.87148137  1
  In  In52  1  0.65641743  0.83622425  0.37420376  1
  In  In53  1  0.67659183  0.81710468  0.88443812  1
  In  In54  1  0.16067961  0.00722152  0.13099717  1
  In  In55  1  0.16612097  0.01014217  0.62424785  1
  In  In56  1  0.16913327  0.33099751  0.11405885  1
  In  In57  1  0.15445403  0.34236438  0.63566923  1
  In  In58  1  0.17011152  0.65866375  0.11660675  1
  In  In59  1  0.18245270  0.66384729  0.63340514  1
  In  In60  1  0.51044674  -0.00369494  0.13530521  1
  In  In61  1  0.49382661  -0.00854167  0.61781713  1
  In  In62  1  0.50245311  0.34454735  0.12199837  1
  In  In63  1  0.49385262  0.33380392  0.62669194  1
  In  In64  1  0.50320289  0.66780978  0.11257403  1
  In  In65  1  0.50147639  0.66712165  0.62693306  1
  In  In66  1  0.82123863  0.00045028  0.12652614  1
  In  In67  1  0.83065515  -0.00565669  0.61939382  1
  In  In68  1  0.81937600  0.32225922  0.10885598  1
  In  In69  1  0.79489818  0.37368857  0.68659174  1
  In  In70  1  0.83637555  0.65484667  0.10557591  1
  In  In71  1  0.83565299  0.64555959  0.63756085  1
  In  In72  1  0.00475812  0.32824016  0.24079301  1
  In  In73  1  0.82868355  0.82893720  0.49507476  1
  In  In74  1  0.00719215  0.66086611  0.76216519  1
  In  In75  1  -0.00110281  0.67051836  0.23991143  1
  In  In76  1  0.66400715  0.00373440  0.75834449  1
  In  In77  1  0.50313350  0.17578132  -0.00437028  1
  In  In78  1  0.66715280  0.66968634  0.25109690  1
  In  In79  1  0.00587850  0.00219727  0.75657601  1
  In  In80  1  0.33741717  0.33296142  0.24865312  1
  In  In81  1  0.33344529  0.66700148  0.24018318  1
  In  In82  1  0.16650019  0.83591562  0.00001628  1
  In  In83  1  0.16634527  0.17027343  0.50195264  1
  In  In84  1  0.83359534  0.17312189  0.50202611  1
  In  In85  1  0.17202951  0.82991062  0.49341178  1
  Cu  Cu86  1  0.16809866  0.83854569  0.24613356  1
  Cu  Cu87  1  0.16222106  0.16035555  0.24153024  1
  Cu  Cu88  1  0.83320192  0.84067006  0.24310275  1
  Cu  Cu89  1  0.33948859  0.00021682  -0.00260302  1
  Cu  Cu90  1  0.01307199  0.33729862  -0.00736669  1
  Cu  Cu91  1  0.00621602  0.65597131  0.50480617  1
  Cu  Cu92  1  0.50175234  0.16387275  0.74935034  1
  Cu  Cu93  1  0.83565158  0.16909542  0.23827352  1
  Cu  Cu94  1  0.33876705  -0.00293859  0.50094957  1
  Cu  Cu95  1  -0.00662720  0.34241389  0.50862585  1
  Cu  Cu96  1  0.17118718  0.49638501  0.24418341  1
  Cu  Cu97  1  0.66751401  0.34079351  0.51294938  1
  Cu  Cu98  1  0.82931593  0.83237233  0.75976513  1
  Cu  Cu99  1  0.32704700  0.33949938  0.50645471  1
  Cu  Cu100  1  0.49851972  0.16778213  0.25620634  1
  Cu  Cu101  1  0.50192164  0.82805775  0.75031145  1
  Cu  Cu102  1  0.65845139  0.65805917  -0.00703695  1
  Cu  Cu103  1  0.49495094  0.50396138  0.74876733  1
  Cu  Cu104  1  0.65710469  0.00340442  0.00447301  1
  Cu  Cu105  1  0.33423924  0.33658057  -0.00918925  1
  Cu  Cu106  1  0.50500337  0.49762137  0.24805932  1
  Cu  Cu107  1  0.16863400  0.50140896  0.75093676  1
  Cu  Cu108  1  0.16953754  0.16436663  0.75115480  1
  Cu  Cu109  1  0.17241426  0.83854765  0.75375569  1
  Cu  Cu110  1  0.50070925  0.83686411  0.25152980  1
  Cu  Cu111  1  0.83083000  0.50011848  0.25282368  1
  Cu  Cu112  1  0.67106430  0.66212530  0.50512439  1
  Cu  Cu113  1  0.34057115  0.66481178  0.50906795  1
  Cu  Cu114  1  0.65964532  0.00878992  0.49633948  1
  Se  Se115  1  0.10820525  0.09286965  0.05236918  1
  Se  Se116  1  0.07084523  0.07553933  0.55255563  1
  Se  Se117  1  0.09220650  0.42169234  0.04891218  1
  Se  Se118  1  0.08613743  0.41996057  0.55627982  1
  Se  Se119  1  0.07506121  0.75006920  0.06201394  1
  Se  Se120  1  0.08204727  0.74415987  0.56053141  1
  Se  Se121  1  0.42041754  0.08044508  0.05882901  1
  Se  Se122  1  0.41677514  0.08559336  0.55374811  1
  Se  Se123  1  0.41867376  0.41347507  0.04782441  1
  Se  Se124  1  0.41582563  0.41966514  0.55679793  1
  Se  Se125  1  0.39059031  0.72295873  0.05616668  1
  Se  Se126  1  0.42085267  0.75426477  0.55673095  1
  Se  Se127  1  0.73980403  0.08672654  0.05796115  1
  Se  Se128  1  0.73821348  0.08316135  0.56065761  1
  Se  Se129  1  0.77689132  0.44518211  0.05990630  1
  Se  Se130  1  0.75089738  0.40756945  0.57995521  1
  Se  Se131  1  0.73932098  0.73896628  0.05181566  1
  Se  Se132  1  0.75055057  0.74324743  0.56549662  1
  Se  Se133  1  0.25707997  0.25110850  0.04753218  1
  Se  Se134  1  0.25133385  0.25541859  0.56679197  1
  Se  Se135  1  0.23343089  0.57363559  0.04260481  1
  Se  Se136  1  0.25106632  0.58416212  0.55663998  1
  Se  Se137  1  0.25903463  0.92321192  0.06111329  1
  Se  Se138  1  0.25518329  0.91909146  0.56007979  1
  Se  Se139  1  0.59396543  0.26284518  0.05567827  1
  Se  Se140  1  0.57865670  0.25228158  0.55540791  1
  Se  Se141  1  0.58019391  0.57422202  0.05119466  1
  Se  Se142  1  0.58073136  0.58423096  0.55524025  1
  Se  Se143  1  0.57696042  0.91624792  0.05685170  1
  Se  Se144  1  0.58491017  0.91745316  0.54952958  1
  Se  Se145  1  0.93830084  0.26411646  0.06174055  1
  Se  Se146  1  0.91207620  0.26390136  0.56653737  1
  Se  Se147  1  0.94166925  0.59644934  0.04322425  1
  Se  Se148  1  0.91367024  0.58224830  0.55670140  1
  Se  Se149  1  0.89970721  0.91821528  0.05442485  1
  Se  Se150  1  0.92382004  0.92343951  0.54681122  1
  Se  Se151  1  0.06960320  0.26171387  0.44401376  1
  Se  Se152  1  0.09260964  0.24848571  0.94232486  1
  Se  Se153  1  0.08812599  0.57535414  0.44868420  1
  Se  Se154  1  0.05167627  0.60748684  0.94124634  1
  Se  Se155  1  0.07888492  0.92052830  0.43704401  1
  Se  Se156  1  0.07305315  0.92882977  0.94668540  1
  Se  Se157  1  0.40555816  0.25473509  0.44851925  1
  Se  Se158  1  0.41311355  0.25563943  0.93014201  1
  Se  Se159  1  0.42027409  0.58078576  0.45120154  1
  Se  Se160  1  0.42027582  0.57349027  0.94302193  1
  Se  Se161  1  0.42131941  0.91470307  0.44632786  1
  Se  Se162  1  0.41963711  0.91100516  0.94890971  1
  Se  Se163  1  0.73812842  0.25996148  0.44432915  1
  Se  Se164  1  0.76139404  0.24674537  0.94778456  1
  Se  Se165  1  0.75455248  0.57766077  0.45352544  1
  Se  Se166  1  0.74554566  0.57771289  0.94148574  1
  Se  Se167  1  0.74506382  0.93049190  0.43738293  1
  Se  Se168  1  0.73976959  0.91975059  0.95001792  1
  Se  Se169  1  0.25238250  0.07434338  0.44148806  1
  Se  Se170  1  0.25841105  0.08422216  0.94484901  1
  Se  Se171  1  0.24661578  0.42048176  0.44922025  1
  Se  Se172  1  0.24931752  0.41684853  0.93674373  1
  Se  Se173  1  0.26647170  0.73734236  0.43780998  1
  Se  Se174  1  0.25329131  0.74904218  0.93762456  1
  Se  Se175  1  0.57817471  0.09148705  0.44206462  1
  Se  Se176  1  0.59138993  0.08377305  0.93512763  1
  Se  Se177  1  0.58482969  0.41949380  0.45295777  1
  Se  Se178  1  0.58907806  0.40503645  0.94142543  1
  Se  Se179  1  0.59337951  0.74956718  0.44959328  1
  Se  Se180  1  0.57586991  0.74810952  0.94664671  1
  Se  Se181  1  0.91967929  0.08096424  0.43858305  1
  Se  Se182  1  0.92222786  0.08665474  0.96235366  1
  Se  Se183  1  0.90960367  0.41991096  0.44924204  1
  Se  Se184  1  0.92037210  0.41208186  0.94224870  1
  Se  Se185  1  0.92900689  0.73632283  0.44150901  1
  Se  Se186  1  0.89179957  0.76221590  0.94965147  1
  Se  Se187  1  0.23895339  0.24244720  0.30405710  1
  Se  Se188  1  0.25482034  0.25091559  0.79861596  1
  Se  Se189  1  0.24873232  0.57517629  0.30545115  1
  Se  Se190  1  0.25009359  0.58577655  0.80328747  1
  Se  Se191  1  0.25436790  0.91596170  0.30051590  1
  Se  Se192  1  0.25377130  0.92391168  0.80537664  1
  Se  Se193  1  0.57889579  0.25658273  0.30745901  1
  Se  Se194  1  0.58828960  0.24584966  0.79963709  1
  Se  Se195  1  0.57714062  0.57994665  0.31108645  1
  Se  Se196  1  0.58098014  0.58228298  0.80425686  1
  Se  Se197  1  0.58312672  0.92112941  0.30394472  1
  Se  Se198  1  0.58012615  0.90593650  0.81457640  1
  Se  Se199  1  0.90798562  0.24833934  0.30719494  1
  Se  Se200  1  0.91572094  0.24091945  0.80345117  1
  Se  Se201  1  0.91609150  0.57990616  0.30867533  1
  Se  Se202  1  0.90664679  0.57265795  0.80813162  1
  Se  Se203  1  0.91805735  0.92004257  0.29807913  1
  Se  Se204  1  0.91320361  0.91126681  0.81552635  1
  Se  Se205  1  0.07827688  0.08177256  0.29833799  1
  Se  Se206  1  0.08787443  0.09490578  0.81813029  1
  Se  Se207  1  0.09096711  0.42013359  0.30656915  1
  Se  Se208  1  0.08481497  0.41831989  0.80319690  1
  Se  Se209  1  0.09347903  0.75290351  0.30595801  1
  Se  Se210  1  0.09347203  0.76080069  0.81646047  1
  Se  Se211  1  0.41332282  0.08325980  0.30530719  1
  Se  Se212  1  0.41998824  0.07669970  0.80025635  1
  Se  Se213  1  0.42482426  0.42098543  0.31137209  1
  Se  Se214  1  0.41410770  0.41440303  0.79855508  1
  Se  Se215  1  0.42424341  0.74778585  0.30780050  1
  Se  Se216  1  0.41740398  0.74866922  0.80547718  1
  Se  Se217  1  0.75043026  0.09178381  0.29660620  1
  Se  Se218  1  0.76910622  0.07925904  0.81343219  1
  Se  Se219  1  0.74486421  0.42093216  0.30549689  1
  Se  Se220  1  0.74972423  0.41113241  0.80436447  1
  Se  Se221  1  0.76189986  0.76036090  0.30927090  1
  Se  Se222  1  0.74711130  0.74323960  0.80489961  1
  Se  Se223  1  0.25669268  0.07970814  0.19756751  1
  Se  Se224  1  0.24916909  0.07678581  0.69879150  1
  Se  Se225  1  0.25437671  0.42257873  0.18391071  1
  Se  Se226  1  0.25144323  0.41754454  0.69709090  1
  Se  Se227  1  0.24221868  0.75856673  0.18442656  1
  Se  Se228  1  0.25365266  0.75050296  0.70424879  1
  Se  Se229  1  0.58426797  0.08748986  0.20183312  1
  Se  Se230  1  0.58209210  0.08569649  0.68654628  1
  Se  Se231  1  0.58830454  0.41636284  0.19483757  1
  Se  Se232  1  0.57528271  0.41603173  0.69669316  1
  Se  Se233  1  0.57615564  0.75471627  0.18969309  1
  Se  Se234  1  0.58668571  0.74753680  0.69746063  1
  Se  Se235  1  0.91761511  0.08734777  0.18312245  1
  Se  Se236  1  0.91343070  0.07868655  0.68816534  1
  Se  Se237  1  0.91146283  0.42336582  0.19102202  1
  Se  Se238  1  0.93431686  0.41260996  0.70891295  1
  Se  Se239  1  0.90409974  0.75444934  0.18254227  1
  Se  Se240  1  0.91379761  0.75352407  0.69899049  1
  Se  Se241  1  0.08862187  0.24014102  0.17983430  1
  Se  Se242  1  0.08224010  0.24437547  0.69852411  1
  Se  Se243  1  0.08586909  0.57142043  0.18750703  1
  Se  Se244  1  0.08470596  0.57728898  0.68905352  1
  Se  Se245  1  0.07965751  0.91820922  0.19623843  1
  Se  Se246  1  0.08691584  0.90695077  0.68941971  1
  Se  Se247  1  0.42411035  0.24218849  0.18720486  1
  Se  Se248  1  0.41618055  0.24685032  0.69690121  1
  Se  Se249  1  0.42432527  0.57227146  0.18644553  1
  Se  Se250  1  0.41335122  0.58894032  0.69484366  1
  Se  Se251  1  0.41545537  0.91765886  0.19869045  1
  Se  Se252  1  0.42246243  0.91612747  0.69660914  1
  Se  Se253  1  0.75009178  0.25687311  0.19297493  1
  Se  Se254  1  0.76793119  0.23038906  0.70428094  1
  Se  Se255  1  0.76008375  0.58571146  0.19115789  1
  Se  Se256  1  0.73848066  0.58347270  0.70169005  1
  Se  Se257  1  0.73896155  0.91777804  0.19691547  1
  Se  Se258  1  0.75351610  0.90977052  0.69404388  1
