# generated using pymatgen
data_In86Cu29Se144
_symmetry_space_group_name_H-M   'P 1'
_cell_length_a   17.71207705
_cell_length_b   17.70063665
_cell_length_c   23.58519144
_cell_angle_alpha   89.98110141
_cell_angle_beta   89.98796564
_cell_angle_gamma   89.99464285
_symmetry_Int_Tables_number   1
_chemical_formula_structural   In86Cu29Se144
_chemical_formula_sum   'In86 Cu29 Se144'
_cell_volume   7394.31164573
_cell_formula_units_Z   1
loop_
 _symmetry_equiv_pos_site_id
 _symmetry_equiv_pos_as_xyz
  1  'x, y, z'
loop_
 _atom_site_type_symbol
 _atom_site_label
 _atom_site_symmetry_multiplicity
 _atom_site_fract_x
 _atom_site_fract_y
 _atom_site_fract_z
 _atom_site_occupancy
  In  In0  1  -0.00003337  0.17479224  0.12856976  1
  In  In1  1  0.01111684  0.15924810  0.63340530  1
  In  In2  1  0.00509242  0.49159366  0.12907894  1
  In  In3  1  0.00428606  0.49547789  0.62967962  1
  In  In4  1  0.01880526  0.82239953  0.13598993  1
  In  In5  1  0.01090667  0.82403265  0.63217760  1
  In  In6  1  0.33685959  0.16500373  0.13019853  1
  In  In7  1  0.31648561  0.17027836  0.62301708  1
  In  In8  1  0.33230765  0.50428327  0.12467091  1
  In  In9  1  0.34306710  0.52648146  0.60970239  1
  In  In10  1  0.31758101  0.83274580  0.12856929  1
  In  In11  1  0.33324435  0.82367018  0.61952687  1
  In  In12  1  0.67000880  0.15582677  0.12163471  1
  In  In13  1  0.65733008  0.15861141  0.62770395  1
  In  In14  1  0.66440975  0.51664584  0.12322602  1
  In  In15  1  0.66386794  0.50738336  0.62644399  1
  In  In16  1  0.65919328  0.82817030  0.12659767  1
  In  In17  1  0.66039058  0.83693532  0.62920745  1
  In  In18  1  0.16664230  0.00696737  0.38435403  1
  In  In19  1  0.16166798  -0.01375702  0.87176415  1
  In  In20  1  0.16219029  0.33393370  0.37130061  1
  In  In21  1  0.16950833  0.35123115  0.87437466  1
  In  In22  1  0.16522462  0.66794770  0.37872927  1
  In  In23  1  0.16974272  0.66887459  0.87670103  1
  In  In24  1  0.48240786  -0.00685689  0.37962904  1
  In  In25  1  0.49321421  -0.01192391  0.86086178  1
  In  In26  1  0.47743167  0.43882606  0.41195345  1
  In  In27  1  0.50605432  0.33701503  0.87617214  1
  In  In28  1  0.49218231  0.66042620  0.37303782  1
  In  In29  1  0.48701574  0.65249493  0.86212528  1
  In  In30  1  0.83796679  -0.01341941  0.37508163  1
  In  In31  1  0.84516273  0.00619112  0.86920199  1
  In  In32  1  0.83726985  0.32417779  0.37513615  1
  In  In33  1  0.83939198  0.31656925  0.88049646  1
  In  In34  1  0.84003819  0.67426254  0.36559388  1
  In  In35  1  0.83424981  0.66549847  0.86852679  1
  In  In36  1  0.00849391  0.17721909  0.36573535  1
  In  In37  1  -0.00365439  0.15346833  0.87212362  1
  In  In38  1  0.01172871  0.51350990  0.36467654  1
  In  In39  1  0.01452468  0.51111811  0.86843233  1
  In  In40  1  0.01627440  0.84895480  0.36340799  1
  In  In41  1  0.01635399  0.84253525  0.86867444  1
  In  In42  1  0.32037842  0.17230142  0.38043720  1
  In  In43  1  0.33751161  0.15945825  0.87010570  1
  In  In44  1  0.31238796  0.50178408  0.36557812  1
  In  In45  1  0.32644939  0.50413367  0.88125667  1
  In  In46  1  0.33765280  0.81539978  0.39474123  1
  In  In47  1  0.32850968  0.82592321  0.87198310  1
  In  In48  1  0.65843047  0.17059949  0.37502403  1
  In  In49  1  0.67996103  0.16707840  0.87374673  1
  In  In50  1  0.65983147  0.50409543  0.37737533  1
  In  In51  1  0.65482706  0.49854770  0.87527435  1
  In  In52  1  0.65694243  0.81581413  0.37232026  1
  In  In53  1  0.66173671  0.82650177  0.86529419  1
  In  In54  1  0.15890553  -0.02582960  0.11188749  1
  In  In55  1  0.16897249  -0.00309816  0.62876893  1
  In  In56  1  0.16318835  0.34194537  0.13003884  1
  In  In57  1  0.16289879  0.33478714  0.61937935  1
  In  In58  1  0.17133488  0.66802811  0.12463730  1
  In  In59  1  0.16560207  0.66713512  0.61931417  1
  In  In60  1  0.48934148  -0.00369311  0.12488972  1
  In  In61  1  0.50412486  -0.01416962  0.63040782  1
  In  In62  1  0.48142521  0.33931624  0.13166860  1
  In  In63  1  0.49881167  0.34207469  0.62191948  1
  In  In64  1  0.50873127  0.66302349  0.13186698  1
  In  In65  1  0.49646051  0.66177773  0.62320850  1
  In  In66  1  0.84027546  0.01629827  0.11777152  1
  In  In67  1  0.83782171  -0.00221082  0.63488131  1
  In  In68  1  0.84482022  0.32861498  0.12531249  1
  In  In69  1  0.84323803  0.34334097  0.62740434  1
  In  In70  1  0.83417309  0.67490555  0.12904491  1
  In  In71  1  0.83402060  0.66532347  0.63378089  1
  In  In72  1  0.67282194  0.33171499  0.74726911  1
  In  In73  1  0.66988657  -0.00229060  0.25066074  1
  In  In74  1  0.49535823  0.83208272  0.00044112  1
  In  In75  1  0.16493472  0.16398975  -0.00394110  1
  In  In76  1  0.32057080  -0.01210799  0.24945939  1
  In  In77  1  0.84378283  0.16291747  0.49921427  1
  In  In78  1  0.83135002  0.49552377  0.50357491  1
  In  In79  1  0.83228879  0.83169146  0.50592204  1
  In  In80  1  0.50605235  0.17110499  -0.00098148  1
  In  In81  1  0.65919405  0.33441377  0.26021158  1
  In  In82  1  0.33022533  0.34111828  0.74373474  1
  In  In83  1  0.83820628  0.49747737  0.00517753  1
  In  In84  1  0.84181886  0.83867203  -0.00398096  1
  In  In85  1  0.48668530  0.17267328  0.49718773  1
  Cu  Cu86  1  0.49823022  0.15827507  0.74603458  1
  Cu  Cu87  1  0.16720431  0.50344795  0.24675075  1
  Cu  Cu88  1  0.67087863  0.00420410  -0.00704311  1
  Cu  Cu89  1  0.17132904  0.82882565  0.74674614  1
  Cu  Cu90  1  0.66299922  0.33761937  -0.00207302  1
  Cu  Cu91  1  0.83136177  0.50434132  0.24186873  1
  Cu  Cu92  1  0.01042252  0.00019858  0.50326027  1
  Cu  Cu93  1  0.84007494  0.16284507  0.75356872  1
  Cu  Cu94  1  0.83257228  0.83057996  0.75072020  1
  Cu  Cu95  1  0.32985787  -0.00388513  0.50570051  1
  Cu  Cu96  1  0.16734809  0.16569330  0.25091355  1
  Cu  Cu97  1  0.83650984  0.16850926  0.24880203  1
  Cu  Cu98  1  0.32503784  0.33500880  0.49485050  1
  Cu  Cu99  1  0.66028365  0.66451029  -0.00115391  1
  Cu  Cu100  1  0.00645438  0.33636073  0.49706775  1
  Cu  Cu101  1  0.00298033  0.33324968  0.00357068  1
  Cu  Cu102  1  0.49324636  0.16969555  0.25394699  1
  Cu  Cu103  1  0.84015042  0.83823115  0.24835521  1
  Cu  Cu104  1  0.16954914  0.50866304  0.74696784  1
  Cu  Cu105  1  0.49592911  0.82357768  0.74380324  1
  Cu  Cu106  1  0.83957187  0.49555201  0.75212584  1
  Cu  Cu107  1  0.33147589  0.66609638  -0.00103388  1
  Cu  Cu108  1  0.01028658  0.66973625  -0.00061006  1
  Cu  Cu109  1  0.49060052  0.50167291  0.25251988  1
  Cu  Cu110  1  0.00181856  0.66903297  0.49713476  1
  Cu  Cu111  1  0.65707242  0.65970562  0.49960733  1
  Cu  Cu112  1  0.33087828  0.33916094  0.00402337  1
  Cu  Cu113  1  0.66129911  -0.00318964  0.50477639  1
  Cu  Cu114  1  0.16597974  0.16617691  0.74877970  1
  Se  Se115  1  0.07684417  0.08052762  0.05971453  1
  Se  Se116  1  0.08825404  0.08344546  0.55911232  1
  Se  Se117  1  0.08508128  0.41748925  0.05465796  1
  Se  Se118  1  0.08202438  0.42274063  0.55325502  1
  Se  Se119  1  0.08938310  0.75265229  0.05453057  1
  Se  Se120  1  0.08110027  0.75334322  0.55223596  1
  Se  Se121  1  0.41154156  0.08070951  0.05334392  1
  Se  Se122  1  0.41191499  0.07902476  0.56406259  1
  Se  Se123  1  0.41677437  0.42053930  0.05518215  1
  Se  Se124  1  0.40581199  0.41179997  0.55513068  1
  Se  Se125  1  0.41000043  0.74328943  0.06305924  1
  Se  Se126  1  0.42360239  0.74864377  0.55352052  1
  Se  Se127  1  0.75166519  0.08695520  0.04679933  1
  Se  Se128  1  0.74750543  0.07457101  0.55888389  1
  Se  Se129  1  0.74301045  0.40994378  0.06383552  1
  Se  Se130  1  0.74072730  0.40506936  0.56161487  1
  Se  Se131  1  0.74361695  0.74747036  0.05298514  1
  Se  Se132  1  0.74091868  0.73704297  0.55979585  1
  Se  Se133  1  0.25429903  0.25249526  0.06002379  1
  Se  Se134  1  0.24484320  0.25205003  0.55019528  1
  Se  Se135  1  0.24933087  0.58348915  0.05437957  1
  Se  Se136  1  0.25253466  0.60077913  0.54315340  1
  Se  Se137  1  0.27207414  0.92820710  0.05400914  1
  Se  Se138  1  0.24636857  0.91349294  0.55773840  1
  Se  Se139  1  0.58731540  0.26059781  0.06583472  1
  Se  Se140  1  0.58686517  0.25176287  0.55863060  1
  Se  Se141  1  0.57599949  0.58409286  0.05184243  1
  Se  Se142  1  0.57858312  0.57423468  0.55290964  1
  Se  Se143  1  0.59130829  0.92778041  0.05572383  1
  Se  Se144  1  0.58025021  0.91055831  0.55432256  1
  Se  Se145  1  0.91874252  0.24830153  0.05249391  1
  Se  Se146  1  0.92902486  0.25640420  0.55934652  1
  Se  Se147  1  0.92547569  0.59428475  0.05963586  1
  Se  Se148  1  0.92106474  0.59098523  0.55814621  1
  Se  Se149  1  0.92490177  0.91322969  0.06742432  1
  Se  Se150  1  0.92542247  0.92289197  0.56113690  1
  Se  Se151  1  0.08374755  0.24884808  0.44310285  1
  Se  Se152  1  0.08010192  0.25882104  0.93679405  1
  Se  Se153  1  0.08093639  0.58012414  0.44654864  1
  Se  Se154  1  0.08876345  0.58275604  0.94615633  1
  Se  Se155  1  0.08571205  0.91362966  0.44722011  1
  Se  Se156  1  0.07604308  0.92335223  0.94719928  1
  Se  Se157  1  0.41227922  0.26718627  0.43366827  1
  Se  Se158  1  0.40705659  0.25830692  0.94152366  1
  Se  Se159  1  0.41373100  0.56758274  0.43868139  1
  Se  Se160  1  0.41637418  0.58603545  0.94518285  1
  Se  Se161  1  0.41539092  0.91359546  0.45584189  1
  Se  Se162  1  0.41051320  0.92235458  0.93933413  1
  Se  Se163  1  0.74577544  0.25056432  0.44600482  1
  Se  Se164  1  0.74547700  0.25085077  0.94969926  1
  Se  Se165  1  0.75208808  0.59417915  0.44094993  1
  Se  Se166  1  0.74852905  0.58662539  0.94418487  1
  Se  Se167  1  0.73912478  0.91732260  0.44189582  1
  Se  Se168  1  0.74334748  0.91745519  0.93468059  1
  Se  Se169  1  0.25335099  0.08488498  0.45270740  1
  Se  Se170  1  0.25578717  0.07611854  0.93809924  1
  Se  Se171  1  0.24218952  0.41759632  0.44070069  1
  Se  Se172  1  0.24708613  0.42061673  0.95121159  1
  Se  Se173  1  0.25748804  0.72319115  0.45657557  1
  Se  Se174  1  0.25033159  0.75168207  0.94727425  1
  Se  Se175  1  0.58328189  0.07585432  0.44341465  1
  Se  Se176  1  0.58407286  0.07663861  0.93365996  1
  Se  Se177  1  0.60929335  0.39714278  0.44130203  1
  Se  Se178  1  0.57861470  0.41965080  0.94911262  1
  Se  Se179  1  0.57647291  0.74142298  0.44434454  1
  Se  Se180  1  0.58132691  0.74304280  0.93818199  1
  Se  Se181  1  0.92959339  0.07292698  0.43823814  1
  Se  Se182  1  0.91067817  0.08693239  0.94536023  1
  Se  Se183  1  0.92325151  0.41460694  0.43843131  1
  Se  Se184  1  0.92600835  0.41418544  0.93982088  1
  Se  Se185  1  0.92180220  0.75213553  0.44028855  1
  Se  Se186  1  0.92619373  0.74292005  0.93778795  1
  Se  Se187  1  0.24785338  0.24912780  0.30446358  1
  Se  Se188  1  0.24584757  0.24857325  0.80840411  1
  Se  Se189  1  0.24343806  0.59465357  0.29901746  1
  Se  Se190  1  0.25067153  0.58345765  0.80767226  1
  Se  Se191  1  0.25036001  0.90802664  0.32615953  1
  Se  Se192  1  0.25057128  0.91266936  0.80324099  1
  Se  Se193  1  0.56367703  0.25147094  0.31686331  1
  Se  Se194  1  0.57688907  0.24061670  0.80592865  1
  Se  Se195  1  0.58095135  0.58011555  0.30506841  1
  Se  Se196  1  0.59717688  0.59240750  0.80607799  1
  Se  Se197  1  0.57630739  0.91601690  0.31092785  1
  Se  Se198  1  0.58017490  0.90821673  0.79671169  1
  Se  Se199  1  0.91794787  0.25465323  0.30005361  1
  Se  Se200  1  0.92131356  0.24776779  0.80574005  1
  Se  Se201  1  0.91415060  0.58274865  0.30002846  1
  Se  Se202  1  0.91966281  0.58297978  0.80358778  1
  Se  Se203  1  0.92131847  0.92462095  0.29892505  1
  Se  Se204  1  0.91659347  0.91134520  0.80490361  1
  Se  Se205  1  0.08926375  0.08194316  0.30764076  1
  Se  Se206  1  0.08889930  0.08213195  0.80597474  1
  Se  Se207  1  0.08416277  0.41859302  0.30015650  1
  Se  Se208  1  0.08874314  0.42131048  0.79929940  1
  Se  Se209  1  0.06179535  0.72928647  0.31429428  1
  Se  Se210  1  0.08859439  0.74829929  0.80420624  1
  Se  Se211  1  0.41143382  0.08480728  0.30836867  1
  Se  Se212  1  0.41204629  0.07855435  0.79790249  1
  Se  Se213  1  0.41728023  0.41925975  0.31246758  1
  Se  Se214  1  0.41876707  0.42100174  0.81102592  1
  Se  Se215  1  0.41491324  0.75625812  0.31278094  1
  Se  Se216  1  0.41136266  0.74776989  0.80154624  1
  Se  Se217  1  0.75795374  0.09138405  0.31189510  1
  Se  Se218  1  0.75162949  0.08176984  0.80282844  1
  Se  Se219  1  0.76027348  0.42516972  0.30961251  1
  Se  Se220  1  0.75960740  0.41679705  0.81462936  1
  Se  Se221  1  0.75390135  0.75856026  0.30183706  1
  Se  Se222  1  0.74974150  0.74549335  0.80131226  1
  Se  Se223  1  0.23865446  0.08296215  0.18739721  1
  Se  Se224  1  0.25066031  0.08452790  0.69669339  1
  Se  Se225  1  0.25272098  0.41999809  0.19515925  1
  Se  Se226  1  0.24639734  0.43163184  0.68240438  1
  Se  Se227  1  0.23414015  0.75989722  0.19763945  1
  Se  Se228  1  0.24911417  0.74497575  0.69050965  1
  Se  Se229  1  0.57222266  0.09015011  0.19386745  1
  Se  Se230  1  0.58444279  0.07434818  0.69743426  1
  Se  Se231  1  0.57823942  0.42618032  0.19271016  1
  Se  Se232  1  0.57647060  0.42177075  0.69715050  1
  Se  Se233  1  0.58404266  0.75256826  0.19825633  1
  Se  Se234  1  0.58288822  0.74420061  0.69161931  1
  Se  Se235  1  0.91787099  0.08647370  0.19481101  1
  Se  Se236  1  0.92325102  0.08010320  0.69944118  1
  Se  Se237  1  0.91415397  0.41569263  0.19557431  1
  Se  Se238  1  0.92417595  0.41303981  0.70106965  1
  Se  Se239  1  0.91992930  0.75018535  0.19753684  1
  Se  Se240  1  0.91774401  0.74965122  0.69760113  1
  Se  Se241  1  0.08665486  0.25156130  0.19617945  1
  Se  Se242  1  0.08949468  0.25378010  0.69470178  1
  Se  Se243  1  0.08419956  0.58289970  0.19062944  1
  Se  Se244  1  0.08381402  0.58755927  0.69142375  1
  Se  Se245  1  0.09803274  0.91372496  0.19887704  1
  Se  Se246  1  0.08554014  0.91538636  0.69809776  1
  Se  Se247  1  0.40945490  0.25109341  0.20077603  1
  Se  Se248  1  0.42213313  0.24415331  0.68821157  1
  Se  Se249  1  0.41509090  0.58545134  0.19454445  1
  Se  Se250  1  0.41929072  0.57657354  0.69317012  1
  Se  Se251  1  0.42296999  0.90494737  0.19548811  1
  Se  Se252  1  0.41205596  0.90762959  0.69226430  1
  Se  Se253  1  0.74793427  0.24541577  0.19352079  1
  Se  Se254  1  0.76205112  0.23863954  0.68791875  1
  Se  Se255  1  0.74838203  0.59027996  0.19350464  1
  Se  Se256  1  0.75493480  0.57372089  0.69665742  1
  Se  Se257  1  0.75957242  0.91496843  0.18503220  1
  Se  Se258  1  0.75065767  0.91303660  0.69598596  1
