# generated using pymatgen
data_In86Cu29Se144
_symmetry_space_group_name_H-M   'P 1'
_cell_length_a   17.58697322
_cell_length_b   17.58484821
_cell_length_c   23.45155732
_cell_angle_alpha   90.00119511
_cell_angle_beta   90.00101426
_cell_angle_gamma   89.98856305
_symmetry_Int_Tables_number   1
_chemical_formula_structural   In86Cu29Se144
_chemical_formula_sum   'In86 Cu29 Se144'
_cell_volume   7252.72824512
_cell_formula_units_Z   1
loop_
 _symmetry_equiv_pos_site_id
 _symmetry_equiv_pos_as_xyz
  1  'x, y, z'
loop_
 _atom_site_type_symbol
 _atom_site_label
 _atom_site_symmetry_multiplicity
 _atom_site_fract_x
 _atom_site_fract_y
 _atom_site_fract_z
 _atom_site_occupancy
  In  In0  1  0.00958713  0.18163874  0.11986601  1
  In  In1  1  -0.00358815  0.17279718  0.61050508  1
  In  In2  1  -0.01085020  0.48744087  0.11894826  1
  In  In3  1  0.01425546  0.49693919  0.62686178  1
  In  In4  1  0.01042623  0.82198313  0.12587009  1
  In  In5  1  0.00703653  0.83609617  0.61844610  1
  In  In6  1  0.33137565  0.18380629  0.12694578  1
  In  In7  1  0.33760054  0.18977625  0.62615337  1
  In  In8  1  0.33630796  0.50081339  0.12401032  1
  In  In9  1  0.33691119  0.49464981  0.62900423  1
  In  In10  1  0.32086111  0.82948279  0.12518639  1
  In  In11  1  0.31890883  0.81369909  0.61276009  1
  In  In12  1  0.67411721  0.15873566  0.13391125  1
  In  In13  1  0.66323975  0.15425356  0.62118087  1
  In  In14  1  0.66554332  0.49992523  0.12746917  1
  In  In15  1  0.66290765  0.51616145  0.62469851  1
  In  In16  1  0.66082901  0.83347868  0.13588311  1
  In  In17  1  0.66125621  0.83326063  0.61688014  1
  In  In18  1  0.17132306  -0.00390063  0.38205624  1
  In  In19  1  0.16756406  0.00361193  0.88330557  1
  In  In20  1  0.16169239  0.32638837  0.36440923  1
  In  In21  1  0.17275692  0.33176945  0.87833401  1
  In  In22  1  0.17937830  0.66282022  0.37939655  1
  In  In23  1  0.17741876  0.66118900  0.88091234  1
  In  In24  1  0.49919499  -0.01166573  0.37818012  1
  In  In25  1  0.50142586  -0.01035611  0.86807550  1
  In  In26  1  0.50823878  0.34337448  0.36393915  1
  In  In27  1  0.50057788  0.35039525  0.87784209  1
  In  In28  1  0.49767502  0.66106033  0.37842992  1
  In  In29  1  0.49237973  0.65392230  0.86756420  1
  In  In30  1  0.82533068  0.00910034  0.37943083  1
  In  In31  1  0.83545132  0.01019765  0.87260864  1
  In  In32  1  0.82939499  0.33053991  0.36644967  1
  In  In33  1  0.83573880  0.33231750  0.88678162  1
  In  In34  1  0.83567946  0.67726380  0.37519945  1
  In  In35  1  0.82104529  0.66628828  0.87525777  1
  In  In36  1  -0.00513584  0.17942096  0.38530703  1
  In  In37  1  -0.00206811  0.16847748  0.88348522  1
  In  In38  1  -0.00318484  0.49183878  0.36417699  1
  In  In39  1  0.00746332  0.49477632  0.88490007  1
  In  In40  1  0.00079189  0.82638133  0.38768658  1
  In  In41  1  0.00256960  0.84412852  0.87482579  1
  In  In42  1  0.32272641  0.16688428  0.37373220  1
  In  In43  1  0.32236834  0.16377019  0.87513820  1
  In  In44  1  0.34446482  0.51460246  0.36952525  1
  In  In45  1  0.33253182  0.50480910  0.87528814  1
  In  In46  1  0.35451517  0.80598503  0.40339411  1
  In  In47  1  0.32985683  0.81907568  0.86845444  1
  In  In48  1  0.67395350  0.18371193  0.35914464  1
  In  In49  1  0.67538595  0.16746091  0.87504793  1
  In  In50  1  0.65781516  0.48746142  0.36401937  1
  In  In51  1  0.65884015  0.50387146  0.88596171  1
  In  In52  1  0.66497469  0.83320991  0.37497202  1
  In  In53  1  0.66039300  0.82934354  0.86342339  1
  In  In54  1  0.15842474  -0.00137238  0.11949383  1
  In  In55  1  0.16225099  -0.00196569  0.62423373  1
  In  In56  1  0.16740988  0.33800712  0.12450999  1
  In  In57  1  0.17823529  0.33754333  0.61917232  1
  In  In58  1  0.17910074  0.66974442  0.12026678  1
  In  In59  1  0.17743075  0.67387420  0.63057668  1
  In  In60  1  0.51012157  0.01040682  0.13184973  1
  In  In61  1  0.51748452  0.00149393  0.62692550  1
  In  In62  1  0.48673278  0.33861071  0.13790789  1
  In  In63  1  0.48055872  0.32765139  0.62397926  1
  In  In64  1  0.51165967  0.65441139  0.13284434  1
  In  In65  1  0.49634821  0.66882755  0.61865306  1
  In  In66  1  0.81832410  0.00334943  0.12739895  1
  In  In67  1  0.82625447  -0.00859007  0.61391165  1
  In  In68  1  0.83821547  0.33822785  0.12897577  1
  In  In69  1  0.84347498  0.33000268  0.61667255  1
  In  In70  1  0.82766444  0.65165681  0.12645045  1
  In  In71  1  0.81435512  0.66295349  0.62198201  1
  In  In72  1  0.00453609  0.33402503  0.75745983  1
  In  In73  1  0.50087978  0.17192783  0.00773690  1
  In  In74  1  0.33847139  -0.00338102  0.74814836  1
  In  In75  1  0.49897758  0.16400970  0.49789291  1
  In  In76  1  -0.00194048  0.00362331  0.26013308  1
  In  In77  1  0.16726418  0.49644767  0.50181415  1
  In  In78  1  0.33592902  -0.00514999  0.25430603  1
  In  In79  1  0.83817897  0.83380465  0.00015046  1
  In  In80  1  0.00543095  0.66913617  0.74709742  1
  In  In81  1  0.49554068  0.82971315  -0.00714852  1
  In  In82  1  0.82726867  0.49549370  0.49068697  1
  In  In83  1  0.66162330  0.33465340  0.75361245  1
  In  In84  1  -0.00164199  -0.00159320  0.74096779  1
  In  In85  1  -0.00352572  0.65755572  0.24629354  1
  Cu  Cu86  1  0.65845097  0.67034283  0.49772069  1
  Cu  Cu87  1  0.66777978  0.65720861  0.00335310  1
  Cu  Cu88  1  0.00279086  -0.00041080  0.50013834  1
  Cu  Cu89  1  0.49524642  0.50637927  0.24892048  1
  Cu  Cu90  1  0.82092527  0.83169760  0.73960493  1
  Cu  Cu91  1  -0.00173352  0.00544039  0.00101582  1
  Cu  Cu92  1  0.67165948  0.00135641  0.49558962  1
  Cu  Cu93  1  0.67272348  0.33454358  0.00731507  1
  Cu  Cu94  1  0.82384323  0.16122205  0.74791478  1
  Cu  Cu95  1  0.17240533  0.49747357  0.24670841  1
  Cu  Cu96  1  0.50785220  0.83294088  0.74081806  1
  Cu  Cu97  1  0.66989323  0.00169431  0.00135503  1
  Cu  Cu98  1  0.33165715  0.33954571  0.00303938  1
  Cu  Cu99  1  0.32229256  0.00228334  0.00203573  1
  Cu  Cu100  1  0.16681407  0.17085110  0.75161831  1
  Cu  Cu101  1  0.33767714  0.66224079  -0.00250294  1
  Cu  Cu102  1  0.49985059  0.50411462  0.75149649  1
  Cu  Cu103  1  0.66427530  0.33469761  0.48865764  1
  Cu  Cu104  1  0.82414159  0.83494597  0.25334439  1
  Cu  Cu105  1  0.33071560  0.33780117  0.49693983  1
  Cu  Cu106  1  0.16912987  0.17204121  0.24711944  1
  Cu  Cu107  1  0.49598614  0.82917363  0.25921542  1
  Cu  Cu108  1  0.32900433  0.00074400  0.50425264  1
  Cu  Cu109  1  -0.00240725  0.66009402  0.50363509  1
  Cu  Cu110  1  0.00000712  0.33581474  0.00429931  1
  Cu  Cu111  1  0.17341902  0.82912005  0.25645957  1
  Cu  Cu112  1  0.00938799  0.66457803  0.00399137  1
  Cu  Cu113  1  0.83234864  0.50342645  0.75304664  1
  Cu  Cu114  1  0.84040935  0.16955198  0.25006873  1
  Se  Se115  1  0.08366369  0.08890734  0.05264085  1
  Se  Se116  1  0.08557656  0.08288750  0.55384823  1
  Se  Se117  1  0.08710717  0.42014421  0.05296974  1
  Se  Se118  1  0.07083362  0.40093956  0.55253909  1
  Se  Se119  1  0.09234148  0.75254500  0.05183450  1
  Se  Se120  1  0.08390196  0.73823117  0.55875256  1
  Se  Se121  1  0.40832796  0.07508820  0.06221886  1
  Se  Se122  1  0.41017737  0.08057598  0.56472646  1
  Se  Se123  1  0.42092585  0.41486746  0.05678434  1
  Se  Se124  1  0.41487819  0.41743820  0.55186208  1
  Se  Se125  1  0.41530359  0.74297247  0.06114061  1
  Se  Se126  1  0.42435963  0.75932222  0.54905552  1
  Se  Se127  1  0.75040435  0.08784992  0.05259896  1
  Se  Se128  1  0.75210847  0.08736856  0.54890666  1
  Se  Se129  1  0.75392169  0.42073548  0.05932679  1
  Se  Se130  1  0.73825573  0.41160023  0.55841751  1
  Se  Se131  1  0.74094903  0.75012452  0.05882585  1
  Se  Se132  1  0.74779859  0.74991941  0.54888424  1
  Se  Se133  1  0.24781267  0.25298246  0.05294238  1
  Se  Se134  1  0.25086628  0.24954169  0.54817688  1
  Se  Se135  1  0.25317949  0.57997180  0.05172439  1
  Se  Se136  1  0.25743783  0.58710138  0.55819345  1
  Se  Se137  1  0.24454894  0.91384922  0.05486747  1
  Se  Se138  1  0.24440472  0.91658605  0.55523410  1
  Se  Se139  1  0.59088781  0.25722902  0.06925700  1
  Se  Se140  1  0.58781457  0.25860819  0.55700212  1
  Se  Se141  1  0.57969670  0.57726812  0.05396498  1
  Se  Se142  1  0.57906765  0.58197895  0.54948634  1
  Se  Se143  1  0.58606090  0.91985374  0.05648507  1
  Se  Se144  1  0.58355167  0.92243113  0.54799952  1
  Se  Se145  1  0.91341197  0.25264561  0.05486822  1
  Se  Se146  1  0.90905332  0.24743783  0.54235063  1
  Se  Se147  1  0.91851104  0.58713594  0.05447117  1
  Se  Se148  1  0.91766058  0.57829926  0.56173463  1
  Se  Se149  1  0.92426794  0.92335933  0.06538547  1
  Se  Se150  1  0.91921533  0.91289840  0.55108259  1
  Se  Se151  1  0.10288519  0.24202515  0.44303314  1
  Se  Se152  1  0.08190183  0.25516989  0.94566575  1
  Se  Se153  1  0.07208095  0.58268088  0.43836693  1
  Se  Se154  1  0.09077787  0.58177068  0.94879574  1
  Se  Se155  1  0.08598876  0.91399568  0.44918556  1
  Se  Se156  1  0.08048334  0.91999502  0.94864550  1
  Se  Se157  1  0.41418755  0.25790843  0.43702174  1
  Se  Se158  1  0.41104040  0.25569004  0.94259741  1
  Se  Se159  1  0.40721388  0.59089478  0.44929541  1
  Se  Se160  1  0.42328893  0.57876312  0.94701337  1
  Se  Se161  1  0.41853988  0.92037063  0.45483361  1
  Se  Se162  1  0.40196669  0.92553938  0.93926419  1
  Se  Se163  1  0.74962102  0.25060759  0.44018225  1
  Se  Se164  1  0.74763336  0.24803360  0.94992867  1
  Se  Se165  1  0.73790475  0.58934552  0.43578346  1
  Se  Se166  1  0.75599466  0.57933342  0.94976336  1
  Se  Se167  1  0.75284455  0.91316818  0.44400719  1
  Se  Se168  1  0.74300126  0.91793328  0.93797457  1
  Se  Se169  1  0.25103002  0.08504075  0.44847779  1
  Se  Se170  1  0.24366148  0.09236271  0.95164751  1
  Se  Se171  1  0.25350769  0.41552129  0.43261292  1
  Se  Se172  1  0.25099517  0.42053754  0.94524078  1
  Se  Se173  1  0.23125251  0.75968698  0.45100124  1
  Se  Se174  1  0.25495533  0.75225562  0.94931283  1
  Se  Se175  1  0.59325235  0.08404241  0.43461010  1
  Se  Se176  1  0.58265544  0.07667476  0.94208847  1
  Se  Se177  1  0.57770686  0.42043285  0.44314990  1
  Se  Se178  1  0.58495449  0.41406049  0.95460200  1
  Se  Se179  1  0.57776949  0.75462364  0.44335464  1
  Se  Se180  1  0.59164456  0.73882783  0.93964964  1
  Se  Se181  1  0.91949079  0.08114375  0.44565261  1
  Se  Se182  1  0.91102951  0.08483131  0.94853634  1
  Se  Se183  1  0.92462172  0.40647834  0.43947173  1
  Se  Se184  1  0.91600398  0.42045227  0.95143719  1
  Se  Se185  1  0.91292087  0.74600748  0.45415311  1
  Se  Se186  1  0.92731678  0.74119893  0.94013316  1
  Se  Se187  1  0.25725979  0.25285376  0.29788009  1
  Se  Se188  1  0.25095307  0.25210082  0.80415662  1
  Se  Se189  1  0.24858073  0.58561587  0.30126503  1
  Se  Se190  1  0.26815146  0.60234078  0.80675411  1
  Se  Se191  1  0.25468150  0.90346409  0.31807074  1
  Se  Se192  1  0.24149799  0.91522823  0.80928006  1
  Se  Se193  1  0.57574392  0.24977995  0.29564429  1
  Se  Se194  1  0.57428355  0.24589307  0.81526449  1
  Se  Se195  1  0.57991716  0.58593105  0.30463570  1
  Se  Se196  1  0.59091580  0.57944690  0.80516577  1
  Se  Se197  1  0.58223327  0.91639885  0.30428743  1
  Se  Se198  1  0.58665659  0.91981419  0.79514351  1
  Se  Se199  1  0.92508223  0.25014520  0.30383356  1
  Se  Se200  1  0.90517408  0.24054768  0.80816467  1
  Se  Se201  1  0.89932267  0.57484086  0.30509314  1
  Se  Se202  1  0.91797640  0.57885717  0.81171742  1
  Se  Se203  1  0.91148105  0.90533853  0.31431958  1
  Se  Se204  1  0.90358476  0.90821321  0.80181460  1
  Se  Se205  1  0.09482706  0.09197182  0.31228624  1
  Se  Se206  1  0.08389600  0.08889222  0.80799408  1
  Se  Se207  1  0.08450583  0.41596921  0.29677852  1
  Se  Se208  1  0.09648102  0.42869723  0.80815248  1
  Se  Se209  1  0.08337608  0.74950988  0.30957168  1
  Se  Se210  1  0.08964300  0.75567721  0.81260667  1
  Se  Se211  1  0.42321556  0.08697065  0.31267319  1
  Se  Se212  1  0.42267798  0.09094286  0.80929540  1
  Se  Se213  1  0.41269218  0.42020261  0.30088063  1
  Se  Se214  1  0.41649155  0.42109243  0.80492760  1
  Se  Se215  1  0.41071009  0.74788250  0.31135538  1
  Se  Se216  1  0.42884162  0.75590399  0.80268009  1
  Se  Se217  1  0.75547506  0.08518819  0.30103382  1
  Se  Se218  1  0.74367156  0.07804640  0.80199482  1
  Se  Se219  1  0.74927971  0.41320835  0.29932948  1
  Se  Se220  1  0.75660368  0.42011125  0.81374983  1
  Se  Se221  1  0.74554784  0.74712906  0.30519178  1
  Se  Se222  1  0.74873690  0.74605757  0.79973151  1
  Se  Se223  1  0.24418481  0.08231078  0.19069311  1
  Se  Se224  1  0.24623215  0.09127615  0.69025881  1
  Se  Se225  1  0.25637130  0.41416618  0.19335730  1
  Se  Se226  1  0.25032056  0.41167022  0.69439428  1
  Se  Se227  1  0.25162668  0.74551411  0.19985355  1
  Se  Se228  1  0.26143169  0.74860166  0.70108560  1
  Se  Se229  1  0.59226573  0.07872915  0.20431144  1
  Se  Se230  1  0.57904669  0.09498839  0.69775397  1
  Se  Se231  1  0.57959722  0.42074760  0.19811244  1
  Se  Se232  1  0.57605118  0.42231968  0.68836034  1
  Se  Se233  1  0.57989619  0.74864255  0.20192074  1
  Se  Se234  1  0.58728056  0.74533604  0.68789881  1
  Se  Se235  1  0.91805688  0.08753741  0.18864924  1
  Se  Se236  1  0.90845854  0.09106744  0.68464373  1
  Se  Se237  1  0.91850117  0.42072833  0.19930742  1
  Se  Se238  1  0.91142880  0.42314861  0.69350055  1
  Se  Se239  1  0.90644232  0.75839952  0.19162126  1
  Se  Se240  1  0.90917767  0.75365340  0.68547252  1
  Se  Se241  1  0.08465615  0.25603032  0.19623076  1
  Se  Se242  1  0.08423137  0.24470047  0.68879653  1
  Se  Se243  1  0.09097308  0.57667496  0.18461577  1
  Se  Se244  1  0.10009069  0.57327246  0.69709283  1
  Se  Se245  1  0.08969102  0.90959683  0.19970844  1
  Se  Se246  1  0.09535356  0.90147746  0.69741210  1
  Se  Se247  1  0.42813225  0.23097445  0.19946187  1
  Se  Se248  1  0.41864054  0.25128723  0.70441811  1
  Se  Se249  1  0.40964019  0.58903033  0.19625736  1
  Se  Se250  1  0.42045538  0.58430405  0.69194132  1
  Se  Se251  1  0.42468890  0.90604244  0.18874514  1
  Se  Se252  1  0.42158918  0.90950684  0.68219876  1
  Se  Se253  1  0.75560904  0.25080960  0.19604502  1
  Se  Se254  1  0.75402167  0.25120365  0.68848176  1
  Se  Se255  1  0.73233251  0.59631749  0.19627633  1
  Se  Se256  1  0.74707817  0.58399240  0.70058300  1
  Se  Se257  1  0.74499025  0.92084428  0.19989466  1
  Se  Se258  1  0.74270717  0.91959142  0.68750828  1
