# generated using pymatgen
data_In86Cu29Se144
_symmetry_space_group_name_H-M   'P 1'
_cell_length_a   17.57643564
_cell_length_b   17.57714426
_cell_length_c   23.42379568
_cell_angle_alpha   89.98448264
_cell_angle_beta   89.98090564
_cell_angle_gamma   89.97039678
_symmetry_Int_Tables_number   1
_chemical_formula_structural   In86Cu29Se144
_chemical_formula_sum   'In86 Cu29 Se144'
_cell_volume   7236.62883527
_cell_formula_units_Z   1
loop_
 _symmetry_equiv_pos_site_id
 _symmetry_equiv_pos_as_xyz
  1  'x, y, z'
loop_
 _atom_site_type_symbol
 _atom_site_label
 _atom_site_symmetry_multiplicity
 _atom_site_fract_x
 _atom_site_fract_y
 _atom_site_fract_z
 _atom_site_occupancy
  In  In0  1  -0.00668121  0.15679827  0.11909536  1
  In  In1  1  0.01408715  0.15757415  0.64296480  1
  In  In2  1  -0.00475987  0.49737753  0.11988242  1
  In  In3  1  0.01037340  0.48967283  0.63539463  1
  In  In4  1  0.01081236  0.84607368  0.11835160  1
  In  In5  1  0.01093591  0.82831635  0.63116816  1
  In  In6  1  0.34634157  0.18217927  0.10624460  1
  In  In7  1  0.33562235  0.16340022  0.63023526  1
  In  In8  1  0.33639783  0.50717793  0.13446935  1
  In  In9  1  0.31986623  0.50160995  0.62785974  1
  In  In10  1  0.31824319  0.82061898  0.12196381  1
  In  In11  1  0.33460133  0.84035946  0.62616819  1
  In  In12  1  0.66295965  0.16713321  0.12025236  1
  In  In13  1  0.66113974  0.17348703  0.62437919  1
  In  In14  1  0.66110634  0.50082726  0.12877884  1
  In  In15  1  0.67710818  0.50502371  0.63050402  1
  In  In16  1  0.66887247  0.83147901  0.11654973  1
  In  In17  1  0.65272055  0.82553306  0.62949089  1
  In  In18  1  0.15243266  0.00091519  0.36774525  1
  In  In19  1  0.17043388  -0.00251843  0.87188943  1
  In  In20  1  0.18147003  0.33482107  0.36751843  1
  In  In21  1  0.16851593  0.33452278  0.88226979  1
  In  In22  1  0.17562301  0.66237383  0.38497702  1
  In  In23  1  0.16325589  0.67582263  0.88184759  1
  In  In24  1  0.50697439  -0.00544365  0.36895498  1
  In  In25  1  0.48849344  0.00933190  0.88739062  1
  In  In26  1  0.48859367  0.32737385  0.36201628  1
  In  In27  1  0.48349634  0.32662123  0.88038627  1
  In  In28  1  0.48820371  0.65261870  0.34888606  1
  In  In29  1  0.51341193  0.66641901  0.88042698  1
  In  In30  1  0.83187432  -0.00075200  0.35989910  1
  In  In31  1  0.84341195  -0.00155155  0.88153274  1
  In  In32  1  0.82905369  0.34692222  0.36997898  1
  In  In33  1  0.84405347  0.32357268  0.89255823  1
  In  In34  1  0.82847101  0.66499433  0.36762791  1
  In  In35  1  0.81907396  0.67231555  0.89598319  1
  In  In36  1  0.01081229  0.15740909  0.36770270  1
  In  In37  1  0.00439756  0.16896203  0.87936832  1
  In  In38  1  0.00398724  0.51082840  0.37499092  1
  In  In39  1  0.01317577  0.49618876  0.88618135  1
  In  In40  1  0.00284239  0.84266159  0.37112491  1
  In  In41  1  -0.00246756  0.83806743  0.87634500  1
  In  In42  1  0.33351049  0.18238262  0.36964647  1
  In  In43  1  0.33284170  0.16324698  0.88195472  1
  In  In44  1  0.33249028  0.49546316  0.36827083  1
  In  In45  1  0.32911338  0.47922184  0.87692210  1
  In  In46  1  0.32682325  0.82774472  0.37145968  1
  In  In47  1  0.32052591  0.84988403  0.88493533  1
  In  In48  1  0.65615271  0.15784701  0.36287865  1
  In  In49  1  0.66432328  0.18090025  0.89607815  1
  In  In50  1  0.64362694  0.48387185  0.34209532  1
  In  In51  1  0.66450046  0.51022081  0.88278387  1
  In  In52  1  0.65600360  0.82694513  0.35567107  1
  In  In53  1  0.66985673  0.82111339  0.89225279  1
  In  In54  1  0.15551747  -0.00907782  0.12277247  1
  In  In55  1  0.17607409  -0.00975352  0.64450520  1
  In  In56  1  0.18602057  0.34552599  0.10819373  1
  In  In57  1  0.16654209  0.33360278  0.63640834  1
  In  In58  1  0.17909869  0.67687110  0.12308853  1
  In  In59  1  0.17685315  0.66608848  0.61463190  1
  In  In60  1  0.51276659  0.01206496  0.11653634  1
  In  In61  1  0.48576907  -0.00138671  0.62669122  1
  In  In62  1  0.50485800  0.33378379  0.12855658  1
  In  In63  1  0.50470245  0.31913172  0.62453695  1
  In  In64  1  0.48691334  0.66684037  0.13422850  1
  In  In65  1  0.50470217  0.67563396  0.63150094  1
  In  In66  1  0.83484762  -0.00060217  0.12149582  1
  In  In67  1  0.83856054  0.00881556  0.63243574  1
  In  In68  1  0.79635431  0.31746381  0.09058662  1
  In  In69  1  0.84056768  0.34795205  0.63344504  1
  In  In70  1  0.81851060  0.66187958  0.10577755  1
  In  In71  1  0.82377556  0.65826241  0.63050862  1
  In  In72  1  0.83906162  0.16985357  0.50616209  1
  In  In73  1  0.67087459  -0.00615876  0.76184118  1
  In  In74  1  0.17013889  0.16738403  0.49878682  1
  In  In75  1  0.67115865  0.33411640  0.75605601  1
  In  In76  1  0.49571315  0.50069056  0.48858360  1
  In  In77  1  0.33013180  0.00154794  0.24032981  1
  In  In78  1  0.83319542  0.50442214  0.50139548  1
  In  In79  1  0.83189342  0.83362654  0.49066917  1
  In  In80  1  -0.00519875  0.67100149  0.24439808  1
  In  In81  1  -0.00717762  0.32335261  0.24035131  1
  In  In82  1  0.33759003  0.66798753  0.75077302  1
  In  In83  1  0.49189127  0.82915540  0.49764260  1
  In  In84  1  0.50066956  0.49516906  0.00569089  1
  In  In85  1  -0.00062162  0.66724020  0.76447221  1
  Cu  Cu86  1  0.82823493  0.82766352  0.76536410  1
  Cu  Cu87  1  0.16724088  0.16576287  0.24004273  1
  Cu  Cu88  1  0.00385683  -0.00551834  0.49977340  1
  Cu  Cu89  1  0.83950641  0.16714260  0.76318378  1
  Cu  Cu90  1  0.82767280  0.16890586  0.23738289  1
  Cu  Cu91  1  0.49917888  0.17039991  0.23956227  1
  Cu  Cu92  1  0.50206857  0.49698761  0.76425715  1
  Cu  Cu93  1  0.66128996  0.66506867  0.49201073  1
  Cu  Cu94  1  0.83260355  0.83446267  0.23904084  1
  Cu  Cu95  1  0.00325266  0.00319750  -0.00544736  1
  Cu  Cu96  1  0.33638606  0.66191483  0.00205314  1
  Cu  Cu97  1  0.01121631  0.66422884  0.50219230  1
  Cu  Cu98  1  0.32951514  0.00762026  0.50472202  1
  Cu  Cu99  1  0.66177759  0.32073717  0.49517612  1
  Cu  Cu100  1  0.16800291  0.49736767  0.24859638  1
  Cu  Cu101  1  0.00563361  0.67161742  0.00276855  1
  Cu  Cu102  1  0.32934571  -0.00541310  0.00376043  1
  Cu  Cu103  1  0.50313274  0.83146309  0.75757963  1
  Cu  Cu104  1  0.65680496  0.00488500  0.48921371  1
  Cu  Cu105  1  0.83337665  0.50463658  0.75827620  1
  Cu  Cu106  1  0.49412274  0.15980961  0.75363519  1
  Cu  Cu107  1  0.01103197  0.33497194  0.50921872  1
  Cu  Cu108  1  0.33768202  0.33805835  0.49409485  1
  Cu  Cu109  1  0.82478166  0.49075714  0.23307026  1
  Cu  Cu110  1  0.16852340  0.17221621  0.76155037  1
  Cu  Cu111  1  0.50269001  0.84147743  0.23993790  1
  Cu  Cu112  1  0.16720387  0.49801975  0.75567834  1
  Cu  Cu113  1  0.00556511  0.33225528  0.00381275  1
  Cu  Cu114  1  0.67156898  -0.00124604  0.00109731  1
  Se  Se115  1  0.08565866  0.08217808  0.05208507  1
  Se  Se116  1  0.08011931  0.07931546  0.55967297  1
  Se  Se117  1  0.08601073  0.42349390  0.05173924  1
  Se  Se118  1  0.09375597  0.41820329  0.56132620  1
  Se  Se119  1  0.09079545  0.75364461  0.05467457  1
  Se  Se120  1  0.08682649  0.75421890  0.55502439  1
  Se  Se121  1  0.41839543  0.08046815  0.04789031  1
  Se  Se122  1  0.41715396  0.08776524  0.55515481  1
  Se  Se123  1  0.40529986  0.40984211  0.06145387  1
  Se  Se124  1  0.41664882  0.41215802  0.56029386  1
  Se  Se125  1  0.41450680  0.74696413  0.05717859  1
  Se  Se126  1  0.40705152  0.73747645  0.56024627  1
  Se  Se127  1  0.75226734  0.08477361  0.05420428  1
  Se  Se128  1  0.74011711  0.07316501  0.55702582  1
  Se  Se129  1  0.74881258  0.44480364  0.04820571  1
  Se  Se130  1  0.74029261  0.40454417  0.55643366  1
  Se  Se131  1  0.75739170  0.76455687  0.04248009  1
  Se  Se132  1  0.74034998  0.74359207  0.55513392  1
  Se  Se133  1  0.24001589  0.24006376  0.04329164  1
  Se  Se134  1  0.25808004  0.25879382  0.55812824  1
  Se  Se135  1  0.25417357  0.58102294  0.05895965  1
  Se  Se136  1  0.25264335  0.57660998  0.54970405  1
  Se  Se137  1  0.24356303  0.91189671  0.05444299  1
  Se  Se138  1  0.24942432  0.92569302  0.56067187  1
  Se  Se139  1  0.57777967  0.25193502  0.05521233  1
  Se  Se140  1  0.57809142  0.23945181  0.54816236  1
  Se  Se141  1  0.58139907  0.59514231  0.06094128  1
  Se  Se142  1  0.58697683  0.58524153  0.55822524  1
  Se  Se143  1  0.58270006  0.91631772  0.04986326  1
  Se  Se144  1  0.58672956  0.92180772  0.55626853  1
  Se  Se145  1  0.91737775  0.24896213  0.05231965  1
  Se  Se146  1  0.93002340  0.25696739  0.56985621  1
  Se  Se147  1  0.92074494  0.58483807  0.04978521  1
  Se  Se148  1  0.92765468  0.58901193  0.56486655  1
  Se  Se149  1  0.92040858  0.92033161  0.05039427  1
  Se  Se150  1  0.91689629  0.91976882  0.55949236  1
  Se  Se151  1  0.07859684  0.25775084  0.43812645  1
  Se  Se152  1  0.08740305  0.24805324  0.95029361  1
  Se  Se153  1  0.08858521  0.57519570  0.44993410  1
  Se  Se154  1  0.09112115  0.58711174  0.95158282  1
  Se  Se155  1  0.08759951  0.91500140  0.44488335  1
  Se  Se156  1  0.08586796  0.91647025  0.94313634  1
  Se  Se157  1  0.41962574  0.25215160  0.44270794  1
  Se  Se158  1  0.41984245  0.23888049  0.95258605  1
  Se  Se159  1  0.40846683  0.59821421  0.43576703  1
  Se  Se160  1  0.41114450  0.58138637  0.93914909  1
  Se  Se161  1  0.40651381  0.92804746  0.44032071  1
  Se  Se162  1  0.41952563  0.91155603  0.95351453  1
  Se  Se163  1  0.75069840  0.24937602  0.43574487  1
  Se  Se164  1  0.74830481  0.26127377  0.96244844  1
  Se  Se165  1  0.73982402  0.57960101  0.43416337  1
  Se  Se166  1  0.75299506  0.56895010  0.95918993  1
  Se  Se167  1  0.73714807  0.92151326  0.43223100  1
  Se  Se168  1  0.75527526  0.91741698  0.94701276  1
  Se  Se169  1  0.25593783  0.07896777  0.43285531  1
  Se  Se170  1  0.24805834  0.07617695  0.94681101  1
  Se  Se171  1  0.25093683  0.41767893  0.44214978  1
  Se  Se172  1  0.24638244  0.41868221  0.95367892  1
  Se  Se173  1  0.24741194  0.76075430  0.44788974  1
  Se  Se174  1  0.25307184  0.74983564  0.94992583  1
  Se  Se175  1  0.57304825  0.08886094  0.43962903  1
  Se  Se176  1  0.58457567  0.08297236  0.95206389  1
  Se  Se177  1  0.59182573  0.40955324  0.43440586  1
  Se  Se178  1  0.58571159  0.40635698  0.93982176  1
  Se  Se179  1  0.58013696  0.74350076  0.43276909  1
  Se  Se180  1  0.57992431  0.74427086  0.95805683  1
  Se  Se181  1  0.92214910  0.07626557  0.44025751  1
  Se  Se182  1  0.91576141  0.09050470  0.94851985  1
  Se  Se183  1  0.92759564  0.40953005  0.44493194  1
  Se  Se184  1  0.92225094  0.41986231  0.95297889  1
  Se  Se185  1  0.92558126  0.73604604  0.43919940  1
  Se  Se186  1  0.92174822  0.75301774  0.94768969  1
  Se  Se187  1  0.24972206  0.24914019  0.29357349  1
  Se  Se188  1  0.25452852  0.25286598  0.81325488  1
  Se  Se189  1  0.24371197  0.58198611  0.30665224  1
  Se  Se190  1  0.24699038  0.58096378  0.81343748  1
  Se  Se191  1  0.24124916  0.91485018  0.30279096  1
  Se  Se192  1  0.25654438  0.91955843  0.80174548  1
  Se  Se193  1  0.58224876  0.25161645  0.29731578  1
  Se  Se194  1  0.57898775  0.24036664  0.81048086  1
  Se  Se195  1  0.61145904  0.61228786  0.29877749  1
  Se  Se196  1  0.58816823  0.58483229  0.80554860  1
  Se  Se197  1  0.58631518  0.92607375  0.29168941  1
  Se  Se198  1  0.57826783  0.91032902  0.82236579  1
  Se  Se199  1  0.90512214  0.23792910  0.31011270  1
  Se  Se200  1  0.92013369  0.25635335  0.81176875  1
  Se  Se201  1  0.90501340  0.56663574  0.29911257  1
  Se  Se202  1  0.90896243  0.58100591  0.82444516  1
  Se  Se203  1  0.91686708  0.91249125  0.29755536  1
  Se  Se204  1  0.91422229  0.91766345  0.80497613  1
  Se  Se205  1  0.08208194  0.08162538  0.29008213  1
  Se  Se206  1  0.08294266  0.08512793  0.80799440  1
  Se  Se207  1  0.08066421  0.41769067  0.30481995  1
  Se  Se208  1  0.08444405  0.41594943  0.80983146  1
  Se  Se209  1  0.08584519  0.74649808  0.31200551  1
  Se  Se210  1  0.09596636  0.76526141  0.80621863  1
  Se  Se211  1  0.42041169  0.09070506  0.30420904  1
  Se  Se212  1  0.41194924  0.07843957  0.80809757  1
  Se  Se213  1  0.43571771  0.43803482  0.30266210  1
  Se  Se214  1  0.41454756  0.40817296  0.80301457  1
  Se  Se215  1  0.41917209  0.76484786  0.29921253  1
  Se  Se216  1  0.41991519  0.75422352  0.81814499  1
  Se  Se217  1  0.74778838  0.08403235  0.29563318  1
  Se  Se218  1  0.74899886  0.09609712  0.82028081  1
  Se  Se219  1  0.74694046  0.40464611  0.28986675  1
  Se  Se220  1  0.75830722  0.41964875  0.81946937  1
  Se  Se221  1  0.75469415  0.74995946  0.29638716  1
  Se  Se222  1  0.74507872  0.74357358  0.81509338  1
  Se  Se223  1  0.24951836  0.09314964  0.17662185  1
  Se  Se224  1  0.24933601  0.09152917  0.70204107  1
  Se  Se225  1  0.24975759  0.41304205  0.19484232  1
  Se  Se226  1  0.25372570  0.41616737  0.70272169  1
  Se  Se227  1  0.25502233  0.74329644  0.20267679  1
  Se  Se228  1  0.24406337  0.75466845  0.69220355  1
  Se  Se229  1  0.58683014  0.08460848  0.19543199  1
  Se  Se230  1  0.58185759  0.08308759  0.69497168  1
  Se  Se231  1  0.57537602  0.42511903  0.19808885  1
  Se  Se232  1  0.57944563  0.42166078  0.69275601  1
  Se  Se233  1  0.58373192  0.75429178  0.18906452  1
  Se  Se234  1  0.58679188  0.74523823  0.70754672  1
  Se  Se235  1  0.91575048  0.08126487  0.19497335  1
  Se  Se236  1  0.91827828  0.08164047  0.70659764  1
  Se  Se237  1  0.90277315  0.40592213  0.17704449  1
  Se  Se238  1  0.91979659  0.42200235  0.70765624  1
  Se  Se239  1  0.90871861  0.75268341  0.17728037  1
  Se  Se240  1  0.90653582  0.75099342  0.69703894  1
  Se  Se241  1  0.09051179  0.24814226  0.17842121  1
  Se  Se242  1  0.08314478  0.25508349  0.70666422  1
  Se  Se243  1  0.08671331  0.57715954  0.18911570  1
  Se  Se244  1  0.09339310  0.58662567  0.69670026  1
  Se  Se245  1  0.08676959  0.90970744  0.19934795  1
  Se  Se246  1  0.06336344  0.93031365  0.69754004  1
  Se  Se247  1  0.41019856  0.25203491  0.19148867  1
  Se  Se248  1  0.41931355  0.24871628  0.69735552  1
  Se  Se249  1  0.41679862  0.58243196  0.20806643  1
  Se  Se250  1  0.42827533  0.57207545  0.69336386  1
  Se  Se251  1  0.42087160  0.91702426  0.17820573  1
  Se  Se252  1  0.42109872  0.91014514  0.70002543  1
  Se  Se253  1  0.74853567  0.25579003  0.18526351  1
  Se  Se254  1  0.76199221  0.24090682  0.69430936  1
  Se  Se255  1  0.75109285  0.59028013  0.18914276  1
  Se  Se256  1  0.74633238  0.58558454  0.70706492  1
  Se  Se257  1  0.74721769  0.91753252  0.18841420  1
  Se  Se258  1  0.75550914  0.90489326  0.69312842  1
