# generated using pymatgen
data_In86Cu29Se144
_symmetry_space_group_name_H-M   'P 1'
_cell_length_a   17.58275878
_cell_length_b   17.58188583
_cell_length_c   23.44669773
_cell_angle_alpha   90.01235569
_cell_angle_beta   89.98121631
_cell_angle_gamma   90.00273346
_symmetry_Int_Tables_number   1
_chemical_formula_structural   In86Cu29Se144
_chemical_formula_sum   'In86 Cu29 Se144'
_cell_volume   7248.26602251
_cell_formula_units_Z   1
loop_
 _symmetry_equiv_pos_site_id
 _symmetry_equiv_pos_as_xyz
  1  'x, y, z'
loop_
 _atom_site_type_symbol
 _atom_site_label
 _atom_site_symmetry_multiplicity
 _atom_site_fract_x
 _atom_site_fract_y
 _atom_site_fract_z
 _atom_site_occupancy
  In  In0  1  0.00092287  0.16132401  0.11641377  1
  In  In1  1  0.00013220  0.17339132  0.61034917  1
  In  In2  1  0.01110363  0.49606805  0.13051401  1
  In  In3  1  0.00747139  0.50440020  0.61436121  1
  In  In4  1  -0.00926088  0.82191760  0.13212469  1
  In  In5  1  -0.01508310  0.83113687  0.62381519  1
  In  In6  1  0.33371231  0.17415748  0.12744532  1
  In  In7  1  0.33930095  0.17198768  0.61598196  1
  In  In8  1  0.33489013  0.50175498  0.13109337  1
  In  In9  1  0.33929820  0.50236468  0.61804498  1
  In  In10  1  0.34471588  0.82398074  0.12916379  1
  In  In11  1  0.32106270  0.82240318  0.62399812  1
  In  In12  1  0.66781453  0.17476775  0.11294433  1
  In  In13  1  0.66618503  0.16877453  0.62811608  1
  In  In14  1  0.66207915  0.50598365  0.12020545  1
  In  In15  1  0.66450485  0.49859796  0.62570479  1
  In  In16  1  0.66461237  0.84140308  0.12288116  1
  In  In17  1  0.67490829  0.82408106  0.63364070  1
  In  In18  1  0.17749666  0.00552556  0.36754522  1
  In  In19  1  0.17287244  0.00341388  0.88048071  1
  In  In20  1  0.17378888  0.32548813  0.38156914  1
  In  In21  1  0.16919318  0.33291970  0.88171670  1
  In  In22  1  0.16070476  0.65776673  0.37046385  1
  In  In23  1  0.16263195  0.64937787  0.87027945  1
  In  In24  1  0.50300680  0.01264190  0.37180674  1
  In  In25  1  0.50608202  -0.00911107  0.88045046  1
  In  In26  1  0.48673291  0.34516273  0.37817652  1
  In  In27  1  0.52640084  0.32019637  0.89682580  1
  In  In28  1  0.48779423  0.65828863  0.37121181  1
  In  In29  1  0.49842609  0.66447266  0.87463623  1
  In  In30  1  0.83100631  0.00338475  0.38173110  1
  In  In31  1  0.83020666  0.01981113  0.87673644  1
  In  In32  1  0.83088782  0.33719515  0.38467907  1
  In  In33  1  0.81733484  0.32779556  0.87264779  1
  In  In34  1  0.83755197  0.65960752  0.38333416  1
  In  In35  1  0.83526568  0.66901820  0.86524791  1
  In  In36  1  -0.00850822  0.18253951  0.38742727  1
  In  In37  1  -0.00741582  0.16503513  0.88776134  1
  In  In38  1  -0.00990077  0.50921493  0.38644494  1
  In  In39  1  -0.00043854  0.50812053  0.87475141  1
  In  In40  1  -0.00642407  0.82082366  0.37174403  1
  In  In41  1  0.00904043  0.82586613  0.87300505  1
  In  In42  1  0.33504627  0.17093383  0.37070768  1
  In  In43  1  0.33552458  0.17442504  0.88401100  1
  In  In44  1  0.33585689  0.49630691  0.37222757  1
  In  In45  1  0.33369945  0.50012593  0.87933159  1
  In  In46  1  0.32714609  0.82866814  0.36140585  1
  In  In47  1  0.34449606  0.83149766  0.87880883  1
  In  In48  1  0.66424197  0.16456020  0.38255058  1
  In  In49  1  0.67041877  0.16542693  0.87356082  1
  In  In50  1  0.66571411  0.49994143  0.38401251  1
  In  In51  1  0.65562914  0.49159543  0.86606200  1
  In  In52  1  0.67231959  0.84059819  0.38102711  1
  In  In53  1  0.65783640  0.82512967  0.86590374  1
  In  In54  1  0.16826881  0.02264378  0.12528009  1
  In  In55  1  0.15781168  0.00073628  0.62279951  1
  In  In56  1  0.17098903  0.34524157  0.12137791  1
  In  In57  1  0.16294417  0.33380322  0.60557479  1
  In  In58  1  0.17594071  0.65752575  0.13309090  1
  In  In59  1  0.17462983  0.65171679  0.62981578  1
  In  In60  1  0.49733283  -0.00133239  0.11782822  1
  In  In61  1  0.50207223  0.01373350  0.62798098  1
  In  In62  1  0.49688603  0.32681392  0.11946762  1
  In  In63  1  0.51039403  0.34118518  0.62216538  1
  In  In64  1  0.48287520  0.65120499  0.10953957  1
  In  In65  1  0.50784414  0.65534144  0.63391737  1
  In  In66  1  0.82912174  0.00091192  0.12680030  1
  In  In67  1  0.82947645  -0.00535485  0.62031624  1
  In  In68  1  0.84137923  0.33033066  0.12784150  1
  In  In69  1  0.82305944  0.32274074  0.61494205  1
  In  In70  1  0.84005041  0.67138539  0.13745168  1
  In  In71  1  0.83092097  0.66671777  0.62538700  1
  In  In72  1  0.16931505  0.83892894  -0.00057844  1
  In  In73  1  0.16285753  0.83542163  0.49054468  1
  In  In74  1  0.82984778  0.49483849  -0.00083482  1
  In  In75  1  0.66534821  -0.00152684  0.24572594  1
  In  In76  1  0.66441959  0.66639479  0.25451440  1
  In  In77  1  0.00452929  0.00183880  0.24956364  1
  In  In78  1  0.33940979  0.34568932  0.74983860  1
  In  In79  1  -0.00440830  0.33620554  0.73604299  1
  In  In80  1  0.83141904  0.83733743  0.00614003  1
  In  In81  1  0.66429584  0.33706062  0.24831712  1
  In  In82  1  -0.00016846  0.33912689  0.25878853  1
  In  In83  1  0.33853478  -0.00603454  0.75733543  1
  In  In84  1  0.50195152  0.83284119  0.49700366  1
  In  In85  1  -0.00629365  -0.00422703  0.74921305  1
  Cu  Cu86  1  0.00524473  0.66156733  0.00115227  1
  Cu  Cu87  1  0.51036866  0.17176579  0.75387528  1
  Cu  Cu88  1  0.66443349  0.00168162  -0.00245637  1
  Cu  Cu89  1  0.00172631  0.33040869  0.00352336  1
  Cu  Cu90  1  0.17312373  0.83608765  0.24863754  1
  Cu  Cu91  1  0.33337967  0.66382487  0.00387350  1
  Cu  Cu92  1  0.49827760  0.83160437  0.75389521  1
  Cu  Cu93  1  0.82824598  0.50622785  0.74641014  1
  Cu  Cu94  1  0.33096948  0.33908988  0.00552757  1
  Cu  Cu95  1  0.16953323  0.17784964  0.25009760  1
  Cu  Cu96  1  0.66939237  0.00246382  0.50426418  1
  Cu  Cu97  1  0.16907059  0.16086207  0.74868729  1
  Cu  Cu98  1  0.49445166  0.17151390  0.24901615  1
  Cu  Cu99  1  0.50003338  0.49905609  0.75197492  1
  Cu  Cu100  1  0.33679546  0.00718780  0.49344427  1
  Cu  Cu101  1  0.82936740  0.17130899  0.74697949  1
  Cu  Cu102  1  0.49598220  0.82920828  0.24207657  1
  Cu  Cu103  1  0.33738138  0.32960743  0.49413646  1
  Cu  Cu104  1  -0.00134128  0.67293533  0.50162801  1
  Cu  Cu105  1  0.33546162  0.65487575  0.50015075  1
  Cu  Cu106  1  0.16438547  0.50002897  0.74675221  1
  Cu  Cu107  1  0.16577193  0.81357301  0.75039258  1
  Cu  Cu108  1  0.82735658  0.83336741  0.74642334  1
  Cu  Cu109  1  0.66180060  0.66935720  -0.00774572  1
  Cu  Cu110  1  0.33192715  0.01007580  0.00355150  1
  Cu  Cu111  1  0.66787779  0.66356216  0.50807516  1
  Cu  Cu112  1  -0.00074925  0.00786285  0.49865372  1
  Cu  Cu113  1  0.66046558  0.32960471  0.50233959  1
  Cu  Cu114  1  0.16972211  0.50314663  0.25228159  1
  Se  Se115  1  0.08575937  0.08339591  0.04849683  1
  Se  Se116  1  0.08948687  0.08525504  0.55001388  1
  Se  Se117  1  0.08144986  0.42088367  0.05213079  1
  Se  Se118  1  0.07353180  0.41289623  0.54367043  1
  Se  Se119  1  0.08257214  0.74521741  0.06040999  1
  Se  Se120  1  0.08472843  0.74861495  0.56172345  1
  Se  Se121  1  0.41698349  0.09205644  0.05637895  1
  Se  Se122  1  0.42086060  0.08256249  0.55163125  1
  Se  Se123  1  0.41542972  0.42133650  0.05826960  1
  Se  Se124  1  0.41700995  0.41114257  0.55373601  1
  Se  Se125  1  0.41756200  0.75595843  0.04727766  1
  Se  Se126  1  0.41311485  0.74116254  0.55816528  1
  Se  Se127  1  0.74978263  0.07788690  0.05461547  1
  Se  Se128  1  0.75098554  0.08804950  0.55762283  1
  Se  Se129  1  0.74340702  0.40494957  0.06038612  1
  Se  Se130  1  0.74317651  0.41693587  0.55323351  1
  Se  Se131  1  0.74400708  0.73653310  0.06036107  1
  Se  Se132  1  0.75044479  0.75319613  0.55508305  1
  Se  Se133  1  0.24755741  0.25224261  0.05673962  1
  Se  Se134  1  0.25230850  0.24590672  0.54695774  1
  Se  Se135  1  0.25040546  0.58081407  0.05730626  1
  Se  Se136  1  0.24530008  0.57612833  0.55104059  1
  Se  Se137  1  0.25745152  0.92396339  0.06401693  1
  Se  Se138  1  0.25724470  0.92429433  0.55331926  1
  Se  Se139  1  0.58056000  0.25161461  0.04790588  1
  Se  Se140  1  0.57915513  0.24392727  0.55632953  1
  Se  Se141  1  0.58319416  0.58214129  0.04650459  1
  Se  Se142  1  0.57892861  0.58019326  0.55529451  1
  Se  Se143  1  0.58295183  0.91556888  0.05034708  1
  Se  Se144  1  0.58771177  0.91915644  0.56290536  1
  Se  Se145  1  0.91471809  0.24936752  0.05405880  1
  Se  Se146  1  0.91703703  0.25619336  0.54654678  1
  Se  Se147  1  0.91914738  0.58651864  0.06109504  1
  Se  Se148  1  0.91494468  0.58860902  0.55431522  1
  Se  Se149  1  0.92898799  0.92267932  0.06231765  1
  Se  Se150  1  0.91984515  0.92010006  0.55133327  1
  Se  Se151  1  0.08965175  0.24801719  0.45062455  1
  Se  Se152  1  0.08495242  0.24876816  0.94720617  1
  Se  Se153  1  0.08388334  0.58989940  0.44956314  1
  Se  Se154  1  0.08608729  0.57655161  0.94864370  1
  Se  Se155  1  0.07376655  0.92891773  0.43266083  1
  Se  Se156  1  0.07175966  0.92543876  0.94261000  1
  Se  Se157  1  0.42196043  0.24403948  0.44365437  1
  Se  Se158  1  0.41605263  0.25580571  0.95289938  1
  Se  Se159  1  0.42035146  0.57485461  0.44632422  1
  Se  Se160  1  0.41748902  0.58376725  0.94658155  1
  Se  Se161  1  0.40880307  0.91802643  0.43485500  1
  Se  Se162  1  0.41102524  0.92278816  0.94907804  1
  Se  Se163  1  0.74664524  0.24940197  0.44861946  1
  Se  Se164  1  0.75837675  0.23780942  0.94515938  1
  Se  Se165  1  0.75062926  0.58127309  0.45143469  1
  Se  Se166  1  0.74762522  0.58989223  0.93650379  1
  Se  Se167  1  0.75277715  0.91795000  0.45231717  1
  Se  Se168  1  0.74379563  0.91791736  0.93770050  1
  Se  Se169  1  0.25055860  0.08739074  0.44092175  1
  Se  Se170  1  0.24831504  0.09028338  0.94843857  1
  Se  Se171  1  0.25427869  0.41755959  0.44498531  1
  Se  Se172  1  0.24847918  0.41973315  0.94780486  1
  Se  Se173  1  0.25988092  0.74155007  0.44091733  1
  Se  Se174  1  0.25157247  0.74027824  0.94018631  1
  Se  Se175  1  0.58157723  0.07970500  0.45010552  1
  Se  Se176  1  0.58257773  0.08509934  0.94304492  1
  Se  Se177  1  0.57997343  0.41460901  0.44765381  1
  Se  Se178  1  0.59036158  0.42962093  0.95206724  1
  Se  Se179  1  0.59006488  0.73706425  0.43938382  1
  Se  Se180  1  0.57802306  0.75502749  0.94277624  1
  Se  Se181  1  0.91059730  0.08929597  0.44920922  1
  Se  Se182  1  0.91674135  0.07608771  0.95306103  1
  Se  Se183  1  0.92531641  0.40793153  0.44985929  1
  Se  Se184  1  0.92237480  0.40596414  0.93754376  1
  Se  Se185  1  0.91322826  0.75501832  0.44984545  1
  Se  Se186  1  0.92176671  0.74303462  0.94516496  1
  Se  Se187  1  0.25441750  0.25890421  0.30290297  1
  Se  Se188  1  0.24756724  0.24622681  0.80519095  1
  Se  Se189  1  0.25537837  0.58650200  0.30453111  1
  Se  Se190  1  0.25346830  0.57436920  0.80261000  1
  Se  Se191  1  0.25598308  0.92486135  0.29616942  1
  Se  Se192  1  0.23853784  0.90239729  0.80995735  1
  Se  Se193  1  0.57798832  0.24533575  0.31077749  1
  Se  Se194  1  0.58874193  0.25707894  0.80842180  1
  Se  Se195  1  0.57577032  0.56897788  0.30719724  1
  Se  Se196  1  0.58302490  0.58782028  0.80213511  1
  Se  Se197  1  0.57491384  0.90571204  0.30681258  1
  Se  Se198  1  0.58155219  0.92039587  0.80124026  1
  Se  Se199  1  0.90356795  0.24579895  0.30876575  1
  Se  Se200  1  0.91766807  0.24488391  0.80556247  1
  Se  Se201  1  0.92382858  0.59122507  0.30979098  1
  Se  Se202  1  0.91802852  0.58087232  0.80093264  1
  Se  Se203  1  0.91001638  0.91629043  0.30894416  1
  Se  Se204  1  0.90574675  0.90838762  0.81348038  1
  Se  Se205  1  0.08479106  0.10100826  0.31041877  1
  Se  Se206  1  0.08574980  0.08693475  0.80898876  1
  Se  Se207  1  0.09147035  0.42687021  0.31722988  1
  Se  Se208  1  0.08630112  0.41577097  0.80565714  1
  Se  Se209  1  0.09103003  0.75602596  0.30525942  1
  Se  Se210  1  0.07867368  0.73608797  0.80392639  1
  Se  Se211  1  0.41527300  0.08271190  0.30111037  1
  Se  Se212  1  0.42364134  0.09372115  0.81176766  1
  Se  Se213  1  0.41320584  0.41370962  0.29993452  1
  Se  Se214  1  0.43282153  0.41509831  0.81871326  1
  Se  Se215  1  0.41747289  0.74601986  0.29956470  1
  Se  Se216  1  0.41351309  0.74790825  0.80457743  1
  Se  Se217  1  0.75161445  0.08858829  0.30786861  1
  Se  Se218  1  0.74902588  0.08395143  0.79891161  1
  Se  Se219  1  0.75492133  0.42426507  0.31056253  1
  Se  Se220  1  0.75138470  0.41841295  0.80114625  1
  Se  Se221  1  0.75533557  0.75540882  0.31313059  1
  Se  Se222  1  0.74621258  0.74672340  0.79928818  1
  Se  Se223  1  0.25211112  0.09075629  0.19951792  1
  Se  Se224  1  0.25176403  0.08218928  0.69038772  1
  Se  Se225  1  0.24864752  0.41694854  0.19800767  1
  Se  Se226  1  0.23944478  0.41714184  0.68502525  1
  Se  Se227  1  0.25498205  0.74925605  0.19695866  1
  Se  Se228  1  0.25556301  0.73732089  0.69878016  1
  Se  Se229  1  0.57846110  0.09435713  0.18839624  1
  Se  Se230  1  0.58763485  0.08335183  0.70052782  1
  Se  Se231  1  0.57437792  0.42521928  0.18886630  1
  Se  Se232  1  0.58474928  0.41600332  0.69896933  1
  Se  Se233  1  0.57928585  0.74975780  0.18508879  1
  Se  Se234  1  0.58157302  0.74933065  0.69854224  1
  Se  Se235  1  0.91102146  0.09275952  0.19360530  1
  Se  Se236  1  0.91518771  0.09383324  0.68756215  1
  Se  Se237  1  0.90816048  0.42777030  0.19696809  1
  Se  Se238  1  0.90378135  0.42730196  0.68123587  1
  Se  Se239  1  0.92270219  0.74460340  0.20869497  1
  Se  Se240  1  0.91419984  0.74886146  0.69760151  1
  Se  Se241  1  0.08271276  0.25069085  0.18980913  1
  Se  Se242  1  0.09480694  0.24220084  0.68643949  1
  Se  Se243  1  0.08245550  0.58493620  0.20074688  1
  Se  Se244  1  0.07703054  0.58072248  0.69477068  1
  Se  Se245  1  0.09328586  0.91252950  0.18624714  1
  Se  Se246  1  0.09044493  0.90253343  0.69319483  1
  Se  Se247  1  0.41480957  0.25860571  0.19702501  1
  Se  Se248  1  0.42358873  0.24480773  0.69348986  1
  Se  Se249  1  0.41580577  0.59337440  0.19491532  1
  Se  Se250  1  0.41294806  0.57679661  0.69679888  1
  Se  Se251  1  0.41877885  0.92172373  0.19275041  1
  Se  Se252  1  0.41989286  0.90671606  0.68691127  1
  Se  Se253  1  0.75399957  0.24082922  0.19297232  1
  Se  Se254  1  0.74671841  0.25717273  0.69624213  1
  Se  Se255  1  0.75418350  0.57322799  0.19417584  1
  Se  Se256  1  0.74302983  0.58790800  0.69364461  1
  Se  Se257  1  0.76198435  0.90151057  0.19659493  1
  Se  Se258  1  0.74862875  0.92333011  0.69622058  1
