# generated using pymatgen
data_In86Cu29Se144
_symmetry_space_group_name_H-M   'P 1'
_cell_length_a   17.58012065
_cell_length_b   17.57828956
_cell_length_c   23.43710395
_cell_angle_alpha   90.00238493
_cell_angle_beta   90.00938216
_cell_angle_gamma   89.97654629
_symmetry_Int_Tables_number   1
_chemical_formula_structural   In86Cu29Se144
_chemical_formula_sum   'In86 Cu29 Se144'
_cell_volume   7242.73122564
_cell_formula_units_Z   1
loop_
 _symmetry_equiv_pos_site_id
 _symmetry_equiv_pos_as_xyz
  1  'x, y, z'
loop_
 _atom_site_type_symbol
 _atom_site_label
 _atom_site_symmetry_multiplicity
 _atom_site_fract_x
 _atom_site_fract_y
 _atom_site_fract_z
 _atom_site_occupancy
  In  In0  1  0.00752329  0.17597654  0.11560760  1
  In  In1  1  -0.00264968  0.17007456  0.63266783  1
  In  In2  1  -0.00400565  0.47916305  0.12585395  1
  In  In3  1  -0.00111271  0.49467628  0.62109126  1
  In  In4  1  -0.00242110  0.83054903  0.11651078  1
  In  In5  1  -0.01225947  0.84528601  0.63491729  1
  In  In6  1  0.33856902  0.17750310  0.11767887  1
  In  In7  1  0.34724468  0.17935626  0.62558423  1
  In  In8  1  0.33659935  0.50064738  0.12496045  1
  In  In9  1  0.32056558  0.48363957  0.61272457  1
  In  In10  1  0.32488223  0.82868587  0.12284439  1
  In  In11  1  0.32713310  0.82400143  0.62686871  1
  In  In12  1  0.66254577  0.15975771  0.12124354  1
  In  In13  1  0.65755727  0.16639881  0.62444951  1
  In  In14  1  0.66453408  0.51588429  0.13293651  1
  In  In15  1  0.67368727  0.50905383  0.61122655  1
  In  In16  1  0.67996596  0.83152495  0.13472311  1
  In  In17  1  0.67734891  0.82797359  0.63492764  1
  In  In18  1  0.15861604  -0.00300459  0.37338288  1
  In  In19  1  0.15355390  0.01135939  0.88399589  1
  In  In20  1  0.17719862  0.33822360  0.36591787  1
  In  In21  1  0.16476508  0.33536486  0.87068727  1
  In  In22  1  0.15546266  0.64672299  0.37241005  1
  In  In23  1  0.17228486  0.65944289  0.88569720  1
  In  In24  1  0.52285471  -0.00542327  0.37983013  1
  In  In25  1  0.51585228  0.00389457  0.87446650  1
  In  In26  1  0.48938005  0.34649707  0.37929331  1
  In  In27  1  0.49188549  0.34067622  0.88428300  1
  In  In28  1  0.49393045  0.64788950  0.35550660  1
  In  In29  1  0.50824730  0.65537072  0.87671461  1
  In  In30  1  0.81172196  -0.00805522  0.37536938  1
  In  In31  1  0.83869236  0.00127439  0.87198517  1
  In  In32  1  0.85020323  0.33741808  0.37329951  1
  In  In33  1  0.83342088  0.31838472  0.87604047  1
  In  In34  1  0.82262669  0.67383285  0.38166509  1
  In  In35  1  0.83391226  0.67957768  0.87502314  1
  In  In36  1  -0.00820583  0.17417860  0.37353720  1
  In  In37  1  -0.00029123  0.16783201  0.87220193  1
  In  In38  1  0.01111570  0.48608199  0.38885469  1
  In  In39  1  0.01604756  0.49420056  0.87401781  1
  In  In40  1  -0.00996630  0.81851584  0.37783154  1
  In  In41  1  -0.01753501  0.84578071  0.88499483  1
  In  In42  1  0.33727522  0.18502719  0.36904727  1
  In  In43  1  0.32115177  0.17940248  0.88548858  1
  In  In44  1  0.33473435  0.49523160  0.36771349  1
  In  In45  1  0.33744062  0.49522516  0.87799859  1
  In  In46  1  0.34612278  0.82660559  0.37068867  1
  In  In47  1  0.32894850  0.82178277  0.87906629  1
  In  In48  1  0.66350492  0.15048200  0.37622985  1
  In  In49  1  0.67842766  0.16091747  0.88576667  1
  In  In50  1  0.65950434  0.51140920  0.37633537  1
  In  In51  1  0.65541436  0.49741120  0.87509361  1
  In  In52  1  0.67867049  0.82914692  0.36305335  1
  In  In53  1  0.69240980  0.85303994  0.85258066  1
  In  In54  1  0.15941701  -0.00294009  0.11291306  1
  In  In55  1  0.15647660  -0.00956574  0.63307630  1
  In  In56  1  0.16722327  0.33883164  0.12003522  1
  In  In57  1  0.15434882  0.35699865  0.64794453  1
  In  In58  1  0.17425956  0.66844721  0.11980989  1
  In  In59  1  0.17266205  0.65493334  0.62558576  1
  In  In60  1  0.50796371  0.01320514  0.12340569  1
  In  In61  1  0.50296898  0.01766600  0.62523295  1
  In  In62  1  0.49271886  0.32935764  0.12405690  1
  In  In63  1  0.49420942  0.33109764  0.61971247  1
  In  In64  1  0.50756257  0.65496534  0.13457978  1
  In  In65  1  0.51100025  0.66662586  0.62166828  1
  In  In66  1  0.82271720  -0.00714078  0.12055185  1
  In  In67  1  0.83172036  -0.00522580  0.63141311  1
  In  In68  1  0.85172942  0.34151295  0.12870851  1
  In  In69  1  0.84100288  0.34296387  0.61961778  1
  In  In70  1  0.82326216  0.67393558  0.12903018  1
  In  In71  1  0.82614146  0.66215235  0.62117820  1
  In  In72  1  -0.00688810  0.00602817  0.25410900  1
  In  In73  1  0.33678091  0.65799002  0.75451304  1
  In  In74  1  -0.00278654  0.66500150  0.75167979  1
  In  In75  1  0.33930745  0.00291404  0.24064508  1
  In  In76  1  0.66508500  0.33656988  0.25320552  1
  In  In77  1  0.50976317  0.82983318  0.49899173  1
  In  In78  1  0.16249336  0.82314124  0.50910381  1
  In  In79  1  0.50368970  0.83290637  -0.00627700  1
  In  In80  1  0.83183933  0.17120180  0.50346259  1
  In  In81  1  -0.00893065  0.65799809  0.24669214  1
  In  In82  1  0.83119234  0.50265907  0.00971885  1
  In  In83  1  0.33321756  0.00437452  0.75228982  1
  In  In84  1  0.17196299  0.17339702  0.49981300  1
  In  In85  1  0.66709346  0.33110227  0.74862953  1
  Cu  Cu86  1  0.65938799  0.33317743  0.00355621  1
  Cu  Cu87  1  0.16647444  0.18045798  0.23850125  1
  Cu  Cu88  1  0.50706651  0.83476718  0.74563207  1
  Cu  Cu89  1  0.33583418  0.33862817  0.49594089  1
  Cu  Cu90  1  0.15442724  0.83428260  0.76082603  1
  Cu  Cu91  1  0.33244093  0.65878933  0.48910604  1
  Cu  Cu92  1  0.32925925  0.33434018  0.00082064  1
  Cu  Cu93  1  0.00165877  0.32965521  -0.00334559  1
  Cu  Cu94  1  0.50219746  0.16492320  0.24747751  1
  Cu  Cu95  1  0.16801226  0.83173164  0.24452299  1
  Cu  Cu96  1  0.83489333  0.17098538  0.25020085  1
  Cu  Cu97  1  0.33585218  0.00985738  0.50153617  1
  Cu  Cu98  1  -0.00840507  0.66159487  0.50111464  1
  Cu  Cu99  1  -0.00515574  0.00441389  -0.00267279  1
  Cu  Cu100  1  0.16861102  0.16714430  0.75753852  1
  Cu  Cu101  1  0.00403163  0.66797248  -0.00137654  1
  Cu  Cu102  1  -0.00883471  -0.00162856  0.50591463  1
  Cu  Cu103  1  0.17172746  0.49506232  0.24786310  1
  Cu  Cu104  1  0.50653157  0.82650262  0.24957395  1
  Cu  Cu105  1  0.33240093  0.00105135  0.00450444  1
  Cu  Cu106  1  0.50308118  0.17242689  0.75212298  1
  Cu  Cu107  1  0.66344428  0.33295780  0.49681773  1
  Cu  Cu108  1  0.83576755  0.16145257  0.75227652  1
  Cu  Cu109  1  0.50138738  0.49930638  0.74846269  1
  Cu  Cu110  1  0.66299001  0.66686172  0.49597817  1
  Cu  Cu111  1  0.66505355  0.67258795  0.00447807  1
  Cu  Cu112  1  0.33382532  0.66168483  0.00167173  1
  Cu  Cu113  1  0.67270391  0.00113881  -0.00334969  1
  Cu  Cu114  1  0.83442786  0.49969214  0.74254829  1
  Se  Se115  1  0.08283134  0.08709043  0.04703265  1
  Se  Se116  1  0.07986433  0.07732032  0.55833995  1
  Se  Se117  1  0.08156112  0.41787682  0.04856830  1
  Se  Se118  1  0.09404588  0.41628470  0.55952387  1
  Se  Se119  1  0.08811234  0.75150574  0.05285170  1
  Se  Se120  1  0.06749380  0.73911988  0.56941572  1
  Se  Se121  1  0.41811425  0.08408811  0.05424234  1
  Se  Se122  1  0.41886061  0.09222335  0.55351225  1
  Se  Se123  1  0.41570412  0.41558356  0.05383015  1
  Se  Se124  1  0.42333679  0.42103211  0.54817202  1
  Se  Se125  1  0.41801608  0.74391209  0.05811990  1
  Se  Se126  1  0.40588583  0.74151520  0.55325684  1
  Se  Se127  1  0.75304517  0.08650429  0.05164089  1
  Se  Se128  1  0.74435259  0.07701163  0.55925374  1
  Se  Se129  1  0.73977525  0.41037653  0.06669587  1
  Se  Se130  1  0.75074832  0.41248889  0.54980021  1
  Se  Se131  1  0.75042361  0.75615292  0.05429335  1
  Se  Se132  1  0.74270450  0.74837242  0.55445210  1
  Se  Se133  1  0.24429228  0.24887020  0.05138858  1
  Se  Se134  1  0.25641846  0.26361289  0.56153597  1
  Se  Se135  1  0.24920438  0.57714594  0.05272851  1
  Se  Se136  1  0.24890685  0.58256851  0.54875776  1
  Se  Se137  1  0.24947357  0.91256803  0.05154529  1
  Se  Se138  1  0.25645213  0.92619616  0.55906362  1
  Se  Se139  1  0.57858737  0.24700591  0.05673690  1
  Se  Se140  1  0.58307429  0.25057659  0.55323400  1
  Se  Se141  1  0.58435937  0.58522024  0.05485455  1
  Se  Se142  1  0.57710474  0.58217274  0.54594526  1
  Se  Se143  1  0.59186885  0.92000032  0.05785862  1
  Se  Se144  1  0.58638758  0.91814679  0.56734975  1
  Se  Se145  1  0.91300637  0.25427200  0.05170966  1
  Se  Se146  1  0.93397918  0.25758751  0.55390995  1
  Se  Se147  1  0.92654303  0.59284033  0.06528191  1
  Se  Se148  1  0.91110866  0.57712992  0.55626748  1
  Se  Se149  1  0.91526971  0.91935025  0.05288172  1
  Se  Se150  1  0.90911134  0.91314174  0.55656388  1
  Se  Se151  1  0.08213795  0.25771172  0.43730787  1
  Se  Se152  1  0.08502142  0.24924601  0.94064681  1
  Se  Se153  1  0.08487530  0.58204065  0.45513181  1
  Se  Se154  1  0.08351747  0.57757593  0.95027929  1
  Se  Se155  1  0.07469698  0.91733475  0.44665344  1
  Se  Se156  1  0.08123002  0.91579947  0.94912109  1
  Se  Se157  1  0.41832747  0.24951004  0.44698303  1
  Se  Se158  1  0.41764797  0.24904148  0.95152697  1
  Se  Se159  1  0.41870003  0.58042961  0.43649952  1
  Se  Se160  1  0.41815771  0.58339073  0.94503129  1
  Se  Se161  1  0.41097877  0.92232300  0.44333640  1
  Se  Se162  1  0.40977444  0.92649125  0.93723385  1
  Se  Se163  1  0.74507864  0.25514005  0.43546916  1
  Se  Se164  1  0.75010305  0.25438833  0.95341002  1
  Se  Se165  1  0.75008705  0.58020126  0.44890075  1
  Se  Se166  1  0.74433772  0.58769300  0.94317319  1
  Se  Se167  1  0.73578615  0.91023855  0.44513828  1
  Se  Se168  1  0.75263148  0.91702276  0.94108493  1
  Se  Se169  1  0.25599139  0.07881359  0.43486632  1
  Se  Se170  1  0.24828464  0.08352149  0.94974517  1
  Se  Se171  1  0.25054747  0.41845219  0.44113521  1
  Se  Se172  1  0.24795652  0.41530784  0.94300934  1
  Se  Se173  1  0.25011566  0.74581153  0.43634390  1
  Se  Se174  1  0.24930726  0.74930040  0.95334160  1
  Se  Se175  1  0.58310742  0.08330006  0.45331637  1
  Se  Se176  1  0.58272902  0.08580987  0.95113103  1
  Se  Se177  1  0.58352036  0.42016387  0.44422288  1
  Se  Se178  1  0.58092630  0.42135346  0.95091918  1
  Se  Se179  1  0.58242007  0.73911567  0.42938549  1
  Se  Se180  1  0.59813719  0.75076810  0.93342866  1
  Se  Se181  1  0.91791428  0.07559428  0.43944954  1
  Se  Se182  1  0.91393741  0.08879429  0.94244210  1
  Se  Se183  1  0.91657047  0.41121485  0.45315079  1
  Se  Se184  1  0.91648496  0.41502469  0.94147669  1
  Se  Se185  1  0.90974694  0.75095853  0.45383279  1
  Se  Se186  1  0.91255997  0.74962654  0.95247793  1
  Se  Se187  1  0.25474174  0.25423148  0.29427404  1
  Se  Se188  1  0.25507149  0.25240119  0.80395737  1
  Se  Se189  1  0.24835823  0.58339856  0.30239013  1
  Se  Se190  1  0.23988605  0.57208671  0.80841193  1
  Se  Se191  1  0.24728936  0.91311542  0.30568238  1
  Se  Se192  1  0.24440894  0.91327937  0.81384622  1
  Se  Se193  1  0.57697898  0.24401366  0.31310211  1
  Se  Se194  1  0.58245244  0.24813491  0.81715010  1
  Se  Se195  1  0.59475800  0.58243895  0.29304889  1
  Se  Se196  1  0.58640751  0.58192342  0.79975880  1
  Se  Se197  1  0.58615035  0.91403067  0.30129550  1
  Se  Se198  1  0.58424486  0.92378215  0.79771518  1
  Se  Se199  1  0.92217212  0.25463369  0.29750899  1
  Se  Se200  1  0.91717560  0.25080954  0.80116479  1
  Se  Se201  1  0.92200301  0.58119232  0.32567690  1
  Se  Se202  1  0.90893728  0.57242009  0.81329185  1
  Se  Se203  1  0.90887173  0.90894057  0.31059638  1
  Se  Se204  1  0.90941246  0.90796593  0.80349910  1
  Se  Se205  1  0.09467050  0.09913275  0.30474553  1
  Se  Se206  1  0.08175248  0.08092505  0.80318011  1
  Se  Se207  1  0.08344562  0.42004278  0.30449861  1
  Se  Se208  1  0.07862471  0.40981621  0.79897571  1
  Se  Se209  1  0.08708630  0.75334537  0.30535316  1
  Se  Se210  1  0.08243571  0.74900008  0.82062593  1
  Se  Se211  1  0.42427860  0.08292187  0.31112242  1
  Se  Se212  1  0.42087009  0.09365598  0.81368715  1
  Se  Se213  1  0.41369741  0.40942088  0.29919186  1
  Se  Se214  1  0.42154693  0.41838102  0.80568066  1
  Se  Se215  1  0.41424236  0.74614459  0.29537946  1
  Se  Se216  1  0.42791157  0.75702575  0.80796703  1
  Se  Se217  1  0.75261027  0.08594536  0.30183759  1
  Se  Se218  1  0.74806342  0.08535549  0.80672720  1
  Se  Se219  1  0.75534994  0.42267353  0.31378975  1
  Se  Se220  1  0.75769128  0.42149708  0.80937451  1
  Se  Se221  1  0.75596289  0.74031390  0.29762179  1
  Se  Se222  1  0.73764689  0.73107567  0.80280270  1
  Se  Se223  1  0.24036364  0.08728333  0.18423677  1
  Se  Se224  1  0.24434464  0.09217411  0.68828572  1
  Se  Se225  1  0.25287801  0.41316449  0.19185243  1
  Se  Se226  1  0.26705125  0.41708480  0.70100096  1
  Se  Se227  1  0.25151004  0.74571694  0.19624787  1
  Se  Se228  1  0.23629597  0.75453279  0.70102510  1
  Se  Se229  1  0.58980856  0.08184317  0.19981531  1
  Se  Se230  1  0.58559350  0.08668962  0.70151530  1
  Se  Se231  1  0.57398356  0.42246457  0.19200310  1
  Se  Se232  1  0.58344645  0.42288813  0.68569497  1
  Se  Se233  1  0.59186114  0.74515897  0.19622462  1
  Se  Se234  1  0.58504728  0.74400844  0.69642068  1
  Se  Se235  1  0.91322625  0.09283567  0.18557163  1
  Se  Se236  1  0.91851219  0.07984216  0.69647907  1
  Se  Se237  1  0.90395278  0.43467130  0.20450076  1
  Se  Se238  1  0.92042870  0.41458097  0.69587242  1
  Se  Se239  1  0.91105080  0.76441123  0.19464699  1
  Se  Se240  1  0.90207884  0.75243643  0.69612644  1
  Se  Se241  1  0.07712711  0.26070455  0.18990494  1
  Se  Se242  1  0.08486081  0.24738986  0.70073860  1
  Se  Se243  1  0.08919434  0.57453912  0.18724173  1
  Se  Se244  1  0.08975052  0.57433303  0.69601412  1
  Se  Se245  1  0.08399880  0.91476875  0.19205783  1
  Se  Se246  1  0.07448437  0.91860410  0.70667223  1
  Se  Se247  1  0.41561305  0.24611523  0.19699412  1
  Se  Se248  1  0.42156864  0.25816108  0.70069050  1
  Se  Se249  1  0.40318275  0.59353596  0.19555673  1
  Se  Se250  1  0.42090055  0.57664355  0.68481866  1
  Se  Se251  1  0.42986830  0.90698627  0.18494439  1
  Se  Se252  1  0.41927498  0.91086022  0.68830948  1
  Se  Se253  1  0.75400711  0.24923169  0.18816800  1
  Se  Se254  1  0.76072911  0.24404193  0.68783437  1
  Se  Se255  1  0.77511327  0.56676998  0.19422509  1
  Se  Se256  1  0.74639814  0.57927320  0.69248303  1
  Se  Se257  1  0.74789429  0.92790324  0.20077171  1
  Se  Se258  1  0.74663841  0.92087825  0.70268054  1
