# generated using pymatgen
data_In86Cu29Se144
_symmetry_space_group_name_H-M   'P 1'
_cell_length_a   17.58152556
_cell_length_b   17.58094754
_cell_length_c   23.44515479
_cell_angle_alpha   90.00047596
_cell_angle_beta   90.01029216
_cell_angle_gamma   90.02178216
_symmetry_Int_Tables_number   1
_chemical_formula_structural   In86Cu29Se144
_chemical_formula_sum   'In86 Cu29 Se144'
_cell_volume   7246.89385420
_cell_formula_units_Z   1
loop_
 _symmetry_equiv_pos_site_id
 _symmetry_equiv_pos_as_xyz
  1  'x, y, z'
loop_
 _atom_site_type_symbol
 _atom_site_label
 _atom_site_symmetry_multiplicity
 _atom_site_fract_x
 _atom_site_fract_y
 _atom_site_fract_z
 _atom_site_occupancy
  In  In0  1  -0.00201880  0.16652068  0.12474360  1
  In  In1  1  -0.00437111  0.16691092  0.62876554  1
  In  In2  1  -0.01893902  0.50267824  0.12227736  1
  In  In3  1  -0.00988187  0.50682811  0.63487527  1
  In  In4  1  0.01693090  0.84258998  0.11951063  1
  In  In5  1  -0.02002400  0.84747800  0.63549999  1
  In  In6  1  0.31784851  0.17792434  0.12345137  1
  In  In7  1  0.33252173  0.16389090  0.63221052  1
  In  In8  1  0.32814911  0.48847613  0.12519515  1
  In  In9  1  0.32726937  0.48916698  0.62013577  1
  In  In10  1  0.32230473  0.85028949  0.13093339  1
  In  In11  1  0.34594378  0.84108107  0.62919750  1
  In  In12  1  0.68168884  0.15825384  0.13052598  1
  In  In13  1  0.67125465  0.15102305  0.62372868  1
  In  In14  1  0.67590164  0.48971761  0.13496010  1
  In  In15  1  0.67706494  0.50816475  0.61513024  1
  In  In16  1  0.66584860  0.83671260  0.13454848  1
  In  In17  1  0.67394473  0.82171403  0.63208657  1
  In  In18  1  0.16830585  -0.00776980  0.36120986  1
  In  In19  1  0.16206553  0.00391076  0.87834368  1
  In  In20  1  0.15800073  0.32189214  0.36263627  1
  In  In21  1  0.16154545  0.32621130  0.87522513  1
  In  In22  1  0.16639811  0.67216748  0.37438920  1
  In  In23  1  0.15941806  0.68269383  0.87861594  1
  In  In24  1  0.50279274  0.00390605  0.36840377  1
  In  In25  1  0.50219792  -0.00112576  0.86288041  1
  In  In26  1  0.51065082  0.34116738  0.36749913  1
  In  In27  1  0.49703346  0.34384334  0.87173654  1
  In  In28  1  0.50460749  0.64703135  0.38135572  1
  In  In29  1  0.50834236  0.66490482  0.86846114  1
  In  In30  1  0.83905807  0.00420734  0.37665173  1
  In  In31  1  0.83974104  0.00241359  0.87019240  1
  In  In32  1  0.83580209  0.33207683  0.37705516  1
  In  In33  1  0.84372460  0.32161738  0.88446631  1
  In  In34  1  0.82725572  0.67825123  0.38235339  1
  In  In35  1  0.82916632  0.66178410  0.86918770  1
  In  In36  1  -0.01295119  0.15420151  0.36719660  1
  In  In37  1  -0.00122593  0.16689972  0.87629879  1
  In  In38  1  0.00118049  0.48571463  0.37464571  1
  In  In39  1  -0.00882120  0.49061835  0.87061292  1
  In  In40  1  -0.00706996  0.83467016  0.37435498  1
  In  In41  1  0.00580351  0.84387315  0.86920670  1
  In  In42  1  0.32929552  0.16199522  0.36498462  1
  In  In43  1  0.32587713  0.16120066  0.87468802  1
  In  In44  1  0.34861058  0.49856562  0.37601586  1
  In  In45  1  0.34277547  0.49668946  0.87117409  1
  In  In46  1  0.32657638  0.84251143  0.37328302  1
  In  In47  1  0.31816661  0.83618214  0.87819497  1
  In  In48  1  0.67723270  0.17560657  0.36803289  1
  In  In49  1  0.68171314  0.15799491  0.88011240  1
  In  In50  1  0.67120587  0.49972725  0.37703287  1
  In  In51  1  0.66545344  0.51354288  0.87240244  1
  In  In52  1  0.68049132  0.84574070  0.36688596  1
  In  In53  1  0.67322758  0.83899477  0.86220717  1
  In  In54  1  0.15898847  0.00239595  0.12432371  1
  In  In55  1  0.16147921  0.00280760  0.63246837  1
  In  In56  1  0.17482741  0.31765520  0.12643297  1
  In  In57  1  0.16802767  0.32654158  0.63385437  1
  In  In58  1  0.15213188  0.67966043  0.11880294  1
  In  In59  1  0.16024964  0.65372282  0.62918174  1
  In  In60  1  0.50551055  -0.00186064  0.13092876  1
  In  In61  1  0.50772077  -0.01435974  0.64460676  1
  In  In62  1  0.49868224  0.33417587  0.13117680  1
  In  In63  1  0.48753887  0.33353171  0.62167287  1
  In  In64  1  0.50734664  0.67922538  0.12856544  1
  In  In65  1  0.51236368  0.67202215  0.62198216  1
  In  In66  1  0.82216545  0.01699276  0.12933774  1
  In  In67  1  0.83973148  -0.00595974  0.62111185  1
  In  In68  1  0.83563892  0.33223723  0.12770594  1
  In  In69  1  0.83790346  0.34099996  0.61878460  1
  In  In70  1  0.83604337  0.65367609  0.12548672  1
  In  In71  1  0.83189957  0.66630025  0.62505954  1
  In  In72  1  0.66718360  0.33276823  0.75099365  1
  In  In73  1  0.34019865  0.66263867  0.25309847  1
  In  In74  1  0.50663168  0.82942145  0.50696346  1
  In  In75  1  0.50397897  0.16621282  0.50072076  1
  In  In76  1  0.16113885  0.83032765  0.49583303  1
  In  In77  1  -0.00397271  0.67139691  0.24919150  1
  In  In78  1  0.16104206  0.49576933  -0.00649851  1
  In  In79  1  0.16356646  0.49593387  0.50163917  1
  In  In80  1  0.83810589  0.83855177  -0.00583196  1
  In  In81  1  0.50483414  0.49937270  0.00474188  1
  In  In82  1  0.33024866  0.66879123  0.75201777  1
  In  In83  1  0.49972124  0.16717682  -0.00312900  1
  In  In84  1  0.16063174  0.16467998  0.50600105  1
  In  In85  1  0.49898052  0.83607053  0.00531059  1
  Cu  Cu86  1  0.67707154  0.33300971  0.00748276  1
  Cu  Cu87  1  -0.00746313  0.33188348  0.50198230  1
  Cu  Cu88  1  0.67064007  0.66687188  0.49925993  1
  Cu  Cu89  1  0.50603656  0.49478035  0.25400669  1
  Cu  Cu90  1  0.82957438  0.49751389  0.25276681  1
  Cu  Cu91  1  0.66847811  0.33470895  0.49231549  1
  Cu  Cu92  1  -0.00667260  0.66552778  0.50744197  1
  Cu  Cu93  1  0.16452327  0.49223558  0.24637265  1
  Cu  Cu94  1  0.16570149  0.16510516  0.24381500  1
  Cu  Cu95  1  -0.00096894  0.00820498  -0.00200475  1
  Cu  Cu96  1  0.16287017  0.16505080  0.75546029  1
  Cu  Cu97  1  0.83642953  0.84109168  0.25074563  1
  Cu  Cu98  1  0.68090168  -0.00331874  0.49870930  1
  Cu  Cu99  1  0.50784009  0.83056506  0.25294997  1
  Cu  Cu100  1  0.32616066  0.00440300  0.00201766  1
  Cu  Cu101  1  0.16238578  0.49316895  0.75274372  1
  Cu  Cu102  1  -0.00193123  0.33107664  0.00177367  1
  Cu  Cu103  1  0.33912138  0.33799635  0.49407177  1
  Cu  Cu104  1  0.83571871  0.16190105  0.75203984  1
  Cu  Cu105  1  0.83138590  0.49793493  0.74566540  1
  Cu  Cu106  1  0.16245476  0.83777806  0.75353652  1
  Cu  Cu107  1  0.83416712  0.82796971  0.74804168  1
  Cu  Cu108  1  0.50026620  0.50095813  0.74658533  1
  Cu  Cu109  1  0.83749252  0.16998919  0.25127407  1
  Cu  Cu110  1  0.32575313  0.66835493  -0.00166572  1
  Cu  Cu111  1  0.33508443  0.00438486  0.50318386  1
  Cu  Cu112  1  0.67460218  0.66864199  -0.00275026  1
  Cu  Cu113  1  0.49555911  0.16383908  0.24715540  1
  Cu  Cu114  1  0.49603769  0.17031388  0.74959898  1
  Se  Se115  1  0.08343307  0.08883336  0.05349646  1
  Se  Se116  1  0.07029393  0.06955347  0.55780791  1
  Se  Se117  1  0.07787408  0.41160954  0.06315885  1
  Se  Se118  1  0.07614514  0.40783959  0.56411097  1
  Se  Se119  1  0.07176629  0.74923851  0.04530286  1
  Se  Se120  1  0.07709170  0.74508430  0.56425717  1
  Se  Se121  1  0.41307281  0.07777342  0.06152136  1
  Se  Se122  1  0.41997988  0.07510306  0.56514765  1
  Se  Se123  1  0.40970983  0.40481054  0.05332130  1
  Se  Se124  1  0.41909241  0.42145768  0.54843728  1
  Se  Se125  1  0.40407452  0.74563644  0.06280818  1
  Se  Se126  1  0.40567392  0.74183780  0.55775483  1
  Se  Se127  1  0.74958821  0.08695725  0.04968787  1
  Se  Se128  1  0.75938556  0.08358709  0.55218136  1
  Se  Se129  1  0.75659179  0.42175002  0.05792878  1
  Se  Se130  1  0.75138932  0.41668209  0.54888447  1
  Se  Se131  1  0.74743088  0.75206317  0.05990726  1
  Se  Se132  1  0.75147074  0.75072318  0.55445020  1
  Se  Se133  1  0.24731278  0.25180701  0.04497646  1
  Se  Se134  1  0.26073706  0.25764375  0.55612331  1
  Se  Se135  1  0.25063919  0.58641477  0.06018411  1
  Se  Se136  1  0.25463196  0.59162994  0.55507608  1
  Se  Se137  1  0.24346783  0.91807979  0.05363789  1
  Se  Se138  1  0.25258002  0.92130070  0.55896366  1
  Se  Se139  1  0.58884315  0.25443077  0.06124093  1
  Se  Se140  1  0.59416292  0.25770119  0.56061067  1
  Se  Se141  1  0.59481721  0.59212061  0.06166835  1
  Se  Se142  1  0.58348457  0.58522811  0.55027750  1
  Se  Se143  1  0.59618133  0.92494833  0.05723294  1
  Se  Se144  1  0.59448845  0.92601359  0.56147960  1
  Se  Se145  1  0.91329938  0.24868448  0.05593548  1
  Se  Se146  1  0.91440240  0.24514658  0.55603168  1
  Se  Se147  1  0.92057043  0.59268072  0.04948201  1
  Se  Se148  1  0.91256511  0.57708040  0.55686985  1
  Se  Se149  1  0.91881444  0.92966136  0.06035860  1
  Se  Se150  1  0.91396532  0.90670214  0.54998639  1
  Se  Se151  1  0.07506822  0.25410934  0.44226116  1
  Se  Se152  1  0.08120636  0.24849018  0.94783103  1
  Se  Se153  1  0.07426043  0.59164457  0.44207606  1
  Se  Se154  1  0.07255038  0.58783894  0.93769085  1
  Se  Se155  1  0.07867115  0.92836294  0.43943555  1
  Se  Se156  1  0.07988344  0.91891371  0.94730950  1
  Se  Se157  1  0.41329482  0.25007794  0.43615823  1
  Se  Se158  1  0.41165505  0.25922597  0.93878897  1
  Se  Se159  1  0.41119350  0.58396807  0.45047841  1
  Se  Se160  1  0.41398175  0.59388814  0.94322631  1
  Se  Se161  1  0.41709211  0.92336853  0.44490298  1
  Se  Se162  1  0.41007018  0.92572137  0.94281952  1
  Se  Se163  1  0.75311308  0.24695382  0.44630082  1
  Se  Se164  1  0.75205170  0.24598365  0.95105002  1
  Se  Se165  1  0.75434459  0.58231686  0.44666649  1
  Se  Se166  1  0.75300290  0.58134679  0.94529543  1
  Se  Se167  1  0.76041683  0.91198175  0.44471486  1
  Se  Se168  1  0.74142653  0.92473157  0.93871563  1
  Se  Se169  1  0.25201261  0.07773856  0.44167392  1
  Se  Se170  1  0.24383225  0.08787036  0.94870636  1
  Se  Se171  1  0.24744956  0.40667907  0.43510399  1
  Se  Se172  1  0.26045943  0.41133962  0.93959997  1
  Se  Se173  1  0.26256392  0.74192563  0.44339162  1
  Se  Se174  1  0.24250282  0.75623867  0.95195267  1
  Se  Se175  1  0.59520460  0.07651008  0.44153715  1
  Se  Se176  1  0.58624810  0.07122654  0.94102337  1
  Se  Se177  1  0.58124874  0.41891417  0.44488163  1
  Se  Se178  1  0.59671676  0.40955101  0.94342879  1
  Se  Se179  1  0.59341861  0.74949469  0.43711067  1
  Se  Se180  1  0.59046290  0.74878211  0.94100463  1
  Se  Se181  1  0.91558926  0.08912692  0.44788339  1
  Se  Se182  1  0.91126093  0.08615207  0.94463736  1
  Se  Se183  1  0.91451978  0.41942334  0.44834263  1
  Se  Se184  1  0.91607002  0.41751078  0.94981615  1
  Se  Se185  1  0.92061675  0.75245841  0.44855960  1
  Se  Se186  1  0.92158509  0.74765261  0.93325441  1
  Se  Se187  1  0.25121872  0.24869224  0.29719996  1
  Se  Se188  1  0.24905504  0.24976092  0.80516342  1
  Se  Se189  1  0.24160262  0.57208334  0.30956695  1
  Se  Se190  1  0.23970217  0.57802910  0.81367494  1
  Se  Se191  1  0.26035037  0.91861263  0.29588111  1
  Se  Se192  1  0.24521995  0.92109009  0.80701165  1
  Se  Se193  1  0.58021587  0.24502518  0.30244689  1
  Se  Se194  1  0.57974041  0.24223086  0.81377733  1
  Se  Se195  1  0.58748188  0.58126373  0.30514407  1
  Se  Se196  1  0.58590315  0.58549722  0.79574854  1
  Se  Se197  1  0.58808219  0.92165868  0.30206061  1
  Se  Se198  1  0.58092026  0.91249205  0.79766590  1
  Se  Se199  1  0.91997480  0.25567985  0.30405943  1
  Se  Se200  1  0.91563909  0.24918793  0.80482560  1
  Se  Se201  1  0.91168492  0.57951702  0.31251798  1
  Se  Se202  1  0.91475949  0.57949361  0.80182762  1
  Se  Se203  1  0.92077653  0.92205724  0.30392131  1
  Se  Se204  1  0.91537427  0.91628551  0.79982627  1
  Se  Se205  1  0.08513785  0.08487674  0.30206434  1
  Se  Se206  1  0.07792295  0.08122976  0.80663334  1
  Se  Se207  1  0.07707067  0.41194486  0.29819888  1
  Se  Se208  1  0.07987657  0.40910304  0.80574603  1
  Se  Se209  1  0.09257879  0.76131868  0.30468211  1
  Se  Se210  1  0.07920239  0.74917562  0.80094815  1
  Se  Se211  1  0.41373794  0.07783279  0.29977323  1
  Se  Se212  1  0.41371919  0.08702521  0.80408570  1
  Se  Se213  1  0.41432130  0.41348168  0.30095477  1
  Se  Se214  1  0.41612014  0.41605663  0.79642822  1
  Se  Se215  1  0.42809214  0.75334161  0.31598775  1
  Se  Se216  1  0.41804390  0.75917593  0.81250245  1
  Se  Se217  1  0.75510295  0.08322563  0.30451918  1
  Se  Se218  1  0.74811271  0.07916107  0.80151915  1
  Se  Se219  1  0.74915368  0.41258015  0.30797232  1
  Se  Se220  1  0.75668632  0.41949001  0.81303744  1
  Se  Se221  1  0.75652778  0.75095282  0.30179525  1
  Se  Se222  1  0.74801543  0.74402811  0.79908177  1
  Se  Se223  1  0.25038427  0.08239059  0.19118351  1
  Se  Se224  1  0.24708828  0.08390621  0.69899113  1
  Se  Se225  1  0.25061872  0.40902969  0.19628618  1
  Se  Se226  1  0.25004749  0.41722428  0.69721803  1
  Se  Se227  1  0.24605107  0.74688998  0.19315497  1
  Se  Se228  1  0.24048961  0.75851065  0.68955019  1
  Se  Se229  1  0.58614948  0.08500857  0.19667405  1
  Se  Se230  1  0.58431589  0.08862004  0.69945952  1
  Se  Se231  1  0.58696391  0.40976933  0.19974831  1
  Se  Se232  1  0.58110450  0.42081997  0.68583182  1
  Se  Se233  1  0.59198388  0.74513363  0.20334846  1
  Se  Se234  1  0.56522648  0.76630291  0.69442985  1
  Se  Se235  1  0.91847741  0.08394987  0.19722995  1
  Se  Se236  1  0.91579575  0.07851667  0.69523086  1
  Se  Se237  1  0.91570666  0.41849626  0.19841157  1
  Se  Se238  1  0.91550281  0.40957596  0.69816947  1
  Se  Se239  1  0.91122646  0.76167489  0.18528809  1
  Se  Se240  1  0.91806001  0.74147144  0.69732195  1
  Se  Se241  1  0.07993062  0.25072492  0.19483603  1
  Se  Se242  1  0.08042804  0.24668445  0.69851086  1
  Se  Se243  1  0.08716187  0.57805710  0.18953780  1
  Se  Se244  1  0.08024804  0.58144495  0.70365038  1
  Se  Se245  1  0.08881734  0.91397256  0.19699767  1
  Se  Se246  1  0.07831270  0.91924732  0.69903282  1
  Se  Se247  1  0.41291790  0.24711525  0.19303577  1
  Se  Se248  1  0.41410223  0.25378996  0.69633140  1
  Se  Se249  1  0.42815863  0.57263371  0.18800371  1
  Se  Se250  1  0.41636497  0.58012873  0.68710399  1
  Se  Se251  1  0.42419369  0.91031949  0.19664184  1
  Se  Se252  1  0.40135976  0.92758750  0.70562321  1
  Se  Se253  1  0.75133766  0.25249235  0.19847248  1
  Se  Se254  1  0.75622459  0.24329079  0.69037416  1
  Se  Se255  1  0.75044930  0.58534660  0.19978348  1
  Se  Se256  1  0.74703713  0.58271801  0.69455331  1
  Se  Se257  1  0.75023047  0.92317107  0.19798589  1
  Se  Se258  1  0.75482430  0.91517516  0.69293642  1
