# generated using pymatgen
data_In86Cu29Se144
_symmetry_space_group_name_H-M   'P 1'
_cell_length_a   17.58240032
_cell_length_b   17.57748381
_cell_length_c   23.43950022
_cell_angle_alpha   89.99587401
_cell_angle_beta   90.00448219
_cell_angle_gamma   89.97730854
_symmetry_Int_Tables_number   1
_chemical_formula_structural   In86Cu29Se144
_chemical_formula_sum   'In86 Cu29 Se144'
_cell_volume   7244.07905921
_cell_formula_units_Z   1
loop_
 _symmetry_equiv_pos_site_id
 _symmetry_equiv_pos_as_xyz
  1  'x, y, z'
loop_
 _atom_site_type_symbol
 _atom_site_label
 _atom_site_symmetry_multiplicity
 _atom_site_fract_x
 _atom_site_fract_y
 _atom_site_fract_z
 _atom_site_occupancy
  In  In0  1  -0.00566079  0.17471532  0.12153729  1
  In  In1  1  0.00051711  0.14995827  0.62974472  1
  In  In2  1  -0.00179378  0.51007519  0.12803698  1
  In  In3  1  0.00681610  0.50931521  0.62068601  1
  In  In4  1  -0.00721049  0.82740642  0.12105000  1
  In  In5  1  -0.00135595  0.82942766  0.62698106  1
  In  In6  1  0.33163759  0.15896060  0.13041255  1
  In  In7  1  0.33399236  0.16240328  0.62985426  1
  In  In8  1  0.31746676  0.48620332  0.13028114  1
  In  In9  1  0.32121082  0.51191054  0.62985626  1
  In  In10  1  0.33810707  0.84688455  0.12287640  1
  In  In11  1  0.32993461  0.83611835  0.62181000  1
  In  In12  1  0.64361284  0.14755142  0.10079677  1
  In  In13  1  0.65624136  0.15808681  0.62013232  1
  In  In14  1  0.67162346  0.48661643  0.11992304  1
  In  In15  1  0.67385043  0.48611127  0.61743235  1
  In  In16  1  0.67901291  0.82986753  0.12257394  1
  In  In17  1  0.67771432  0.84542570  0.62298169  1
  In  In18  1  0.18008607  -0.00845812  0.38704932  1
  In  In19  1  0.15487801  -0.00368299  0.85854089  1
  In  In20  1  0.17435366  0.32046702  0.38942951  1
  In  In21  1  0.18385831  0.32122909  0.87260028  1
  In  In22  1  0.15787047  0.67381313  0.38114095  1
  In  In23  1  0.17211664  0.67673967  0.86525708  1
  In  In24  1  0.50168932  0.00560784  0.38196210  1
  In  In25  1  0.50981156  0.01613371  0.87220008  1
  In  In26  1  0.48408955  0.33429433  0.37520212  1
  In  In27  1  0.48713195  0.32005860  0.87641656  1
  In  In28  1  0.51065530  0.67112416  0.38138769  1
  In  In29  1  0.49432435  0.67530166  0.86999079  1
  In  In30  1  0.81919774  0.00100901  0.37411979  1
  In  In31  1  0.83271144  -0.00587841  0.87832453  1
  In  In32  1  0.84631843  0.33735824  0.37565166  1
  In  In33  1  0.82359815  0.33493605  0.88522945  1
  In  In34  1  0.84575354  0.66436643  0.37795019  1
  In  In35  1  0.84656303  0.66879996  0.87102113  1
  In  In36  1  0.00242478  0.17924004  0.37993056  1
  In  In37  1  0.00049461  0.14137049  0.86737179  1
  In  In38  1  -0.00633332  0.50840190  0.37989697  1
  In  In39  1  -0.01112136  0.50229678  0.86863951  1
  In  In40  1  0.01092202  0.82581965  0.38092436  1
  In  In41  1  0.00189708  0.83956198  0.86805236  1
  In  In42  1  0.33879610  0.16586719  0.38201231  1
  In  In43  1  0.33924836  0.17423808  0.86689758  1
  In  In44  1  0.32993495  0.48414893  0.37549418  1
  In  In45  1  0.32694697  0.49325574  0.86785857  1
  In  In46  1  0.32758057  0.84588047  0.38582177  1
  In  In47  1  0.32128993  0.82791951  0.86685423  1
  In  In48  1  0.66732665  0.14954628  0.37358394  1
  In  In49  1  0.68173411  0.14592813  0.89938694  1
  In  In50  1  0.67178490  0.51092033  0.37717984  1
  In  In51  1  0.67377816  0.50674169  0.87588071  1
  In  In52  1  0.65872078  0.84299053  0.38628737  1
  In  In53  1  0.67634310  0.85290596  0.87145588  1
  In  In54  1  0.18264823  0.00144402  0.12401461  1
  In  In55  1  0.16973150  0.00033814  0.62307635  1
  In  In56  1  0.17596391  0.33462093  0.13101928  1
  In  In57  1  0.17397171  0.34136511  0.62088656  1
  In  In58  1  0.14756138  0.66011859  0.12902412  1
  In  In59  1  0.16288487  0.66934671  0.62252012  1
  In  In60  1  0.48997695  0.00412832  0.13164253  1
  In  In61  1  0.49850923  -0.00045635  0.62743520  1
  In  In62  1  0.48970031  0.30737709  0.11818130  1
  In  In63  1  0.49954198  0.30716782  0.61698778  1
  In  In64  1  0.50005045  0.67282477  0.12444540  1
  In  In65  1  0.48354292  0.66806967  0.62441205  1
  In  In66  1  0.81814271  -0.01029216  0.11421880  1
  In  In67  1  0.84965368  -0.02448351  0.65131233  1
  In  In68  1  0.81594484  0.32400738  0.10205046  1
  In  In69  1  0.81850741  0.33862750  0.61846931  1
  In  In70  1  0.84599833  0.67496628  0.11790463  1
  In  In71  1  0.84712020  0.68016831  0.62333747  1
  In  In72  1  0.00409122  0.34142666  0.24653634  1
  In  In73  1  0.16210082  0.16032292  -0.00543260  1
  In  In74  1  0.50717332  0.84010953  -0.00955918  1
  In  In75  1  0.66329457  0.32933734  0.24164363  1
  In  In76  1  0.50437313  0.49674874  0.00413414  1
  In  In77  1  0.00222637  0.33114011  0.75265917  1
  In  In78  1  0.66538891  0.67276710  0.75215280  1
  In  In79  1  0.16160111  0.49942081  0.00047992  1
  In  In80  1  0.83258311  0.16443484  0.50201664  1
  In  In81  1  0.50090007  0.49965121  0.49758879  1
  In  In82  1  0.67027608  0.66933884  0.25175779  1
  In  In83  1  0.00576396  -0.00266159  0.25220349  1
  In  In84  1  0.32656702  0.67172409  0.26175768  1
  In  In85  1  0.65730210  0.32665773  0.74917590  1
  Cu  Cu86  1  0.68379517  0.66746096  -0.00429794  1
  Cu  Cu87  1  0.66945075  0.00075331  0.50561900  1
  Cu  Cu88  1  0.49110390  0.83519115  0.74895997  1
  Cu  Cu89  1  -0.00205116  0.33276785  -0.00514986  1
  Cu  Cu90  1  0.00301798  0.33786741  0.50301583  1
  Cu  Cu91  1  0.33585625  0.32989910  0.50434158  1
  Cu  Cu92  1  0.16867480  0.50324265  0.74463670  1
  Cu  Cu93  1  0.48696735  0.49748644  0.24624813  1
  Cu  Cu94  1  0.82859677  0.15920563  0.24336443  1
  Cu  Cu95  1  0.17800263  0.16315343  0.25912227  1
  Cu  Cu96  1  0.83683393  0.49995294  0.24790239  1
  Cu  Cu97  1  0.82677771  0.16111068  0.75750637  1
  Cu  Cu98  1  -0.00394107  0.66984592  0.50302666  1
  Cu  Cu99  1  0.00143246  0.67552354  -0.00333860  1
  Cu  Cu100  1  0.48971028  0.49239105  0.74733618  1
  Cu  Cu101  1  0.17055832  0.83127593  0.25627719  1
  Cu  Cu102  1  0.67287020  0.67097879  0.50180126  1
  Cu  Cu103  1  0.83518633  0.50678073  0.74529909  1
  Cu  Cu104  1  -0.00199131  -0.00700168  -0.00648884  1
  Cu  Cu105  1  0.33951108  0.00594731  0.50676224  1
  Cu  Cu106  1  0.49593103  0.16281271  0.25054450  1
  Cu  Cu107  1  0.32620371  0.67076094  0.50245303  1
  Cu  Cu108  1  0.16458243  0.83270121  0.74164276  1
  Cu  Cu109  1  0.83563390  0.83221270  0.24561025  1
  Cu  Cu110  1  0.33252150  0.00107318  -0.00203991  1
  Cu  Cu111  1  0.32785309  0.66721137  -0.00722097  1
  Cu  Cu112  1  0.49848873  0.16251994  0.74969169  1
  Cu  Cu113  1  0.50148520  0.84924968  0.25715308  1
  Cu  Cu114  1  -0.00233264  -0.00625324  0.50757800  1
  Se  Se115  1  0.07409179  0.07136303  0.06020908  1
  Se  Se116  1  0.08200518  0.08174003  0.55351522  1
  Se  Se117  1  0.07517458  0.40503204  0.06107711  1
  Se  Se118  1  0.08731579  0.42253818  0.55392890  1
  Se  Se119  1  0.08620741  0.75075454  0.05506951  1
  Se  Se120  1  0.08197744  0.75388102  0.55338655  1
  Se  Se121  1  0.41172581  0.08137313  0.05652688  1
  Se  Se122  1  0.42420999  0.09029577  0.55767486  1
  Se  Se123  1  0.40620485  0.40992397  0.05911901  1
  Se  Se124  1  0.41404473  0.41556733  0.56403446  1
  Se  Se125  1  0.41240645  0.74694368  0.05129206  1
  Se  Se126  1  0.41446046  0.75289363  0.55089523  1
  Se  Se127  1  0.76302273  0.09602165  0.05149208  1
  Se  Se128  1  0.75830885  0.06988859  0.56800944  1
  Se  Se129  1  0.76067753  0.43497952  0.04361526  1
  Se  Se130  1  0.75429528  0.41965826  0.54143654  1
  Se  Se131  1  0.76007181  0.75514487  0.04988914  1
  Se  Se132  1  0.75402758  0.75430090  0.55669874  1
  Se  Se133  1  0.24999913  0.24859172  0.05795363  1
  Se  Se134  1  0.25308770  0.24700145  0.55870102  1
  Se  Se135  1  0.25494855  0.58999104  0.05997631  1
  Se  Se136  1  0.24436747  0.58317843  0.55234180  1
  Se  Se137  1  0.25006128  0.91485054  0.04939119  1
  Se  Se138  1  0.25018225  0.91859751  0.55044988  1
  Se  Se139  1  0.60693942  0.27836661  0.05840354  1
  Se  Se140  1  0.61265819  0.26770595  0.55495261  1
  Se  Se141  1  0.59654621  0.59735651  0.05778118  1
  Se  Se142  1  0.58929560  0.59084797  0.56090080  1
  Se  Se143  1  0.58466660  0.91982762  0.06397953  1
  Se  Se144  1  0.58255351  0.91767204  0.55697246  1
  Se  Se145  1  0.91628181  0.24491744  0.04525892  1
  Se  Se146  1  0.92382082  0.25465260  0.56375401  1
  Se  Se147  1  0.92407563  0.58542144  0.05092933  1
  Se  Se148  1  0.91299122  0.58358367  0.55490401  1
  Se  Se149  1  0.91601081  0.91405344  0.05268694  1
  Se  Se150  1  0.91072045  0.91591950  0.56096188  1
  Se  Se151  1  0.08333877  0.24497658  0.45726211  1
  Se  Se152  1  0.07426987  0.25334118  0.93299266  1
  Se  Se153  1  0.07971753  0.58597931  0.44937895  1
  Se  Se154  1  0.07828630  0.59031042  0.93641384  1
  Se  Se155  1  0.08341094  0.91669158  0.44940964  1
  Se  Se156  1  0.08799368  0.91914423  0.93929324  1
  Se  Se157  1  0.42299883  0.24907164  0.45238791  1
  Se  Se158  1  0.41091830  0.24112043  0.94899816  1
  Se  Se159  1  0.40614074  0.59088347  0.43928802  1
  Se  Se160  1  0.41216861  0.58502104  0.93971673  1
  Se  Se161  1  0.42079025  0.92044728  0.45122701  1
  Se  Se162  1  0.40846968  0.92175922  0.93318105  1
  Se  Se163  1  0.75006874  0.25093340  0.43348408  1
  Se  Se164  1  0.73729233  0.26114496  0.95315216  1
  Se  Se165  1  0.75425579  0.58812342  0.44629691  1
  Se  Se166  1  0.76321048  0.58469365  0.94015591  1
  Se  Se167  1  0.75357097  0.91830351  0.45122419  1
  Se  Se168  1  0.74698840  0.92085257  0.95127691  1
  Se  Se169  1  0.25300669  0.08674466  0.45182570  1
  Se  Se170  1  0.25200480  0.07486638  0.93305440  1
  Se  Se171  1  0.25179502  0.41585572  0.45378128  1
  Se  Se172  1  0.25785040  0.40832627  0.94751733  1
  Se  Se173  1  0.24480422  0.75505887  0.44762584  1
  Se  Se174  1  0.24436009  0.75282766  0.94413580  1
  Se  Se175  1  0.58703453  0.08650700  0.45305826  1
  Se  Se176  1  0.57291180  0.08382211  0.95715065  1
  Se  Se177  1  0.58960073  0.41139054  0.43533994  1
  Se  Se178  1  0.58546568  0.41342506  0.93443230  1
  Se  Se179  1  0.58266657  0.75304699  0.45447417  1
  Se  Se180  1  0.59731169  0.74159964  0.93582763  1
  Se  Se181  1  0.92415386  0.07398573  0.43980422  1
  Se  Se182  1  0.91674342  0.08330446  0.94579095  1
  Se  Se183  1  0.91735452  0.41870061  0.44950179  1
  Se  Se184  1  0.91791881  0.42032936  0.94302137  1
  Se  Se185  1  0.91532702  0.75571928  0.44809969  1
  Se  Se186  1  0.92027784  0.75750221  0.94061780  1
  Se  Se187  1  0.25514666  0.25069761  0.31266578  1
  Se  Se188  1  0.25041877  0.24542092  0.79522106  1
  Se  Se189  1  0.23946555  0.57622649  0.31544426  1
  Se  Se190  1  0.25215480  0.58447864  0.80186203  1
  Se  Se191  1  0.25196275  0.91786350  0.30681353  1
  Se  Se192  1  0.24778842  0.91505936  0.79635478  1
  Se  Se193  1  0.57741500  0.24443058  0.30949520  1
  Se  Se194  1  0.58208492  0.23366152  0.81486081  1
  Se  Se195  1  0.57156690  0.57476496  0.30409945  1
  Se  Se196  1  0.57283011  0.57303143  0.80551281  1
  Se  Se197  1  0.58887295  0.92600373  0.31095638  1
  Se  Se198  1  0.57384289  0.91334150  0.80672236  1
  Se  Se199  1  0.90978620  0.24069854  0.30084956  1
  Se  Se200  1  0.90581014  0.24674853  0.81410506  1
  Se  Se201  1  0.91780171  0.58356894  0.30175320  1
  Se  Se202  1  0.92147188  0.58891870  0.79471157  1
  Se  Se203  1  0.91228086  0.91048567  0.31140284  1
  Se  Se204  1  0.92683561  0.93536173  0.80514950  1
  Se  Se205  1  0.09004145  0.08815932  0.31651532  1
  Se  Se206  1  0.10411547  0.10757012  0.79612242  1
  Se  Se207  1  0.08517820  0.41198946  0.32230290  1
  Se  Se208  1  0.09542936  0.42266832  0.81145391  1
  Se  Se209  1  0.08180349  0.74820128  0.30268380  1
  Se  Se210  1  0.08143228  0.75167024  0.79881469  1
  Se  Se211  1  0.41659964  0.08203213  0.31002307  1
  Se  Se212  1  0.41381746  0.07869237  0.80189374  1
  Se  Se213  1  0.40901404  0.41105647  0.29936993  1
  Se  Se214  1  0.41444083  0.40801266  0.80506359  1
  Se  Se215  1  0.42627520  0.76045412  0.31455764  1
  Se  Se216  1  0.40926375  0.74686354  0.79893554  1
  Se  Se217  1  0.74559777  0.07735885  0.29682035  1
  Se  Se218  1  0.74374111  0.08117161  0.81257447  1
  Se  Se219  1  0.75358692  0.42069800  0.30571873  1
  Se  Se220  1  0.75520898  0.42191189  0.80219242  1
  Se  Se221  1  0.75513102  0.75942959  0.31353703  1
  Se  Se222  1  0.76028816  0.76140570  0.80591267  1
  Se  Se223  1  0.25347550  0.07632984  0.20269301  1
  Se  Se224  1  0.25959939  0.06926506  0.69445476  1
  Se  Se225  1  0.23673938  0.42072166  0.20605826  1
  Se  Se226  1  0.25280057  0.41538338  0.69746331  1
  Se  Se227  1  0.24741299  0.75491482  0.18854231  1
  Se  Se228  1  0.25046867  0.74851635  0.69061177  1
  Se  Se229  1  0.58278943  0.08882278  0.19176022  1
  Se  Se230  1  0.58465394  0.08103697  0.69722696  1
  Se  Se231  1  0.56794145  0.42080600  0.18558813  1
  Se  Se232  1  0.57249849  0.41911059  0.68576029  1
  Se  Se233  1  0.57471440  0.76331058  0.19588962  1
  Se  Se234  1  0.57428070  0.75643561  0.68844510  1
  Se  Se235  1  0.91466727  0.08067471  0.18735527  1
  Se  Se236  1  0.91857009  0.08374361  0.70697900  1
  Se  Se237  1  0.90268717  0.41289757  0.18310429  1
  Se  Se238  1  0.91138961  0.41798430  0.68831439  1
  Se  Se239  1  0.92077668  0.74659742  0.19762935  1
  Se  Se240  1  0.91566804  0.75454256  0.70087459  1
  Se  Se241  1  0.09325610  0.23563512  0.19600514  1
  Se  Se242  1  0.08757628  0.24830485  0.68663422  1
  Se  Se243  1  0.08955089  0.56753730  0.20120633  1
  Se  Se244  1  0.08258626  0.58676673  0.69566475  1
  Se  Se245  1  0.09387930  0.90923062  0.18970565  1
  Se  Se246  1  0.08187345  0.91943486  0.69121657  1
  Se  Se247  1  0.41097485  0.24737341  0.19930010  1
  Se  Se248  1  0.41873339  0.25017266  0.69765822  1
  Se  Se249  1  0.41269763  0.58581507  0.18958487  1
  Se  Se250  1  0.41260002  0.58520159  0.69863934  1
  Se  Se251  1  0.41034440  0.92021218  0.20187748  1
  Se  Se252  1  0.41026717  0.91829069  0.69351777  1
  Se  Se253  1  0.75133876  0.23970544  0.18250834  1
  Se  Se254  1  0.75534869  0.24090799  0.69162985  1
  Se  Se255  1  0.75456095  0.57928431  0.18751849  1
  Se  Se256  1  0.74864835  0.58073191  0.68683626  1
  Se  Se257  1  0.74957652  0.91549951  0.19612035  1
  Se  Se258  1  0.73299144  0.92487830  0.70540647  1
