# generated using pymatgen
data_In86Cu29Se144
_symmetry_space_group_name_H-M   'P 1'
_cell_length_a   17.57088755
_cell_length_b   17.57545336
_cell_length_c   23.43235461
_cell_angle_alpha   90.00961369
_cell_angle_beta   90.01711092
_cell_angle_gamma   90.02718578
_symmetry_Int_Tables_number   1
_chemical_formula_structural   In86Cu29Se144
_chemical_formula_sum   'In86 Cu29 Se144'
_cell_volume   7236.29215496
_cell_formula_units_Z   1
loop_
 _symmetry_equiv_pos_site_id
 _symmetry_equiv_pos_as_xyz
  1  'x, y, z'
loop_
 _atom_site_type_symbol
 _atom_site_label
 _atom_site_symmetry_multiplicity
 _atom_site_fract_x
 _atom_site_fract_y
 _atom_site_fract_z
 _atom_site_occupancy
  In  In0  1  0.01115905  0.15245240  0.13703601  1
  In  In1  1  0.00226422  0.17011856  0.61466308  1
  In  In2  1  -0.01351134  0.50115851  0.12715226  1
  In  In3  1  0.00586963  0.50938694  0.61083847  1
  In  In4  1  0.01140181  0.84386907  0.11424160  1
  In  In5  1  0.00668438  0.82281516  0.63003282  1
  In  In6  1  0.32313008  0.17229901  0.13605678  1
  In  In7  1  0.31700032  0.16892731  0.62003703  1
  In  In8  1  0.32897517  0.50353534  0.14039773  1
  In  In9  1  0.33016814  0.50780740  0.62198660  1
  In  In10  1  0.33219655  0.83457321  0.12687028  1
  In  In11  1  0.32141049  0.81708761  0.61510702  1
  In  In12  1  0.67874239  0.17764607  0.12527837  1
  In  In13  1  0.68366001  0.16213948  0.63419336  1
  In  In14  1  0.67499943  0.48709685  0.12183736  1
  In  In15  1  0.67701758  0.48797633  0.63533539  1
  In  In16  1  0.66269728  0.82712945  0.11053239  1
  In  In17  1  0.65728829  0.83957058  0.63155880  1
  In  In18  1  0.17091143  0.00075344  0.37750506  1
  In  In19  1  0.16046041  0.00120158  0.88103647  1
  In  In20  1  0.16539230  0.32360467  0.38265660  1
  In  In21  1  0.15650924  0.32947056  0.87909670  1
  In  In22  1  0.16987679  0.66397979  0.37627599  1
  In  In23  1  0.18282184  0.68587702  0.85270285  1
  In  In24  1  0.48224758  -0.00173791  0.37264559  1
  In  In25  1  0.49820475  -0.01236298  0.87671443  1
  In  In26  1  0.49605555  0.32760806  0.36584503  1
  In  In27  1  0.50793207  0.32334948  0.87691905  1
  In  In28  1  0.49684596  0.68050152  0.38167734  1
  In  In29  1  0.50713354  0.67505055  0.86713968  1
  In  In30  1  0.85287660  0.00165688  0.37257340  1
  In  In31  1  0.81695668  0.00089558  0.87000542  1
  In  In32  1  0.83655185  0.33362681  0.37996222  1
  In  In33  1  0.83684365  0.34184563  0.87494769  1
  In  In34  1  0.83321127  0.65322064  0.37828997  1
  In  In35  1  0.83359814  0.66807684  0.87236492  1
  In  In36  1  0.00323834  0.16859631  0.38254235  1
  In  In37  1  0.00404478  0.17531063  0.87590152  1
  In  In38  1  0.02499257  0.46820223  0.40581219  1
  In  In39  1  -0.01120688  0.50199644  0.87676987  1
  In  In40  1  0.01191216  0.85054890  0.36554043  1
  In  In41  1  0.01041901  0.82199977  0.87842452  1
  In  In42  1  0.32627559  0.15652332  0.37206635  1
  In  In43  1  0.32702999  0.15914081  0.87872922  1
  In  In44  1  0.31471131  0.48386289  0.36646562  1
  In  In45  1  0.31741521  0.50566340  0.87350531  1
  In  In46  1  0.32991647  0.83582106  0.37473853  1
  In  In47  1  0.33809444  0.83191351  0.88094408  1
  In  In48  1  0.66458146  0.18370812  0.37601434  1
  In  In49  1  0.68088551  0.17203666  0.85827579  1
  In  In50  1  0.68278746  0.49059608  0.38339755  1
  In  In51  1  0.67162786  0.50393526  0.86949323  1
  In  In52  1  0.66696881  0.81970132  0.37788093  1
  In  In53  1  0.66493062  0.83231389  0.87308223  1
  In  In54  1  0.16280222  -0.00477272  0.12987441  1
  In  In55  1  0.16950166  -0.00250870  0.62130537  1
  In  In56  1  0.17421874  0.32086993  0.13867783  1
  In  In57  1  0.14947221  0.32672726  0.59903656  1
  In  In58  1  0.16982484  0.68046538  0.12733641  1
  In  In59  1  0.16895843  0.67084330  0.62428960  1
  In  In60  1  0.49905092  -0.01329110  0.12276562  1
  In  In61  1  0.51623711  -0.00099432  0.62541394  1
  In  In62  1  0.50282521  0.33465136  0.13353411  1
  In  In63  1  0.50110297  0.34316687  0.62466608  1
  In  In64  1  0.48633870  0.66896234  0.12416811  1
  In  In65  1  0.48694413  0.67354842  0.63298377  1
  In  In66  1  0.84671618  0.00455076  0.12251690  1
  In  In67  1  0.82470853  0.00158962  0.62616687  1
  In  In68  1  0.83167650  0.34197836  0.13236209  1
  In  In69  1  0.83293171  0.32744477  0.61101779  1
  In  In70  1  0.83214624  0.66009640  0.11221977  1
  In  In71  1  0.84072515  0.65844577  0.63513141  1
  In  In72  1  0.49618375  0.50409457  0.50643735  1
  In  In73  1  0.33654289  -0.00459273  0.74870464  1
  In  In74  1  0.66347142  0.65907304  0.25019018  1
  In  In75  1  -0.00350494  0.33347661  0.73893474  1
  In  In76  1  -0.00081185  0.00002551  0.74519182  1
  In  In77  1  0.83792667  0.16550731  -0.00518266  1
  In  In78  1  0.50291446  0.16275235  0.00650192  1
  In  In79  1  0.00396842  0.66704537  0.25183436  1
  In  In80  1  0.49747527  0.16300204  0.49556364  1
  In  In81  1  0.83833749  0.83361210  0.50112861  1
  In  In82  1  0.15378302  0.50323932  0.00247174  1
  In  In83  1  0.33027158  0.34338655  0.74570692  1
  In  In84  1  0.66703910  0.00409774  0.24308705  1
  In  In85  1  0.50434838  0.50594330  -0.00256532  1
  Cu  Cu86  1  0.15890336  0.50382969  0.74082300  1
  Cu  Cu87  1  0.49665145  0.17253302  0.25094576  1
  Cu  Cu88  1  0.50620468  0.16971307  0.74621125  1
  Cu  Cu89  1  0.49243587  0.83691456  0.25206502  1
  Cu  Cu90  1  0.16150201  0.16439535  0.25812759  1
  Cu  Cu91  1  0.33186279  -0.00424735  0.49634001  1
  Cu  Cu92  1  0.66775778  0.66715039  -0.00972557  1
  Cu  Cu93  1  0.00105192  0.67460689  0.50213793  1
  Cu  Cu94  1  0.00732746  0.00140172  0.49734350  1
  Cu  Cu95  1  0.83953254  0.48956509  0.25701687  1
  Cu  Cu96  1  0.32050864  -0.00258025  0.00275016  1
  Cu  Cu97  1  0.84016828  0.83225634  0.24214891  1
  Cu  Cu98  1  0.66111095  0.67112187  0.50926637  1
  Cu  Cu99  1  0.83233844  0.50210047  0.75060292  1
  Cu  Cu100  1  0.83049191  0.83292213  0.75120709  1
  Cu  Cu101  1  -0.00081674  0.66485372  -0.00453547  1
  Cu  Cu102  1  0.32981353  0.67551733  -0.00027137  1
  Cu  Cu103  1  0.50117694  0.50142852  0.75060908  1
  Cu  Cu104  1  0.00148934  0.32366465  0.00583625  1
  Cu  Cu105  1  0.33078948  0.33254667  0.01338426  1
  Cu  Cu106  1  0.50371391  0.50341300  0.25281871  1
  Cu  Cu107  1  0.33013443  0.66673697  0.49900198  1
  Cu  Cu108  1  0.16190186  0.49519819  0.26055790  1
  Cu  Cu109  1  0.66970961  0.00021718  0.50330341  1
  Cu  Cu110  1  0.66759293  0.33141275  0.50342512  1
  Cu  Cu111  1  0.49876209  0.83158373  0.75193765  1
  Cu  Cu112  1  0.83656485  0.17246692  0.25358198  1
  Cu  Cu113  1  0.66209474  -0.00371344  -0.00751438  1
  Cu  Cu114  1  0.00169037  -0.00920415  0.00316163  1
  Se  Se115  1  0.08098869  0.07787498  0.05740293  1
  Se  Se116  1  0.09018460  0.08329606  0.55317913  1
  Se  Se117  1  0.07923449  0.40585109  0.06711429  1
  Se  Se118  1  0.07310956  0.42160278  0.53818444  1
  Se  Se119  1  0.08361442  0.74461205  0.05144589  1
  Se  Se120  1  0.08758944  0.75590868  0.55297795  1
  Se  Se121  1  0.40443804  0.07739066  0.06224632  1
  Se  Se122  1  0.41082446  0.07369388  0.56122556  1
  Se  Se123  1  0.41250354  0.41994637  0.06345823  1
  Se  Se124  1  0.40240837  0.40591700  0.55520732  1
  Se  Se125  1  0.41643437  0.75587732  0.05269776  1
  Se  Se126  1  0.42033920  0.74678949  0.55036801  1
  Se  Se127  1  0.74140526  0.07564046  0.05484779  1
  Se  Se128  1  0.75216856  0.08628270  0.55278190  1
  Se  Se129  1  0.76245439  0.41599096  0.05282827  1
  Se  Se130  1  0.74806020  0.42239922  0.55190075  1
  Se  Se131  1  0.75253269  0.74848979  0.04610519  1
  Se  Se132  1  0.74896501  0.74962219  0.56555018  1
  Se  Se133  1  0.24504944  0.24577370  0.05878233  1
  Se  Se134  1  0.25477567  0.25336832  0.54558459  1
  Se  Se135  1  0.25736845  0.58509486  0.05825856  1
  Se  Se136  1  0.24583464  0.58447815  0.55213024  1
  Se  Se137  1  0.24308788  0.91177803  0.05842618  1
  Se  Se138  1  0.24838284  0.91361620  0.55145872  1
  Se  Se139  1  0.59202543  0.26284581  0.05676706  1
  Se  Se140  1  0.58576196  0.24923481  0.56102647  1
  Se  Se141  1  0.59351676  0.59378391  0.06194801  1
  Se  Se142  1  0.58748371  0.58668409  0.57019977  1
  Se  Se143  1  0.57822722  0.91482907  0.04691664  1
  Se  Se144  1  0.58520327  0.91403155  0.55092142  1
  Se  Se145  1  0.92168640  0.24440577  0.06702012  1
  Se  Se146  1  0.93277360  0.26232763  0.54640006  1
  Se  Se147  1  0.91845511  0.57640155  0.04662692  1
  Se  Se148  1  0.91100152  0.59355977  0.55097864  1
  Se  Se149  1  0.90908012  0.91176737  0.05065187  1
  Se  Se150  1  0.92763671  0.92386566  0.56232128  1
  Se  Se151  1  0.07181482  0.25740288  0.45459765  1
  Se  Se152  1  0.08678512  0.24356893  0.95249345  1
  Se  Se153  1  0.08420635  0.59093355  0.44883192  1
  Se  Se154  1  0.08510242  0.59480557  0.93150405  1
  Se  Se155  1  0.08821311  0.91400474  0.44688173  1
  Se  Se156  1  0.08618577  0.91006124  0.94796920  1
  Se  Se157  1  0.40869769  0.25490542  0.43901002  1
  Se  Se158  1  0.40832053  0.25560776  0.94770859  1
  Se  Se159  1  0.40787264  0.58363367  0.43823307  1
  Se  Se160  1  0.40739359  0.59171596  0.93912553  1
  Se  Se161  1  0.41890105  0.91201262  0.44757922  1
  Se  Se162  1  0.41213295  0.92091526  0.95086149  1
  Se  Se163  1  0.75171582  0.24891094  0.44971522  1
  Se  Se164  1  0.74361873  0.25550535  0.94068539  1
  Se  Se165  1  0.74187019  0.59121925  0.45189155  1
  Se  Se166  1  0.75245797  0.58133831  0.94213758  1
  Se  Se167  1  0.74854951  0.92265274  0.43759547  1
  Se  Se168  1  0.74976573  0.91391032  0.94342683  1
  Se  Se169  1  0.24876872  0.08586006  0.45019330  1
  Se  Se170  1  0.24281319  0.08563854  0.94963709  1
  Se  Se171  1  0.24403659  0.41823451  0.44710572  1
  Se  Se172  1  0.25309832  0.40970866  0.94799256  1
  Se  Se173  1  0.24902131  0.75150034  0.44454767  1
  Se  Se174  1  0.24337139  0.74949535  0.94214565  1
  Se  Se175  1  0.59043284  0.07344421  0.43549044  1
  Se  Se176  1  0.58999011  0.08567658  0.93419406  1
  Se  Se177  1  0.58126480  0.40748182  0.44410413  1
  Se  Se178  1  0.59260570  0.41098652  0.94287171  1
  Se  Se179  1  0.58235232  0.75460147  0.45370227  1
  Se  Se180  1  0.57939427  0.75214913  0.94432787  1
  Se  Se181  1  0.91636119  0.08262163  0.45039376  1
  Se  Se182  1  0.92606896  0.07024094  0.93685330  1
  Se  Se183  1  0.88873277  0.44591467  0.44115811  1
  Se  Se184  1  0.92481393  0.40891457  0.94877551  1
  Se  Se185  1  0.92578853  0.75024057  0.43352107  1
  Se  Se186  1  0.91472786  0.74993952  0.94417883  1
  Se  Se187  1  0.24804762  0.24915418  0.30754729  1
  Se  Se188  1  0.24580731  0.24928864  0.80885486  1
  Se  Se189  1  0.24855495  0.58564976  0.30250169  1
  Se  Se190  1  0.25099724  0.58003904  0.79322565  1
  Se  Se191  1  0.26428722  0.93320231  0.30811129  1
  Se  Se192  1  0.24499854  0.91380430  0.81217643  1
  Se  Se193  1  0.58762994  0.25375065  0.29786452  1
  Se  Se194  1  0.58650063  0.25577054  0.79931712  1
  Se  Se195  1  0.58061172  0.57608716  0.32035845  1
  Se  Se196  1  0.58538448  0.58492537  0.80242656  1
  Se  Se197  1  0.58384724  0.91097131  0.30865721  1
  Se  Se198  1  0.58209320  0.91736899  0.80321358  1
  Se  Se199  1  0.91904641  0.25013273  0.31165507  1
  Se  Se200  1  0.91076900  0.24502347  0.80513135  1
  Se  Se201  1  0.92174642  0.57256177  0.31222768  1
  Se  Se202  1  0.91764236  0.58420193  0.80272957  1
  Se  Se203  1  0.91871512  0.91842853  0.29566567  1
  Se  Se204  1  0.91378822  0.91206624  0.81097396  1
  Se  Se205  1  0.07910537  0.08112694  0.31231530  1
  Se  Se206  1  0.08919885  0.09209108  0.80612874  1
  Se  Se207  1  0.08069936  0.41024192  0.31340359  1
  Se  Se208  1  0.08609346  0.42271674  0.80596531  1
  Se  Se209  1  0.09855237  0.76034532  0.30288107  1
  Se  Se210  1  0.07098391  0.74344578  0.79715771  1
  Se  Se211  1  0.41481740  0.08435174  0.29955747  1
  Se  Se212  1  0.42615387  0.09209290  0.80836740  1
  Se  Se213  1  0.41687304  0.41839513  0.30198718  1
  Se  Se214  1  0.42227723  0.42296573  0.81508667  1
  Se  Se215  1  0.41529167  0.74968546  0.30637711  1
  Se  Se216  1  0.41104766  0.75157322  0.80448039  1
  Se  Se217  1  0.75272041  0.08863666  0.31074980  1
  Se  Se218  1  0.75509714  0.08260256  0.79255069  1
  Se  Se219  1  0.74833570  0.40979241  0.30584659  1
  Se  Se220  1  0.75205469  0.41497194  0.80271012  1
  Se  Se221  1  0.76225689  0.75216952  0.30406664  1
  Se  Se222  1  0.74677738  0.74869525  0.80419542  1
  Se  Se223  1  0.24263159  0.08269026  0.19955010  1
  Se  Se224  1  0.24210838  0.08921267  0.69673745  1
  Se  Se225  1  0.24838229  0.41478284  0.20444633  1
  Se  Se226  1  0.23259584  0.41703137  0.68079846  1
  Se  Se227  1  0.26321179  0.74156137  0.19644483  1
  Se  Se228  1  0.25494144  0.74650823  0.69576724  1
  Se  Se229  1  0.57425374  0.09562130  0.18465380  1
  Se  Se230  1  0.58954843  0.08255253  0.69710482  1
  Se  Se231  1  0.58705720  0.42326507  0.19680443  1
  Se  Se232  1  0.58155164  0.41305760  0.70025313  1
  Se  Se233  1  0.57794158  0.75847660  0.19290688  1
  Se  Se234  1  0.58220869  0.74740334  0.69839880  1
  Se  Se235  1  0.91307841  0.08083848  0.20217669  1
  Se  Se236  1  0.91262909  0.09529917  0.68816064  1
  Se  Se237  1  0.92546976  0.41112138  0.20188173  1
  Se  Se238  1  0.91100006  0.42952558  0.68284189  1
  Se  Se239  1  0.91467929  0.74732420  0.18296159  1
  Se  Se240  1  0.91705884  0.75203193  0.69962018  1
  Se  Se241  1  0.07883973  0.24908611  0.20442049  1
  Se  Se242  1  0.09529576  0.24556715  0.68713081  1
  Se  Se243  1  0.09278040  0.57352161  0.18961071  1
  Se  Se244  1  0.07668899  0.58781132  0.68839148  1
  Se  Se245  1  0.07471129  0.91441829  0.19620974  1
  Se  Se246  1  0.09731500  0.90808823  0.69606794  1
  Se  Se247  1  0.41239482  0.25690608  0.19866646  1
  Se  Se248  1  0.41858384  0.24350768  0.68871051  1
  Se  Se249  1  0.42002108  0.58768473  0.20137069  1
  Se  Se250  1  0.41212285  0.57822061  0.69772818  1
  Se  Se251  1  0.41332996  0.92163904  0.19732506  1
  Se  Se252  1  0.42272204  0.90813314  0.68506907  1
  Se  Se253  1  0.75146430  0.25438221  0.20093258  1
  Se  Se254  1  0.75192561  0.26682720  0.69105471  1
  Se  Se255  1  0.76346221  0.57444717  0.19460692  1
  Se  Se256  1  0.74496918  0.58683641  0.70093630  1
  Se  Se257  1  0.75213482  0.90704071  0.18427981  1
  Se  Se258  1  0.74943281  0.91747917  0.69700560  1
