# generated using pymatgen
data_In86Cu29Se144
_symmetry_space_group_name_H-M   'P 1'
_cell_length_a   17.57315650
_cell_length_b   17.57339428
_cell_length_c   23.43631824
_cell_angle_alpha   89.98884827
_cell_angle_beta   90.02040714
_cell_angle_gamma   90.00590243
_symmetry_Int_Tables_number   1
_chemical_formula_structural   In86Cu29Se144
_chemical_formula_sum   'In86 Cu29 Se144'
_cell_volume   7237.60334837
_cell_formula_units_Z   1
loop_
 _symmetry_equiv_pos_site_id
 _symmetry_equiv_pos_as_xyz
  1  'x, y, z'
loop_
 _atom_site_type_symbol
 _atom_site_label
 _atom_site_symmetry_multiplicity
 _atom_site_fract_x
 _atom_site_fract_y
 _atom_site_fract_z
 _atom_site_occupancy
  In  In0  1  0.00152298  0.17169262  0.12390803  1
  In  In1  1  -0.00058838  0.16523958  0.61844752  1
  In  In2  1  0.00112806  0.48815041  0.12470511  1
  In  In3  1  0.00797336  0.50793436  0.61534975  1
  In  In4  1  0.01277505  0.83590323  0.13181337  1
  In  In5  1  -0.00827668  0.82532791  0.61714385  1
  In  In6  1  0.33117391  0.16804670  0.12915019  1
  In  In7  1  0.32858333  0.17475671  0.63341161  1
  In  In8  1  0.31464827  0.49904339  0.12251838  1
  In  In9  1  0.33287232  0.50137303  0.62490399  1
  In  In10  1  0.33967808  0.83228971  0.12377791  1
  In  In11  1  0.32249067  0.84155138  0.63061075  1
  In  In12  1  0.66265107  0.14978421  0.11026940  1
  In  In13  1  0.67369192  0.16320662  0.61914602  1
  In  In14  1  0.67677230  0.50244672  0.12909047  1
  In  In15  1  0.67859888  0.51007415  0.61002762  1
  In  In16  1  0.65379188  0.83871476  0.12756123  1
  In  In17  1  0.66878085  0.82598059  0.62173874  1
  In  In18  1  0.16831039  0.00091947  0.37076575  1
  In  In19  1  0.17701014  0.00161347  0.87685829  1
  In  In20  1  0.16595257  0.33249279  0.37225497  1
  In  In21  1  0.17431908  0.32352916  0.88681557  1
  In  In22  1  0.16175401  0.66901705  0.38692488  1
  In  In23  1  0.16183384  0.65464326  0.86605468  1
  In  In24  1  0.49738426  0.00743145  0.37112399  1
  In  In25  1  0.48747891  0.01321366  0.88859812  1
  In  In26  1  0.49907245  0.34797546  0.37479673  1
  In  In27  1  0.48919827  0.33085630  0.87642615  1
  In  In28  1  0.50006655  0.65471920  0.37969033  1
  In  In29  1  0.50415194  0.67742874  0.86592234  1
  In  In30  1  0.85388907  -0.02143587  0.38796612  1
  In  In31  1  0.84162404  0.00165115  0.87808121  1
  In  In32  1  0.84034034  0.32190626  0.38617022  1
  In  In33  1  0.83101888  0.33036435  0.87597350  1
  In  In34  1  0.82433411  0.67854605  0.37902385  1
  In  In35  1  0.83317427  0.66695138  0.86533852  1
  In  In36  1  0.00131224  0.16871090  0.37119570  1
  In  In37  1  0.00468629  0.17238099  0.89243015  1
  In  In38  1  0.01250117  0.48966557  0.38212202  1
  In  In39  1  0.00463246  0.51322447  0.87549174  1
  In  In40  1  -0.00140722  0.84147437  0.37294782  1
  In  In41  1  0.00895896  0.82028981  0.87592703  1
  In  In42  1  0.32041965  0.15617939  0.36582355  1
  In  In43  1  0.33089315  0.16801831  0.87862666  1
  In  In44  1  0.33793342  0.49430541  0.38186126  1
  In  In45  1  0.32419525  0.48883935  0.86313977  1
  In  In46  1  0.32061938  0.83653888  0.37654719  1
  In  In47  1  0.33787484  0.84509211  0.86632917  1
  In  In48  1  0.67842230  0.16820605  0.38090636  1
  In  In49  1  0.67015588  0.15528011  0.88781902  1
  In  In50  1  0.65525755  0.50457039  0.38552333  1
  In  In51  1  0.65914736  0.50619840  0.86870048  1
  In  In52  1  0.70052974  0.83446924  0.37258606  1
  In  In53  1  0.66654248  0.82140531  0.87189397  1
  In  In54  1  0.14867596  0.01013466  0.14330360  1
  In  In55  1  0.17340283  0.00874588  0.61910530  1
  In  In56  1  0.16537908  0.33609230  0.12724400  1
  In  In57  1  0.17823920  0.34035499  0.61852400  1
  In  In58  1  0.17374847  0.66619043  0.11986590  1
  In  In59  1  0.16426509  0.66573319  0.62470933  1
  In  In60  1  0.49516891  -0.01249469  0.11782628  1
  In  In61  1  0.49228279  -0.00687652  0.62546548  1
  In  In62  1  0.50220158  0.31772860  0.12632304  1
  In  In63  1  0.48002691  0.33344842  0.62814080  1
  In  In64  1  0.49603721  0.68182448  0.12113153  1
  In  In65  1  0.50781936  0.66344030  0.63130904  1
  In  In66  1  0.83062874  0.01451539  0.12897099  1
  In  In67  1  0.83338984  0.00173151  0.60546271  1
  In  In68  1  0.85281718  0.31991594  0.13613412  1
  In  In69  1  0.83048229  0.33416711  0.60782230  1
  In  In70  1  0.83179843  0.65372666  0.13293118  1
  In  In71  1  0.83425090  0.66598069  0.62023778  1
  In  In72  1  0.66833960  0.33200676  0.25544570  1
  In  In73  1  0.50239692  0.17431901  0.49426744  1
  In  In74  1  0.49586659  0.49854448  -0.00971813  1
  In  In75  1  0.00498588  -0.00736095  0.75567599  1
  In  In76  1  0.17002490  0.83540419  0.00248471  1
  In  In77  1  0.66889482  -0.00207720  0.25230842  1
  In  In78  1  0.82812092  0.83411998  -0.00108805  1
  In  In79  1  0.65904604  0.33679044  0.74651581  1
  In  In80  1  -0.00286322  0.67091478  0.25753012  1
  In  In81  1  0.33097425  0.66720717  0.24564630  1
  In  In82  1  0.50610580  0.83189334  0.50878389  1
  In  In83  1  0.66068789  -0.00606471  0.74669717  1
  In  In84  1  0.84008804  0.49125262  0.00228938  1
  In  In85  1  0.00494324  0.33925414  0.74603325  1
  Cu  Cu86  1  0.32452974  0.33149946  0.50018684  1
  Cu  Cu87  1  0.00426642  0.32703260  0.49776400  1
  Cu  Cu88  1  0.67444672  0.32238811  0.00171708  1
  Cu  Cu89  1  0.49831431  0.50664667  0.74741049  1
  Cu  Cu90  1  0.16392060  0.17206466  0.24965740  1
  Cu  Cu91  1  0.49790676  0.50344749  0.25585405  1
  Cu  Cu92  1  0.17540791  0.16885490  0.75281796  1
  Cu  Cu93  1  0.16923831  0.49970385  0.74315701  1
  Cu  Cu94  1  -0.00301570  0.66463336  0.49875986  1
  Cu  Cu95  1  0.32909323  0.00242725  0.49818965  1
  Cu  Cu96  1  0.16549530  0.49794501  0.25288394  1
  Cu  Cu97  1  0.49201859  0.16594670  0.24920585  1
  Cu  Cu98  1  0.83844239  0.16791693  0.25112492  1
  Cu  Cu99  1  0.83196421  0.82104301  0.74274200  1
  Cu  Cu100  1  0.16400515  0.82678909  0.74888683  1
  Cu  Cu101  1  0.33333324  0.67005377  -0.00480448  1
  Cu  Cu102  1  0.00947669  0.00297257  0.49400855  1
  Cu  Cu103  1  0.32840475  0.00886964  0.00397804  1
  Cu  Cu104  1  0.83440091  0.50802194  0.73994162  1
  Cu  Cu105  1  0.66298160  0.66744212  -0.00292915  1
  Cu  Cu106  1  0.33296587  0.32876518  0.00160891  1
  Cu  Cu107  1  0.50042618  0.83112351  0.24803789  1
  Cu  Cu108  1  0.49288909  0.16370922  0.75780350  1
  Cu  Cu109  1  0.49271757  0.83643952  0.74868753  1
  Cu  Cu110  1  0.00022671  0.00634925  0.00846020  1
  Cu  Cu111  1  0.83172360  0.50073778  0.25596696  1
  Cu  Cu112  1  0.32924241  0.66285427  0.50325744  1
  Cu  Cu113  1  0.67083418  0.67186479  0.49975730  1
  Cu  Cu114  1  0.83955508  0.16478573  0.74735899  1
  Se  Se115  1  0.08924625  0.08467251  0.05911451  1
  Se  Se116  1  0.08704939  0.08740292  0.55123859  1
  Se  Se117  1  0.09787385  0.42961843  0.05677742  1
  Se  Se118  1  0.08437353  0.41254765  0.55276848  1
  Se  Se119  1  0.07414074  0.74328057  0.05531312  1
  Se  Se120  1  0.08319746  0.74709801  0.55234718  1
  Se  Se121  1  0.41573055  0.08583155  0.05946227  1
  Se  Se122  1  0.41172824  0.08330413  0.55694111  1
  Se  Se123  1  0.41465076  0.41258175  0.06002022  1
  Se  Se124  1  0.40982130  0.41457534  0.55245803  1
  Se  Se125  1  0.41513732  0.75503228  0.04711982  1
  Se  Se126  1  0.40862937  0.74534338  0.56409390  1
  Se  Se127  1  0.75416724  0.07396224  0.04743927  1
  Se  Se128  1  0.75709425  0.09650195  0.54567326  1
  Se  Se129  1  0.74863554  0.40277435  0.06450474  1
  Se  Se130  1  0.74372505  0.41383076  0.54386257  1
  Se  Se131  1  0.74447107  0.73926625  0.06192562  1
  Se  Se132  1  0.75645816  0.75549768  0.55068636  1
  Se  Se133  1  0.24961154  0.25074155  0.05916243  1
  Se  Se134  1  0.24914950  0.24149193  0.55406727  1
  Se  Se135  1  0.25047055  0.58592263  0.04675990  1
  Se  Se136  1  0.24513582  0.57931043  0.55606462  1
  Se  Se137  1  0.24943793  0.92883309  0.06602619  1
  Se  Se138  1  0.24868182  0.91603159  0.55213738  1
  Se  Se139  1  0.58164781  0.24605380  0.05119841  1
  Se  Se140  1  0.58261997  0.25902747  0.56455255  1
  Se  Se141  1  0.58614212  0.58262360  0.05726274  1
  Se  Se142  1  0.58144731  0.59220306  0.55158708  1
  Se  Se143  1  0.58680478  0.91530144  0.05044600  1
  Se  Se144  1  0.59664399  0.93208758  0.55950780  1
  Se  Se145  1  0.91613497  0.25044413  0.05413871  1
  Se  Se146  1  0.91679430  0.24457900  0.54860323  1
  Se  Se147  1  0.92403589  0.58953878  0.05932942  1
  Se  Se148  1  0.91218579  0.57992298  0.55003971  1
  Se  Se149  1  0.92229901  0.91823054  0.06227346  1
  Se  Se150  1  0.92432173  0.91794685  0.54637203  1
  Se  Se151  1  0.08740071  0.24645344  0.44204999  1
  Se  Se152  1  0.08666790  0.25422549  0.95747735  1
  Se  Se153  1  0.08559237  0.57862444  0.45256937  1
  Se  Se154  1  0.08726510  0.58801953  0.94642737  1
  Se  Se155  1  0.08928040  0.91542312  0.44165195  1
  Se  Se156  1  0.07375074  0.92548053  0.94263514  1
  Se  Se157  1  0.40395468  0.25490540  0.43491419  1
  Se  Se158  1  0.41847492  0.24647515  0.94920939  1
  Se  Se159  1  0.41561280  0.58158286  0.45128983  1
  Se  Se160  1  0.40869854  0.59000183  0.93086526  1
  Se  Se161  1  0.41659690  0.92155944  0.44515139  1
  Se  Se162  1  0.40458721  0.91897554  0.94858381  1
  Se  Se163  1  0.73153386  0.26786399  0.44940018  1
  Se  Se164  1  0.75953143  0.24387080  0.94675444  1
  Se  Se165  1  0.75083436  0.58542213  0.44629556  1
  Se  Se166  1  0.74668946  0.58492989  0.94171023  1
  Se  Se167  1  0.74661551  0.92320198  0.45114365  1
  Se  Se168  1  0.73991041  0.92279205  0.93708602  1
  Se  Se169  1  0.24608154  0.08537969  0.44487597  1
  Se  Se170  1  0.24402553  0.08925977  0.94936753  1
  Se  Se171  1  0.24424082  0.41683471  0.44498807  1
  Se  Se172  1  0.25786457  0.41849110  0.94652992  1
  Se  Se173  1  0.25158958  0.75125619  0.45058418  1
  Se  Se174  1  0.25249085  0.74991741  0.93384748  1
  Se  Se175  1  0.59133049  0.07368927  0.44306429  1
  Se  Se176  1  0.58235091  0.08123419  0.95418007  1
  Se  Se177  1  0.57444029  0.41769218  0.45143766  1
  Se  Se178  1  0.59716925  0.40514387  0.94044166  1
  Se  Se179  1  0.58996133  0.75134378  0.43796828  1
  Se  Se180  1  0.57964468  0.75034088  0.94494048  1
  Se  Se181  1  0.92105297  0.08654144  0.44387094  1
  Se  Se182  1  0.91539139  0.08337750  0.95051810  1
  Se  Se183  1  0.92027365  0.41479852  0.44913512  1
  Se  Se184  1  0.92969549  0.40789228  0.93811000  1
  Se  Se185  1  0.92125202  0.75199300  0.44217293  1
  Se  Se186  1  0.91904741  0.73910165  0.94345658  1
  Se  Se187  1  0.25099454  0.25424207  0.30113944  1
  Se  Se188  1  0.25286574  0.25516679  0.80791576  1
  Se  Se189  1  0.24436343  0.58144370  0.31206943  1
  Se  Se190  1  0.25333034  0.58396374  0.79675655  1
  Se  Se191  1  0.26180922  0.92631894  0.30380034  1
  Se  Se192  1  0.24180763  0.91797051  0.80023464  1
  Se  Se193  1  0.57474199  0.23962657  0.31255726  1
  Se  Se194  1  0.58348713  0.23937260  0.81280101  1
  Se  Se195  1  0.58489821  0.58372689  0.30605368  1
  Se  Se196  1  0.58497247  0.58953599  0.79809975  1
  Se  Se197  1  0.58062009  0.90474833  0.31371489  1
  Se  Se198  1  0.57127472  0.91434338  0.81329256  1
  Se  Se199  1  0.91593561  0.25593862  0.30480161  1
  Se  Se200  1  0.91885590  0.24358595  0.80742147  1
  Se  Se201  1  0.91401988  0.57612555  0.31845463  1
  Se  Se202  1  0.91808956  0.58132977  0.80095893  1
  Se  Se203  1  0.91029126  0.91188594  0.30128709  1
  Se  Se204  1  0.90722464  0.89907314  0.80912799  1
  Se  Se205  1  0.08300307  0.08486955  0.30280596  1
  Se  Se206  1  0.08664666  0.09545793  0.81155100  1
  Se  Se207  1  0.07961213  0.41325247  0.30200466  1
  Se  Se208  1  0.09395004  0.42166317  0.81057470  1
  Se  Se209  1  0.09723567  0.75683564  0.30981516  1
  Se  Se210  1  0.07900364  0.74292922  0.79929889  1
  Se  Se211  1  0.41167590  0.07750242  0.29949402  1
  Se  Se212  1  0.40939698  0.07942215  0.80879968  1
  Se  Se213  1  0.41117975  0.41874472  0.30264798  1
  Se  Se214  1  0.42368499  0.41573018  0.80085823  1
  Se  Se215  1  0.42079505  0.75192944  0.31130459  1
  Se  Se216  1  0.40979834  0.75004032  0.79979915  1
  Se  Se217  1  0.76173019  0.08512860  0.31185761  1
  Se  Se218  1  0.75571255  0.08554026  0.80498102  1
  Se  Se219  1  0.75337637  0.42111403  0.31812149  1
  Se  Se220  1  0.75889527  0.42596969  0.80368501  1
  Se  Se221  1  0.74891234  0.74224026  0.29691111  1
  Se  Se222  1  0.74434609  0.74424369  0.79769758  1
  Se  Se223  1  0.25007568  0.08620672  0.20033889  1
  Se  Se224  1  0.25097653  0.08025853  0.69758562  1
  Se  Se225  1  0.25088606  0.41661938  0.19955510  1
  Se  Se226  1  0.25464921  0.41317875  0.69571721  1
  Se  Se227  1  0.23898613  0.76179313  0.19210835  1
  Se  Se228  1  0.24945133  0.74607836  0.69514266  1
  Se  Se229  1  0.57674760  0.08587840  0.19155399  1
  Se  Se230  1  0.57389623  0.09414274  0.69087896  1
  Se  Se231  1  0.57702015  0.42204850  0.19268284  1
  Se  Se232  1  0.57713286  0.42860189  0.68369191  1
  Se  Se233  1  0.58279646  0.74565252  0.19658851  1
  Se  Se234  1  0.58274913  0.75931170  0.69608462  1
  Se  Se235  1  0.92180077  0.08634902  0.19621424  1
  Se  Se236  1  0.91471479  0.07847318  0.69009194  1
  Se  Se237  1  0.91589744  0.42126581  0.20090271  1
  Se  Se238  1  0.90916413  0.42006791  0.68350041  1
  Se  Se239  1  0.90928012  0.75582088  0.19184419  1
  Se  Se240  1  0.92100117  0.74253667  0.69221411  1
  Se  Se241  1  0.08009948  0.25502618  0.19589523  1
  Se  Se242  1  0.09219065  0.24294221  0.68961334  1
  Se  Se243  1  0.08895240  0.58350519  0.19350205  1
  Se  Se244  1  0.08033839  0.58152097  0.69438667  1
  Se  Se245  1  0.07886156  0.91477496  0.20858996  1
  Se  Se246  1  0.08738227  0.91009124  0.68646500  1
  Se  Se247  1  0.41240964  0.25503609  0.19938802  1
  Se  Se248  1  0.41303860  0.25131379  0.70507304  1
  Se  Se249  1  0.42227059  0.57627401  0.18534249  1
  Se  Se250  1  0.41258490  0.58793051  0.69459520  1
  Se  Se251  1  0.41775242  0.91484499  0.19571850  1
  Se  Se252  1  0.40959638  0.92290965  0.69896688  1
  Se  Se253  1  0.74637334  0.23621378  0.19058490  1
  Se  Se254  1  0.75899838  0.24859213  0.69140818  1
  Se  Se255  1  0.74516675  0.58282558  0.20575605  1
  Se  Se256  1  0.74512385  0.58769862  0.68998609  1
  Se  Se257  1  0.75769525  0.90928447  0.19078815  1
  Se  Se258  1  0.76284622  0.91533182  0.68746829  1
