# generated using pymatgen
data_In86Cu29Se144
_symmetry_space_group_name_H-M   'P 1'
_cell_length_a   17.58168937
_cell_length_b   17.58173707
_cell_length_c   23.43217370
_cell_angle_alpha   90.01025008
_cell_angle_beta   90.00532527
_cell_angle_gamma   90.02200595
_symmetry_Int_Tables_number   1
_chemical_formula_structural   In86Cu29Se144
_chemical_formula_sum   'In86 Cu29 Se144'
_cell_volume   7243.27411361
_cell_formula_units_Z   1
loop_
 _symmetry_equiv_pos_site_id
 _symmetry_equiv_pos_as_xyz
  1  'x, y, z'
loop_
 _atom_site_type_symbol
 _atom_site_label
 _atom_site_symmetry_multiplicity
 _atom_site_fract_x
 _atom_site_fract_y
 _atom_site_fract_z
 _atom_site_occupancy
  In  In0  1  -0.01142066  0.14520222  0.09961966  1
  In  In1  1  -0.00454462  0.17338306  0.63347551  1
  In  In2  1  0.00963609  0.50357058  0.12059061  1
  In  In3  1  -0.00398296  0.50463730  0.64203228  1
  In  In4  1  -0.01325797  0.83149862  0.11370901  1
  In  In5  1  -0.00968433  0.82514106  0.62243734  1
  In  In6  1  0.32460307  0.15701452  0.10334300  1
  In  In7  1  0.34413695  0.16153196  0.63747432  1
  In  In8  1  0.32710449  0.49352105  0.10601182  1
  In  In9  1  0.33833114  0.49225627  0.63102399  1
  In  In10  1  0.33765334  0.84729888  0.12290326  1
  In  In11  1  0.33710736  0.84579034  0.62718866  1
  In  In12  1  0.64880215  0.14220415  0.10277548  1
  In  In13  1  0.67544259  0.15435374  0.63432220  1
  In  In14  1  0.66317357  0.50936393  0.12143731  1
  In  In15  1  0.65146007  0.50909637  0.64152684  1
  In  In16  1  0.67102180  0.82214230  0.12746960  1
  In  In17  1  0.69012931  0.81121555  0.66262383  1
  In  In18  1  0.16044539  -0.00780537  0.37006820  1
  In  In19  1  0.16413036  -0.00962797  0.88943084  1
  In  In20  1  0.16926192  0.33092803  0.37333003  1
  In  In21  1  0.17105979  0.33742519  0.87724337  1
  In  In22  1  0.17286029  0.68263986  0.37393829  1
  In  In23  1  0.16065925  0.67142234  0.88174241  1
  In  In24  1  0.49867026  -0.00405310  0.36476906  1
  In  In25  1  0.52262398  0.01892883  0.86609905  1
  In  In26  1  0.50928529  0.33801375  0.38007568  1
  In  In27  1  0.49475667  0.33432373  0.87480204  1
  In  In28  1  0.50158905  0.65376015  0.37940892  1
  In  In29  1  0.50562855  0.65959657  0.86503426  1
  In  In30  1  0.82507607  0.00446952  0.38105185  1
  In  In31  1  0.82220918  0.00023888  0.88572796  1
  In  In32  1  0.82145400  0.32933737  0.38122592  1
  In  In33  1  0.82374485  0.31859203  0.86418715  1
  In  In34  1  0.83870310  0.67978647  0.36971542  1
  In  In35  1  0.82993685  0.67599466  0.86154331  1
  In  In36  1  -0.00437332  0.15260754  0.37319500  1
  In  In37  1  -0.00984968  0.16453842  0.88749329  1
  In  In38  1  -0.01746004  0.50769262  0.37468793  1
  In  In39  1  0.01171337  0.50775348  0.86936965  1
  In  In40  1  0.00611647  0.82873016  0.37891744  1
  In  In41  1  -0.00382472  0.83073667  0.88305379  1
  In  In42  1  0.34392232  0.16329446  0.36956021  1
  In  In43  1  0.33681230  0.17384840  0.88098927  1
  In  In44  1  0.34406518  0.50798773  0.37829244  1
  In  In45  1  0.35414180  0.47886384  0.89387383  1
  In  In46  1  0.32325290  0.83775292  0.37458062  1
  In  In47  1  0.32117043  0.83789616  0.87492524  1
  In  In48  1  0.67349224  0.16755078  0.37825011  1
  In  In49  1  0.65980074  0.16302864  0.88506294  1
  In  In50  1  0.65474817  0.49877681  0.37828181  1
  In  In51  1  0.65154901  0.49318016  0.85328734  1
  In  In52  1  0.67258426  0.83803025  0.37200765  1
  In  In53  1  0.67702592  0.84853363  0.85170765  1
  In  In54  1  0.17144048  0.00505779  0.10899154  1
  In  In55  1  0.17811074  -0.00477903  0.62830080  1
  In  In56  1  0.16770767  0.32460302  0.10157873  1
  In  In57  1  0.16958965  0.33334142  0.64142110  1
  In  In58  1  0.15768504  0.66166875  0.11857660  1
  In  In59  1  0.15194673  0.67112642  0.62879304  1
  In  In60  1  0.49403648  -0.00177500  0.12822524  1
  In  In61  1  0.50979542  -0.02397228  0.65451946  1
  In  In62  1  0.49113084  0.32933683  0.10220456  1
  In  In63  1  0.49332222  0.34563727  0.64088135  1
  In  In64  1  0.51203411  0.66174230  0.11982216  1
  In  In65  1  0.53269394  0.66806427  0.63629331  1
  In  In66  1  0.81555364  -0.02240321  0.09532457  1
  In  In67  1  0.81759670  -0.01480898  0.61963727  1
  In  In68  1  0.83437745  0.32095493  0.12233121  1
  In  In69  1  0.84020553  0.32519230  0.63653445  1
  In  In70  1  0.82431285  0.67816796  0.12998892  1
  In  In71  1  0.83456152  0.68009272  0.63508437  1
  In  In72  1  0.50628611  0.82969971  0.50752393  1
  In  In73  1  0.34005991  0.66992237  0.24996380  1
  In  In74  1  0.50386263  0.16507258  0.51091018  1
  In  In75  1  0.66378931  0.33501039  0.25162654  1
  In  In76  1  0.32805719  0.66392846  0.75519316  1
  In  In77  1  0.50259008  0.83067884  -0.00710416  1
  In  In78  1  0.82506817  0.50431665  0.50764007  1
  In  In79  1  0.16350615  0.16123380  0.51074766  1
  In  In80  1  -0.00262259  -0.00419753  0.23641596  1
  In  In81  1  0.33259576  0.33278767  0.22772781  1
  In  In82  1  0.00191211  0.33277946  0.23578221  1
  In  In83  1  -0.00514782  -0.00199105  0.76353025  1
  In  In84  1  0.82691512  0.49672000  -0.00919229  1
  In  In85  1  0.16526869  0.50112232  0.50986403  1
  Cu  Cu86  1  0.17144740  0.16975062  0.75802748  1
  Cu  Cu87  1  0.34164925  0.00198121  -0.00373557  1
  Cu  Cu88  1  0.32924862  -0.00050748  0.50259796  1
  Cu  Cu89  1  0.83530131  0.84041248  0.24569256  1
  Cu  Cu90  1  0.83203230  0.16589334  0.25021480  1
  Cu  Cu91  1  0.33888701  0.66676574  0.50043858  1
  Cu  Cu92  1  0.00199320  0.66929231  0.50016971  1
  Cu  Cu93  1  0.83273994  0.51590274  0.24785153  1
  Cu  Cu94  1  -0.00869001  -0.00416320  0.49853174  1
  Cu  Cu95  1  0.00065036  0.33932653  -0.00774259  1
  Cu  Cu96  1  0.49990597  0.15276677  0.24222774  1
  Cu  Cu97  1  0.33941667  0.33868410  0.51131714  1
  Cu  Cu98  1  0.49946439  0.17695664  0.75777140  1
  Cu  Cu99  1  0.15624046  0.83453646  0.75940456  1
  Cu  Cu100  1  0.66557320  -0.00293835  0.50493376  1
  Cu  Cu101  1  0.84289928  0.49605302  0.75436544  1
  Cu  Cu102  1  0.67050899  0.66589520  -0.00538928  1
  Cu  Cu103  1  0.51004478  0.83465064  0.24925890  1
  Cu  Cu104  1  0.66881967  0.33119957  -0.01309303  1
  Cu  Cu105  1  0.50028892  0.49887346  0.24788596  1
  Cu  Cu106  1  0.17491674  0.16420746  0.23120244  1
  Cu  Cu107  1  0.15499940  0.50772355  0.24527384  1
  Cu  Cu108  1  0.32997017  0.66927754  -0.00898267  1
  Cu  Cu109  1  0.66609299  0.33309599  0.50786246  1
  Cu  Cu110  1  0.83150114  0.15791920  0.75884647  1
  Cu  Cu111  1  0.17306613  0.49873138  0.76016309  1
  Cu  Cu112  1  0.16972143  0.83642894  0.24910446  1
  Cu  Cu113  1  -0.01121182  0.66623632  -0.00356977  1
  Cu  Cu114  1  -0.00304176  0.32516062  0.50929222  1
  Se  Se115  1  0.11114529  0.11047982  0.04669589  1
  Se  Se116  1  0.06974954  0.06978223  0.56554415  1
  Se  Se117  1  0.08192960  0.42157825  0.04726113  1
  Se  Se118  1  0.07442926  0.40877117  0.56751949  1
  Se  Se119  1  0.07523943  0.74687135  0.05137407  1
  Se  Se120  1  0.08512642  0.75380735  0.55238332  1
  Se  Se121  1  0.42926346  0.08074657  0.04957774  1
  Se  Se122  1  0.41345557  0.07086070  0.56418161  1
  Se  Se123  1  0.43068761  0.43545046  0.04334239  1
  Se  Se124  1  0.42615033  0.42179937  0.55868859  1
  Se  Se125  1  0.41060431  0.74279775  0.05849839  1
  Se  Se126  1  0.41415507  0.74248537  0.56752478  1
  Se  Se127  1  0.77260178  0.10444079  0.05239956  1
  Se  Se128  1  0.74974270  0.08487958  0.55350896  1
  Se  Se129  1  0.74092557  0.40669453  0.05773079  1
  Se  Se130  1  0.74635094  0.41077773  0.57058175  1
  Se  Se131  1  0.75066254  0.74893001  0.05029391  1
  Se  Se132  1  0.74161339  0.75318122  0.56989859  1
  Se  Se133  1  0.28115181  0.27366020  0.04457249  1
  Se  Se134  1  0.25663593  0.25559466  0.56560603  1
  Se  Se135  1  0.24595446  0.58903228  0.04784226  1
  Se  Se136  1  0.25789467  0.59294579  0.56578489  1
  Se  Se137  1  0.25687187  0.91526770  0.04646353  1
  Se  Se138  1  0.24734278  0.91218548  0.55228100  1
  Se  Se139  1  0.58558430  0.24905769  0.04264337  1
  Se  Se140  1  0.58823947  0.25621735  0.57198087  1
  Se  Se141  1  0.58480851  0.58161146  0.04439032  1
  Se  Se142  1  0.59447825  0.58678330  0.55830654  1
  Se  Se143  1  0.58569048  0.91302762  0.06209508  1
  Se  Se144  1  0.58893097  0.92222534  0.56841343  1
  Se  Se145  1  0.91906087  0.25619544  0.04734159  1
  Se  Se146  1  0.91089001  0.24277073  0.55858242  1
  Se  Se147  1  0.91007688  0.58498177  0.05835707  1
  Se  Se148  1  0.92657277  0.58861492  0.56243367  1
  Se  Se149  1  0.93919417  0.93710543  0.04409641  1
  Se  Se150  1  0.91155561  0.91127802  0.55414009  1
  Se  Se151  1  0.07829809  0.25205401  0.44360281  1
  Se  Se152  1  0.08462572  0.25139638  0.94428568  1
  Se  Se153  1  0.08109272  0.58664520  0.43973385  1
  Se  Se154  1  0.07864990  0.58401667  0.94963836  1
  Se  Se155  1  0.08266232  0.92050409  0.44595534  1
  Se  Se156  1  0.07333942  0.91412521  0.95471906  1
  Se  Se157  1  0.41119502  0.25499988  0.44654639  1
  Se  Se158  1  0.42361081  0.25085459  0.95012849  1
  Se  Se159  1  0.42208752  0.57816008  0.45461655  1
  Se  Se160  1  0.42286653  0.59322315  0.94297544  1
  Se  Se161  1  0.41460541  0.92171624  0.44355240  1
  Se  Se162  1  0.41858551  0.92436484  0.93273666  1
  Se  Se163  1  0.74680213  0.24829290  0.45388059  1
  Se  Se164  1  0.75858562  0.24434958  0.94570738  1
  Se  Se165  1  0.74846984  0.58920866  0.43624791  1
  Se  Se166  1  0.74085246  0.58381636  0.92836986  1
  Se  Se167  1  0.74783076  0.91545096  0.44859342  1
  Se  Se168  1  0.73700498  0.90538403  0.94241329  1
  Se  Se169  1  0.25389090  0.08171583  0.43974836  1
  Se  Se170  1  0.25291968  0.08329416  0.94603148  1
  Se  Se171  1  0.25644467  0.41133223  0.44623812  1
  Se  Se172  1  0.23801888  0.42878584  0.94853180  1
  Se  Se173  1  0.25594141  0.75088989  0.44911510  1
  Se  Se174  1  0.24391661  0.75803049  0.94815229  1
  Se  Se175  1  0.58402269  0.07463376  0.44224263  1
  Se  Se176  1  0.59111750  0.06965613  0.95460044  1
  Se  Se177  1  0.58428709  0.41620284  0.45425569  1
  Se  Se178  1  0.58851404  0.42068065  0.93773529  1
  Se  Se179  1  0.59088098  0.74472485  0.44028508  1
  Se  Se180  1  0.59437439  0.74653395  0.93183610  1
  Se  Se181  1  0.91279999  0.08614995  0.44842593  1
  Se  Se182  1  0.92868574  0.05939667  0.94952685  1
  Se  Se183  1  0.92076192  0.40870954  0.44754022  1
  Se  Se184  1  0.91800250  0.41175975  0.92933076  1
  Se  Se185  1  0.91743506  0.75148758  0.44705565  1
  Se  Se186  1  0.90248207  0.74618991  0.94397571  1
  Se  Se187  1  0.24649572  0.24519020  0.29861768  1
  Se  Se188  1  0.25487564  0.25439495  0.80850506  1
  Se  Se189  1  0.24441873  0.57585160  0.30763097  1
  Se  Se190  1  0.25030442  0.57592503  0.82334297  1
  Se  Se191  1  0.25208455  0.92199859  0.30047310  1
  Se  Se192  1  0.23876730  0.92244547  0.80732130  1
  Se  Se193  1  0.57032177  0.23746475  0.30779293  1
  Se  Se194  1  0.58836775  0.25134470  0.81277232  1
  Se  Se195  1  0.58177633  0.58058564  0.30307150  1
  Se  Se196  1  0.58969643  0.59517205  0.78867262  1
  Se  Se197  1  0.59206001  0.92090815  0.30123183  1
  Se  Se198  1  0.56853800  0.91384353  0.79640704  1
  Se  Se199  1  0.91269278  0.24964665  0.30735533  1
  Se  Se200  1  0.92299961  0.23980467  0.80568270  1
  Se  Se201  1  0.92048949  0.59462892  0.30001274  1
  Se  Se202  1  0.92070976  0.58617890  0.80405358  1
  Se  Se203  1  0.91519522  0.91677804  0.30989644  1
  Se  Se204  1  0.90073849  0.90547716  0.81316561  1
  Se  Se205  1  0.09109132  0.09144744  0.29688839  1
  Se  Se206  1  0.09050584  0.08842370  0.81723155  1
  Se  Se207  1  0.08307610  0.42152655  0.30745029  1
  Se  Se208  1  0.08382949  0.41199193  0.80392063  1
  Se  Se209  1  0.08627642  0.75427494  0.30264180  1
  Se  Se210  1  0.07573902  0.74821062  0.81045406  1
  Se  Se211  1  0.41139166  0.07663812  0.29729621  1
  Se  Se212  1  0.41661038  0.08993156  0.80939828  1
  Se  Se213  1  0.41785396  0.41466256  0.30521182  1
  Se  Se214  1  0.41857009  0.42254906  0.80586929  1
  Se  Se215  1  0.42829059  0.75858829  0.31372898  1
  Se  Se216  1  0.41637503  0.75938136  0.80958617  1
  Se  Se217  1  0.74917165  0.08493739  0.30603331  1
  Se  Se218  1  0.74417589  0.08125387  0.81344566  1
  Se  Se219  1  0.75893410  0.42865792  0.30832864  1
  Se  Se220  1  0.75216888  0.41221841  0.79798600  1
  Se  Se221  1  0.75208865  0.75594270  0.29976222  1
  Se  Se222  1  0.73032612  0.73632599  0.79231289  1
  Se  Se223  1  0.25793887  0.07804105  0.18321287  1
  Se  Se224  1  0.24598796  0.08621500  0.69847936  1
  Se  Se225  1  0.23169131  0.42663513  0.18208308  1
  Se  Se226  1  0.25642893  0.41861416  0.70407387  1
  Se  Se227  1  0.24803890  0.75374545  0.18765563  1
  Se  Se228  1  0.23944789  0.75910258  0.69527325  1
  Se  Se229  1  0.59138185  0.07594480  0.19180806  1
  Se  Se230  1  0.57786835  0.09022421  0.70275648  1
  Se  Se231  1  0.57364196  0.41562010  0.18462161  1
  Se  Se232  1  0.59394452  0.40594176  0.70676383  1
  Se  Se233  1  0.58224730  0.74394467  0.19531393  1
  Se  Se234  1  0.54755949  0.79518277  0.69020027  1
  Se  Se235  1  0.90548592  0.08820178  0.18356513  1
  Se  Se236  1  0.90873168  0.07982303  0.69404795  1
  Se  Se237  1  0.90412064  0.42916742  0.18646654  1
  Se  Se238  1  0.92597968  0.40621837  0.70465311  1
  Se  Se239  1  0.91866911  0.75548885  0.19391134  1
  Se  Se240  1  0.93038124  0.74540878  0.70253677  1
  Se  Se241  1  0.08690631  0.24031461  0.17535188  1
  Se  Se242  1  0.08358464  0.24641314  0.70326867  1
  Se  Se243  1  0.07362335  0.59312967  0.19523749  1
  Se  Se244  1  0.09088973  0.58225885  0.70430774  1
  Se  Se245  1  0.09397982  0.90942384  0.18050765  1
  Se  Se246  1  0.08231689  0.91454358  0.69331963  1
  Se  Se247  1  0.42698128  0.23640561  0.17979062  1
  Se  Se248  1  0.41145575  0.25614164  0.70461101  1
  Se  Se249  1  0.41692834  0.57380944  0.18558386  1
  Se  Se250  1  0.42475335  0.58621010  0.69169583  1
  Se  Se251  1  0.41837568  0.91328217  0.20056897  1
  Se  Se252  1  0.38527996  0.93711067  0.70462659  1
  Se  Se253  1  0.74644837  0.24188691  0.19072699  1
  Se  Se254  1  0.75224602  0.24367453  0.70247230  1
  Se  Se255  1  0.74152658  0.58862608  0.19412376  1
  Se  Se256  1  0.76473444  0.57480503  0.69318061  1
  Se  Se257  1  0.75557632  0.91906869  0.18584183  1
  Se  Se258  1  0.74870792  0.93137515  0.70718865  1
