# generated using pymatgen
data_In86Cu29Se144
_symmetry_space_group_name_H-M   'P 1'
_cell_length_a   17.58632197
_cell_length_b   17.58104922
_cell_length_c   23.44561619
_cell_angle_alpha   89.98509596
_cell_angle_beta   89.99425119
_cell_angle_gamma   90.00357939
_symmetry_Int_Tables_number   1
_chemical_formula_structural   In86Cu29Se144
_chemical_formula_sum   'In86 Cu29 Se144'
_cell_volume   7249.05580755
_cell_formula_units_Z   1
loop_
 _symmetry_equiv_pos_site_id
 _symmetry_equiv_pos_as_xyz
  1  'x, y, z'
loop_
 _atom_site_type_symbol
 _atom_site_label
 _atom_site_symmetry_multiplicity
 _atom_site_fract_x
 _atom_site_fract_y
 _atom_site_fract_z
 _atom_site_occupancy
  In  In0  1  -0.00258951  0.16330186  0.12113220  1
  In  In1  1  -0.00040013  0.17363365  0.61381200  1
  In  In2  1  0.00032858  0.49568499  0.11522593  1
  In  In3  1  -0.00282970  0.47593615  0.62738561  1
  In  In4  1  -0.00307848  0.85252704  0.12443718  1
  In  In5  1  -0.00758775  0.84833446  0.63243007  1
  In  In6  1  0.31837883  0.16147579  0.13022965  1
  In  In7  1  0.33825994  0.17543987  0.61767333  1
  In  In8  1  0.33202583  0.49186797  0.11462376  1
  In  In9  1  0.31576533  0.49489279  0.61830996  1
  In  In10  1  0.33930768  0.83644540  0.12572039  1
  In  In11  1  0.33600796  0.82825188  0.61922295  1
  In  In12  1  0.67946101  0.15561366  0.13140609  1
  In  In13  1  0.65774585  0.15529981  0.61998484  1
  In  In14  1  0.66777775  0.50075254  0.12309743  1
  In  In15  1  0.67788135  0.50181368  0.63146585  1
  In  In16  1  0.66724343  0.83479670  0.12341953  1
  In  In17  1  0.66317964  0.85090792  0.63489375  1
  In  In18  1  0.16752652  0.01006494  0.35995548  1
  In  In19  1  0.15846630  0.02234875  0.88034751  1
  In  In20  1  0.19045215  0.30006538  0.40840646  1
  In  In21  1  0.16218776  0.33204285  0.87050687  1
  In  In22  1  0.16270110  0.65938644  0.37818603  1
  In  In23  1  0.15449200  0.65942096  0.87478707  1
  In  In24  1  0.50191662  -0.00057179  0.37484215  1
  In  In25  1  0.50396931  -0.01707015  0.88111549  1
  In  In26  1  0.50336168  0.32049425  0.37854858  1
  In  In27  1  0.50170689  0.34641316  0.87182353  1
  In  In28  1  0.51560062  0.66897576  0.37136761  1
  In  In29  1  0.51083897  0.66363428  0.88109461  1
  In  In30  1  0.84453050  0.01427394  0.36331124  1
  In  In31  1  0.83408529  0.00497545  0.86684400  1
  In  In32  1  0.82312075  0.32876725  0.37382215  1
  In  In33  1  0.84837661  0.31815411  0.88300549  1
  In  In34  1  0.83153480  0.67792371  0.37115156  1
  In  In35  1  0.81601880  0.68045189  0.88827456  1
  In  In36  1  0.01026692  0.14599800  0.39778406  1
  In  In37  1  -0.00472311  0.17343032  0.86809278  1
  In  In38  1  0.01156376  0.49568443  0.38025925  1
  In  In39  1  0.00809707  0.49024584  0.88174182  1
  In  In40  1  -0.00210541  0.83965496  0.37190961  1
  In  In41  1  -0.03212598  0.84209009  0.87537059  1
  In  In42  1  0.34274090  0.15893781  0.37899510  1
  In  In43  1  0.31570396  0.16644514  0.87245251  1
  In  In44  1  0.32509756  0.48567596  0.37617460  1
  In  In45  1  0.34154663  0.49324442  0.87876652  1
  In  In46  1  0.33101337  0.86569576  0.37031786  1
  In  In47  1  0.34463241  0.83854458  0.88054402  1
  In  In48  1  0.66859662  0.16207317  0.37362940  1
  In  In49  1  0.68681795  0.16422575  0.87339824  1
  In  In50  1  0.67255948  0.50380773  0.36345468  1
  In  In51  1  0.65718756  0.51065243  0.88136810  1
  In  In52  1  0.66389069  0.82986433  0.36852633  1
  In  In53  1  0.67285672  0.83474347  0.87331805  1
  In  In54  1  0.14441056  0.01469213  0.14579190  1
  In  In55  1  0.13805119  0.02553142  0.62194956  1
  In  In56  1  0.16438690  0.32647266  0.11812690  1
  In  In57  1  0.16683937  0.33054356  0.61954186  1
  In  In58  1  0.17327661  0.65831580  0.12292490  1
  In  In59  1  0.17149266  0.66314254  0.62333441  1
  In  In60  1  0.51222039  -0.00987274  0.13231055  1
  In  In61  1  0.50564836  0.00574163  0.61558463  1
  In  In62  1  0.49982643  0.34556315  0.12342183  1
  In  In63  1  0.50164826  0.31417226  0.62482189  1
  In  In64  1  0.50938707  0.67846351  0.11769092  1
  In  In65  1  0.50354540  0.68062737  0.62131625  1
  In  In66  1  0.83412071  0.00187954  0.12104942  1
  In  In67  1  0.83456516  0.00929084  0.62776699  1
  In  In68  1  0.83029575  0.32343736  0.11787157  1
  In  In69  1  0.84927856  0.31859263  0.64052861  1
  In  In70  1  0.82480498  0.65792131  0.11533843  1
  In  In71  1  0.82830855  0.65947967  0.63582138  1
  In  In72  1  -0.00455447  0.67087754  0.25304783  1
  In  In73  1  0.16755966  0.83368204  0.00485697  1
  In  In74  1  0.82961208  0.84151428  0.50797798  1
  In  In75  1  0.50133501  0.17025000  0.00495485  1
  In  In76  1  0.33800072  0.67360042  0.23951603  1
  In  In77  1  0.00283384  0.32642434  0.25591436  1
  In  In78  1  -0.00559340  0.66913679  0.75782511  1
  In  In79  1  0.83591908  0.49150849  0.50506666  1
  In  In80  1  0.17260322  0.84021803  0.49686323  1
  In  In81  1  0.33653441  0.32420293  0.26055458  1
  In  In82  1  0.49612856  0.49321770  0.49853812  1
  In  In83  1  0.66817320  0.33154260  0.75328735  1
  In  In84  1  0.33399755  0.00253692  0.75002681  1
  In  In85  1  0.33376492  0.66136967  0.74482464  1
  Cu  Cu86  1  0.00528462  0.66790396  0.50427930  1
  Cu  Cu87  1  0.34054255  0.67109603  0.49729093  1
  Cu  Cu88  1  0.50322290  0.16523403  0.25464235  1
  Cu  Cu89  1  0.82719215  0.50426843  0.76169584  1
  Cu  Cu90  1  0.16010919  0.17713139  0.74661921  1
  Cu  Cu91  1  0.33541351  0.00032386  0.49983995  1
  Cu  Cu92  1  0.50027151  0.15868855  0.74561745  1
  Cu  Cu93  1  0.83189213  0.16538942  0.24662092  1
  Cu  Cu94  1  0.82567105  0.83491688  0.24514954  1
  Cu  Cu95  1  0.83186949  0.49894907  0.24376623  1
  Cu  Cu96  1  -0.00302624  0.66195705  -0.00234678  1
  Cu  Cu97  1  0.66352024  0.67059130  0.00137736  1
  Cu  Cu98  1  0.32811178  0.33044471  -0.00351836  1
  Cu  Cu99  1  0.50918304  0.50402125  0.24492375  1
  Cu  Cu100  1  0.66853478  0.32409442  0.50021819  1
  Cu  Cu101  1  0.66607139  0.67142802  0.49747352  1
  Cu  Cu102  1  0.16658381  0.49190270  0.25089348  1
  Cu  Cu103  1  0.66977094  0.33870632  -0.00343587  1
  Cu  Cu104  1  0.67190380  -0.00211789  0.00105617  1
  Cu  Cu105  1  0.50954003  0.83200736  0.74964484  1
  Cu  Cu106  1  0.16248999  0.84648405  0.75354537  1
  Cu  Cu107  1  0.33326195  0.66093242  0.00178081  1
  Cu  Cu108  1  0.66480092  -0.00261395  0.49686845  1
  Cu  Cu109  1  0.33225404  0.00024453  0.00188306  1
  Cu  Cu110  1  -0.00187000  0.00601251  -0.00190052  1
  Cu  Cu111  1  0.50105191  0.83648281  0.24864780  1
  Cu  Cu112  1  0.49348115  0.49923600  0.75315883  1
  Cu  Cu113  1  0.00578635  0.32981966  -0.00250326  1
  Cu  Cu114  1  0.16138099  0.49002295  0.74686032  1
  Se  Se115  1  0.08590614  0.07914188  0.05614289  1
  Se  Se116  1  0.09414541  0.10955726  0.53875027  1
  Se  Se117  1  0.08872972  0.41498960  0.05046063  1
  Se  Se118  1  0.09671370  0.43298641  0.55644617  1
  Se  Se119  1  0.07329652  0.74225319  0.06272450  1
  Se  Se120  1  0.07891591  0.75487157  0.56324514  1
  Se  Se121  1  0.41416929  0.07763269  0.06444602  1
  Se  Se122  1  0.41829118  0.08696068  0.55094742  1
  Se  Se123  1  0.41716559  0.41211320  0.04635481  1
  Se  Se124  1  0.41086731  0.40454801  0.56006843  1
  Se  Se125  1  0.41124224  0.75016032  0.05379619  1
  Se  Se126  1  0.42242493  0.75599849  0.54781464  1
  Se  Se127  1  0.75316815  0.08699401  0.05071751  1
  Se  Se128  1  0.74775813  0.07765456  0.55333778  1
  Se  Se129  1  0.75292907  0.41816910  0.05474431  1
  Se  Se130  1  0.74478551  0.40163679  0.56506619  1
  Se  Se131  1  0.74962484  0.75388806  0.05244564  1
  Se  Se132  1  0.74493125  0.74248598  0.56387045  1
  Se  Se133  1  0.25214486  0.24446272  0.05293814  1
  Se  Se134  1  0.24360219  0.24239462  0.55082007  1
  Se  Se135  1  0.24636256  0.57684266  0.04980480  1
  Se  Se136  1  0.25282272  0.59160665  0.54874761  1
  Se  Se137  1  0.24807851  0.92844213  0.06579168  1
  Se  Se138  1  0.25159432  0.93127628  0.56574101  1
  Se  Se139  1  0.59555629  0.25728580  0.06266469  1
  Se  Se140  1  0.58006204  0.24200584  0.54927858  1
  Se  Se141  1  0.58212552  0.58255833  0.05368438  1
  Se  Se142  1  0.59169646  0.58331599  0.55712598  1
  Se  Se143  1  0.58417034  0.91750094  0.05264051  1
  Se  Se144  1  0.58504374  0.91171759  0.55251606  1
  Se  Se145  1  0.91995758  0.24743856  0.05066247  1
  Se  Se146  1  0.91100194  0.26177876  0.55264359  1
  Se  Se147  1  0.91378382  0.57712290  0.05008626  1
  Se  Se148  1  0.92367486  0.58921328  0.56438835  1
  Se  Se149  1  0.91476485  0.91945191  0.04849735  1
  Se  Se150  1  0.93100775  0.93157516  0.55207685  1
  Se  Se151  1  0.07278351  0.24933142  0.46116731  1
  Se  Se152  1  0.08485173  0.24574650  0.94066721  1
  Se  Se153  1  0.08531180  0.58236151  0.45169230  1
  Se  Se154  1  0.08612088  0.57941214  0.95081696  1
  Se  Se155  1  0.08060659  0.92645377  0.43860201  1
  Se  Se156  1  0.07781453  0.91870845  0.93976305  1
  Se  Se157  1  0.39879513  0.26689628  0.44197156  1
  Se  Se158  1  0.41271281  0.25249356  0.93703095  1
  Se  Se159  1  0.41363513  0.58771416  0.43437255  1
  Se  Se160  1  0.41863715  0.58371253  0.94448684  1
  Se  Se161  1  0.42038849  0.91678321  0.44801062  1
  Se  Se162  1  0.41914225  0.91421874  0.95659308  1
  Se  Se163  1  0.75124172  0.24285253  0.44574254  1
  Se  Se164  1  0.75183108  0.24816156  0.95004919  1
  Se  Se165  1  0.74986321  0.58856306  0.44275342  1
  Se  Se166  1  0.74717328  0.58118959  0.95235894  1
  Se  Se167  1  0.74782571  0.92089163  0.43570742  1
  Se  Se168  1  0.75432353  0.92191914  0.94030877  1
  Se  Se169  1  0.25133400  0.07333946  0.43906098  1
  Se  Se170  1  0.25039575  0.08701113  0.95194245  1
  Se  Se171  1  0.24011179  0.42535406  0.45130339  1
  Se  Se172  1  0.24755668  0.41407599  0.94053108  1
  Se  Se173  1  0.26131750  0.74976378  0.43385221  1
  Se  Se174  1  0.25445836  0.74163807  0.93902821  1
  Se  Se175  1  0.58236863  0.08386610  0.44411629  1
  Se  Se176  1  0.58933218  0.08096023  0.94219485  1
  Se  Se177  1  0.59834306  0.41395262  0.43997463  1
  Se  Se178  1  0.57947701  0.41841991  0.94803985  1
  Se  Se179  1  0.58419385  0.75465125  0.44527829  1
  Se  Se180  1  0.58509887  0.75736580  0.94535348  1
  Se  Se181  1  0.89936266  0.08103668  0.45104345  1
  Se  Se182  1  0.91802412  0.08527981  0.93850525  1
  Se  Se183  1  0.92256852  0.40592106  0.44109483  1
  Se  Se184  1  0.91764341  0.41454793  0.94948964  1
  Se  Se185  1  0.92325137  0.74625100  0.44599221  1
  Se  Se186  1  0.91385062  0.75255227  0.95272633  1
  Se  Se187  1  0.23869657  0.23745122  0.31320803  1
  Se  Se188  1  0.24962856  0.25401712  0.79952108  1
  Se  Se189  1  0.24975080  0.57943559  0.30316302  1
  Se  Se190  1  0.24083378  0.57466830  0.80574169  1
  Se  Se191  1  0.24017860  0.91437401  0.29480251  1
  Se  Se192  1  0.24510794  0.91726873  0.81702348  1
  Se  Se193  1  0.58689092  0.25071964  0.30484339  1
  Se  Se194  1  0.57558284  0.23935164  0.81173461  1
  Se  Se195  1  0.59025224  0.58974012  0.29725289  1
  Se  Se196  1  0.57865553  0.58257655  0.80332008  1
  Se  Se197  1  0.58436757  0.91913128  0.30308412  1
  Se  Se198  1  0.58620705  0.91857398  0.80428413  1
  Se  Se199  1  0.91175668  0.23704727  0.31318514  1
  Se  Se200  1  0.90888702  0.25078371  0.79842320  1
  Se  Se201  1  0.91064145  0.57169708  0.31166006  1
  Se  Se202  1  0.91047290  0.58080867  0.82236153  1
  Se  Se203  1  0.91263473  0.91222898  0.30055262  1
  Se  Se204  1  0.92408150  0.93002882  0.79668012  1
  Se  Se205  1  0.06677281  0.09059756  0.30645459  1
  Se  Se206  1  0.08299572  0.08870575  0.80108694  1
  Se  Se207  1  0.09879174  0.41003954  0.31573245  1
  Se  Se208  1  0.07472682  0.41283742  0.80174022  1
  Se  Se209  1  0.09386881  0.75539348  0.30900026  1
  Se  Se210  1  0.08540579  0.76565161  0.81449435  1
  Se  Se211  1  0.41799025  0.08076237  0.30401098  1
  Se  Se212  1  0.42421832  0.08595554  0.81586334  1
  Se  Se213  1  0.43036722  0.42595941  0.30821340  1
  Se  Se214  1  0.40978600  0.41295496  0.80022558  1
  Se  Se215  1  0.41981954  0.75729220  0.31018053  1
  Se  Se216  1  0.42162407  0.75337717  0.80596712  1
  Se  Se217  1  0.74537715  0.08111468  0.29846505  1
  Se  Se218  1  0.74238571  0.07767983  0.79729761  1
  Se  Se219  1  0.75264268  0.41407121  0.29988740  1
  Se  Se220  1  0.75024296  0.41856666  0.82026164  1
  Se  Se221  1  0.74704555  0.74705418  0.29836843  1
  Se  Se222  1  0.74985226  0.74600260  0.80539698  1
  Se  Se223  1  0.25259225  0.07734799  0.20416510  1
  Se  Se224  1  0.24385077  0.09214524  0.69001056  1
  Se  Se225  1  0.24985139  0.41314135  0.19235256  1
  Se  Se226  1  0.24916513  0.41247489  0.69381677  1
  Se  Se227  1  0.23595965  0.76034799  0.18975956  1
  Se  Se228  1  0.23986073  0.76248030  0.69514547  1
  Se  Se229  1  0.58576026  0.08370919  0.19799128  1
  Se  Se230  1  0.58245755  0.07431664  0.69509759  1
  Se  Se231  1  0.58856805  0.41475239  0.19455916  1
  Se  Se232  1  0.57485095  0.41983280  0.69047269  1
  Se  Se233  1  0.58372699  0.75253077  0.19472996  1
  Se  Se234  1  0.58931344  0.74730885  0.69474579  1
  Se  Se235  1  0.91614743  0.08347221  0.19233680  1
  Se  Se236  1  0.94329889  0.07371217  0.68348566  1
  Se  Se237  1  0.91706739  0.41751403  0.19045345  1
  Se  Se238  1  0.90872172  0.42225093  0.70590837  1
  Se  Se239  1  0.90822987  0.75295869  0.18602731  1
  Se  Se240  1  0.90603738  0.75951479  0.69743216  1
  Se  Se241  1  0.09194267  0.24067520  0.19226806  1
  Se  Se242  1  0.07760792  0.25613376  0.68920981  1
  Se  Se243  1  0.08512842  0.57368288  0.19410432  1
  Se  Se244  1  0.08319091  0.58117695  0.69260533  1
  Se  Se245  1  0.07534592  0.91164155  0.20437394  1
  Se  Se246  1  0.08526697  0.92693229  0.69515154  1
  Se  Se247  1  0.42472981  0.24359118  0.19008597  1
  Se  Se248  1  0.41532655  0.24492092  0.69834883  1
  Se  Se249  1  0.42273978  0.57477002  0.18363562  1
  Se  Se250  1  0.42351508  0.57513506  0.68186195  1
  Se  Se251  1  0.41489078  0.91913785  0.19799819  1
  Se  Se252  1  0.42248458  0.90907047  0.69091328  1
  Se  Se253  1  0.75110272  0.25408895  0.19606753  1
  Se  Se254  1  0.74816984  0.23441107  0.69380102  1
  Se  Se255  1  0.74951785  0.58519782  0.19365434  1
  Se  Se256  1  0.74356446  0.58519397  0.70784026  1
  Se  Se257  1  0.74802078  0.92181199  0.19068320  1
  Se  Se258  1  0.76175692  0.91855995  0.69574868  1
