# generated using pymatgen
data_In86Cu29Se144
_symmetry_space_group_name_H-M   'P 1'
_cell_length_a   17.57383484
_cell_length_b   17.57608326
_cell_length_c   23.42816837
_cell_angle_alpha   89.98891238
_cell_angle_beta   90.00200693
_cell_angle_gamma   90.01160066
_symmetry_Int_Tables_number   1
_chemical_formula_structural   In86Cu29Se144
_chemical_formula_sum   'In86 Cu29 Se144'
_cell_volume   7236.47324856
_cell_formula_units_Z   1
loop_
 _symmetry_equiv_pos_site_id
 _symmetry_equiv_pos_as_xyz
  1  'x, y, z'
loop_
 _atom_site_type_symbol
 _atom_site_label
 _atom_site_symmetry_multiplicity
 _atom_site_fract_x
 _atom_site_fract_y
 _atom_site_fract_z
 _atom_site_occupancy
  In  In0  1  -0.01181718  0.15110135  0.11563879  1
  In  In1  1  -0.01508620  0.17155013  0.63056162  1
  In  In2  1  0.00288022  0.51025145  0.11317216  1
  In  In3  1  -0.00102356  0.49507294  0.61131837  1
  In  In4  1  0.00862942  0.83510164  0.11698207  1
  In  In5  1  0.00181200  0.83157476  0.62740521  1
  In  In6  1  0.32744475  0.16315613  0.10768283  1
  In  In7  1  0.32419418  0.15891741  0.63119621  1
  In  In8  1  0.33341394  0.50146447  0.12178771  1
  In  In9  1  0.33381257  0.50339461  0.62872624  1
  In  In10  1  0.33666473  0.82698822  0.11583355  1
  In  In11  1  0.32275822  0.83860114  0.63992538  1
  In  In12  1  0.67152114  0.15954550  0.10289235  1
  In  In13  1  0.67802798  0.15953896  0.63702661  1
  In  In14  1  0.68688721  0.52391871  0.09823984  1
  In  In15  1  0.65936986  0.50016615  0.62804414  1
  In  In16  1  0.66510227  0.83358396  0.10809376  1
  In  In17  1  0.67957174  0.83601655  0.62897033  1
  In  In18  1  0.14627653  0.00363113  0.37408837  1
  In  In19  1  0.16650935  -0.00281226  0.87311511  1
  In  In20  1  0.17642376  0.34270694  0.37432717  1
  In  In21  1  0.15779424  0.34363212  0.88013800  1
  In  In22  1  0.16942853  0.66807525  0.38089134  1
  In  In23  1  0.17425414  0.65676897  0.88219160  1
  In  In24  1  0.49516657  0.00188996  0.37424519  1
  In  In25  1  0.50173969  0.00204707  0.87433281  1
  In  In26  1  0.51741600  0.34474000  0.37355424  1
  In  In27  1  0.50780524  0.32071453  0.87797495  1
  In  In28  1  0.50016559  0.65753116  0.37282453  1
  In  In29  1  0.49855609  0.68226893  0.88813328  1
  In  In30  1  0.85012703  -0.01368874  0.38776821  1
  In  In31  1  0.83147460  0.00109184  0.88024862  1
  In  In32  1  0.83591152  0.33418519  0.38734839  1
  In  In33  1  0.82146018  0.34140938  0.87622793  1
  In  In34  1  0.82760989  0.67511065  0.37609742  1
  In  In35  1  0.82938377  0.67665743  0.89898183  1
  In  In36  1  -0.00396245  0.14872687  0.37168023  1
  In  In37  1  0.01036737  0.15822628  0.88066286  1
  In  In38  1  0.00208559  0.49689606  0.38349216  1
  In  In39  1  -0.00043592  0.50762880  0.88627520  1
  In  In40  1  -0.00900431  0.84390885  0.37864056  1
  In  In41  1  -0.01602027  0.83867079  0.89107750  1
  In  In42  1  0.32366055  0.16523959  0.37597791  1
  In  In43  1  0.34429257  0.15553354  0.87842463  1
  In  In44  1  0.33411936  0.51230299  0.38437480  1
  In  In45  1  0.32263314  0.51658850  0.87390962  1
  In  In46  1  0.33221127  0.81918912  0.37746195  1
  In  In47  1  0.33293179  0.83038249  0.87219679  1
  In  In48  1  0.67199181  0.18313595  0.37339386  1
  In  In49  1  0.66673484  0.16426428  0.87699684  1
  In  In50  1  0.66344202  0.50443209  0.37828212  1
  In  In51  1  0.67549928  0.49637379  0.87997369  1
  In  In52  1  0.69538992  0.83474551  0.36848823  1
  In  In53  1  0.64638003  0.86261620  0.91382621  1
  In  In54  1  0.15259174  -0.01277779  0.11402465  1
  In  In55  1  0.16845153  -0.00989384  0.63866680  1
  In  In56  1  0.17152934  0.33821822  0.11680934  1
  In  In57  1  0.15719814  0.34251227  0.62536423  1
  In  In58  1  0.15811380  0.66740702  0.11185363  1
  In  In59  1  0.16616310  0.66999084  0.62698678  1
  In  In60  1  0.51005438  -0.00424510  0.09670266  1
  In  In61  1  0.49878691  0.00041105  0.63921818  1
  In  In62  1  0.51034959  0.34318720  0.11296985  1
  In  In63  1  0.50110823  0.35132766  0.62978051  1
  In  In64  1  0.52100936  0.67977689  0.10344044  1
  In  In65  1  0.50057883  0.65132643  0.63134482  1
  In  In66  1  0.83263597  0.00697624  0.11154980  1
  In  In67  1  0.83393276  -0.00100998  0.63198030  1
  In  In68  1  0.83398532  0.32948959  0.12146493  1
  In  In69  1  0.83439198  0.32559129  0.62133445  1
  In  In70  1  0.83090565  0.66548010  0.11382145  1
  In  In71  1  0.83637950  0.67303696  0.61954331  1
  In  In72  1  0.33159502  0.66618049  0.24661372  1
  In  In73  1  0.00040724  0.66644249  0.75595143  1
  In  In74  1  0.33518673  0.33580621  0.24812555  1
  In  In75  1  -0.00287909  0.33446090  0.75351828  1
  In  In76  1  -0.00365224  0.66847896  0.24332273  1
  In  In77  1  0.50440120  0.17168440  0.49849230  1
  In  In78  1  0.33759589  0.32372694  0.74932394  1
  In  In79  1  0.66694757  0.67648967  0.76357592  1
  In  In80  1  0.67273524  -0.00452580  0.24065525  1
  In  In81  1  -0.00338656  0.33528777  0.25587376  1
  In  In82  1  0.15479108  0.17372211  0.50399165  1
  In  In83  1  0.32435455  -0.01206948  0.23280237  1
  In  In84  1  0.66799660  0.33685165  0.24539407  1
  In  In85  1  0.50465978  0.82628981  0.50506273  1
  Cu  Cu86  1  0.33547541  0.66896784  -0.00136707  1
  Cu  Cu87  1  -0.00459595  0.33010472  -0.00107701  1
  Cu  Cu88  1  0.66901108  0.66799919  0.50047545  1
  Cu  Cu89  1  0.66482305  0.32812752  -0.00420337  1
  Cu  Cu90  1  0.33929763  0.34264678  0.50341789  1
  Cu  Cu91  1  0.66865272  0.33746484  0.50436503  1
  Cu  Cu92  1  0.83138284  0.50539550  0.24454076  1
  Cu  Cu93  1  0.33030560  0.66728551  0.50553173  1
  Cu  Cu94  1  0.50284140  0.83458469  0.76139736  1
  Cu  Cu95  1  0.83224901  0.50693077  0.75270880  1
  Cu  Cu96  1  0.51125804  0.16177209  0.75677564  1
  Cu  Cu97  1  0.49942137  0.49857601  0.75615786  1
  Cu  Cu98  1  0.83016592  0.16212090  0.75397287  1
  Cu  Cu99  1  0.50576521  0.51159293  0.24669716  1
  Cu  Cu100  1  -0.00148953  -0.00333812  0.50498853  1
  Cu  Cu101  1  0.15868192  0.83878732  0.24765691  1
  Cu  Cu102  1  0.14721750  0.16496025  0.24048677  1
  Cu  Cu103  1  0.67778821  0.00542909  0.50678626  1
  Cu  Cu104  1  0.48961269  0.15731058  0.23656197  1
  Cu  Cu105  1  0.00096661  0.66835583  0.49904445  1
  Cu  Cu106  1  0.32912628  0.33521474  -0.00895265  1
  Cu  Cu107  1  0.17095523  0.15993735  0.75712539  1
  Cu  Cu108  1  0.16234421  0.82941834  0.75567636  1
  Cu  Cu109  1  0.82930712  0.84218240  0.76246853  1
  Cu  Cu110  1  0.32538972  -0.00742882  0.51221786  1
  Cu  Cu111  1  0.33071118  -0.00399587  -0.00909493  1
  Cu  Cu112  1  0.00188934  0.00428929  -0.00244515  1
  Cu  Cu113  1  0.83059834  0.15402533  0.24602159  1
  Cu  Cu114  1  0.51593805  0.82899847  0.23786534  1
  Se  Se115  1  0.08870488  0.08849216  0.04874550  1
  Se  Se116  1  0.07830549  0.07603590  0.56709627  1
  Se  Se117  1  0.08069591  0.41523179  0.05115023  1
  Se  Se118  1  0.08142487  0.40743164  0.54718240  1
  Se  Se119  1  0.08521878  0.75477818  0.04371417  1
  Se  Se120  1  0.08181457  0.74965179  0.55733007  1
  Se  Se121  1  0.41528797  0.08258433  0.04203563  1
  Se  Se122  1  0.41356384  0.07785484  0.55955664  1
  Se  Se123  1  0.40826133  0.41325697  0.05262078  1
  Se  Se124  1  0.42049744  0.42648168  0.55681920  1
  Se  Se125  1  0.42381974  0.75715983  0.04353202  1
  Se  Se126  1  0.41029097  0.74618011  0.56814391  1
  Se  Se127  1  0.74395012  0.07033737  0.03662043  1
  Se  Se128  1  0.75810397  0.08867110  0.56043824  1
  Se  Se129  1  0.75090052  0.40746959  0.05109651  1
  Se  Se130  1  0.74842126  0.41927664  0.56257140  1
  Se  Se131  1  0.73173236  0.73083221  0.04408770  1
  Se  Se132  1  0.74893014  0.75470537  0.55314240  1
  Se  Se133  1  0.24417440  0.25193421  0.04523783  1
  Se  Se134  1  0.25973983  0.25809132  0.56014039  1
  Se  Se135  1  0.25262377  0.58549456  0.05325997  1
  Se  Se136  1  0.24804066  0.58281298  0.55958283  1
  Se  Se137  1  0.25302262  0.91527587  0.05289847  1
  Se  Se138  1  0.24231347  0.90961970  0.56246041  1
  Se  Se139  1  0.57752429  0.24572736  0.04690868  1
  Se  Se140  1  0.58849359  0.25568140  0.56595245  1
  Se  Se141  1  0.55396266  0.55112645  0.05741583  1
  Se  Se142  1  0.58563571  0.58671621  0.55528081  1
  Se  Se143  1  0.59392895  0.91452383  0.03009639  1
  Se  Se144  1  0.58766080  0.92793614  0.56160707  1
  Se  Se145  1  0.91210269  0.24568526  0.05193466  1
  Se  Se146  1  0.93163875  0.26041916  0.55427546  1
  Se  Se147  1  0.91395286  0.58204429  0.04620609  1
  Se  Se148  1  0.91423522  0.58669960  0.55165645  1
  Se  Se149  1  0.92123730  0.91848421  0.05114107  1
  Se  Se150  1  0.91504697  0.91548840  0.56205806  1
  Se  Se151  1  0.07722270  0.25382126  0.42946917  1
  Se  Se152  1  0.08451578  0.25171406  0.94696195  1
  Se  Se153  1  0.08632583  0.58465940  0.44740572  1
  Se  Se154  1  0.08810750  0.58238051  0.95247356  1
  Se  Se155  1  0.08277545  0.91662626  0.44876969  1
  Se  Se156  1  0.08562139  0.91901828  0.94626283  1
  Se  Se157  1  0.41101478  0.26154431  0.43708843  1
  Se  Se158  1  0.41593722  0.24833260  0.94605405  1
  Se  Se159  1  0.42065408  0.59062574  0.45197855  1
  Se  Se160  1  0.41628371  0.58311241  0.94442564  1
  Se  Se161  1  0.40859149  0.92031227  0.44671925  1
  Se  Se162  1  0.41689935  0.91426803  0.94009446  1
  Se  Se163  1  0.74951971  0.24937091  0.45261124  1
  Se  Se164  1  0.75300582  0.24733167  0.94491179  1
  Se  Se165  1  0.75124149  0.58490106  0.44415855  1
  Se  Se166  1  0.75037308  0.57558101  0.95351682  1
  Se  Se167  1  0.75140666  0.91530236  0.45128186  1
  Se  Se168  1  0.78128076  0.89463284  0.94845079  1
  Se  Se169  1  0.24946169  0.07621647  0.44812045  1
  Se  Se170  1  0.24687434  0.08381476  0.94240994  1
  Se  Se171  1  0.25258323  0.42194162  0.44778262  1
  Se  Se172  1  0.24752174  0.42519988  0.94325895  1
  Se  Se173  1  0.24838304  0.75228337  0.45202500  1
  Se  Se174  1  0.25141238  0.75206772  0.94539779  1
  Se  Se175  1  0.59503076  0.07655577  0.44030735  1
  Se  Se176  1  0.57725015  0.08842033  0.94398093  1
  Se  Se177  1  0.58490872  0.42186450  0.45162976  1
  Se  Se178  1  0.58316772  0.41418232  0.94349694  1
  Se  Se179  1  0.59221244  0.74857423  0.43566361  1
  Se  Se180  1  0.60999860  0.72796832  0.95299517  1
  Se  Se181  1  0.91807270  0.08556431  0.45298920  1
  Se  Se182  1  0.91535502  0.08811614  0.94744848  1
  Se  Se183  1  0.91231841  0.42398885  0.45011680  1
  Se  Se184  1  0.91431850  0.41434831  0.94404076  1
  Se  Se185  1  0.91720788  0.75018516  0.44448307  1
  Se  Se186  1  0.94270078  0.72833065  0.95897755  1
  Se  Se187  1  0.23496068  0.23902729  0.30029174  1
  Se  Se188  1  0.24453475  0.24616006  0.81583288  1
  Se  Se189  1  0.24348387  0.57690750  0.30720655  1
  Se  Se190  1  0.24198045  0.58767466  0.79883809  1
  Se  Se191  1  0.24483265  0.91032355  0.31092243  1
  Se  Se192  1  0.25013133  0.91479086  0.80395779  1
  Se  Se193  1  0.56979051  0.24003637  0.29844172  1
  Se  Se194  1  0.59217014  0.25211662  0.80322130  1
  Se  Se195  1  0.59136674  0.58831492  0.30303059  1
  Se  Se196  1  0.57657376  0.58044070  0.81657828  1
  Se  Se197  1  0.57962550  0.91232573  0.30814567  1
  Se  Se198  1  0.59135435  0.90943333  0.81646751  1
  Se  Se199  1  0.90158119  0.24051189  0.30781330  1
  Se  Se200  1  0.91149514  0.24300899  0.81470371  1
  Se  Se201  1  0.91425586  0.57675718  0.30865045  1
  Se  Se202  1  0.90296648  0.58583521  0.81745625  1
  Se  Se203  1  0.91008180  0.91548314  0.30397338  1
  Se  Se204  1  0.92112895  0.92086745  0.81134541  1
  Se  Se205  1  0.07270980  0.07579332  0.29456679  1
  Se  Se206  1  0.08037283  0.07872775  0.80341826  1
  Se  Se207  1  0.09217783  0.42870168  0.30520959  1
  Se  Se208  1  0.08381579  0.43210325  0.80720976  1
  Se  Se209  1  0.08575663  0.75422265  0.30945497  1
  Se  Se210  1  0.08223208  0.75592233  0.82026529  1
  Se  Se211  1  0.40970432  0.08339612  0.30046752  1
  Se  Se212  1  0.41817364  0.08058061  0.80112277  1
  Se  Se213  1  0.42675072  0.43004531  0.30734736  1
  Se  Se214  1  0.41763026  0.41637399  0.81413770  1
  Se  Se215  1  0.42893159  0.75958089  0.30131637  1
  Se  Se216  1  0.41956131  0.74414909  0.80630908  1
  Se  Se217  1  0.74985983  0.08378747  0.31273682  1
  Se  Se218  1  0.74809471  0.07881851  0.80776236  1
  Se  Se219  1  0.76015157  0.42034508  0.30807785  1
  Se  Se220  1  0.74707193  0.42019810  0.80027372  1
  Se  Se221  1  0.75318213  0.74348827  0.29605795  1
  Se  Se222  1  0.75543859  0.76167162  0.82463196  1
  Se  Se223  1  0.23708258  0.08954454  0.18302996  1
  Se  Se224  1  0.25426815  0.07579243  0.70422831  1
  Se  Se225  1  0.24101074  0.42633903  0.19415716  1
  Se  Se226  1  0.24397885  0.41768409  0.69724216  1
  Se  Se227  1  0.23935185  0.75788970  0.18866670  1
  Se  Se228  1  0.24529278  0.74424682  0.70315458  1
  Se  Se229  1  0.57686339  0.08272511  0.17958478  1
  Se  Se230  1  0.59251794  0.07576528  0.70286426  1
  Se  Se231  1  0.58455580  0.43007500  0.18620958  1
  Se  Se232  1  0.58697748  0.41864351  0.70425859  1
  Se  Se233  1  0.59593533  0.74616350  0.18493876  1
  Se  Se234  1  0.57733150  0.75750956  0.69250110  1
  Se  Se235  1  0.91358267  0.07408299  0.19176486  1
  Se  Se236  1  0.91727796  0.08210685  0.70195030  1
  Se  Se237  1  0.91402312  0.42498353  0.18800538  1
  Se  Se238  1  0.91073312  0.42698896  0.69213809  1
  Se  Se239  1  0.91010024  0.75737605  0.18304539  1
  Se  Se240  1  0.90311096  0.75702506  0.70033629  1
  Se  Se241  1  0.07513538  0.25171997  0.18217618  1
  Se  Se242  1  0.09315092  0.24185455  0.69621222  1
  Se  Se243  1  0.09254352  0.57822187  0.19007516  1
  Se  Se244  1  0.07816788  0.57520301  0.68898697  1
  Se  Se245  1  0.07615971  0.92033287  0.19426056  1
  Se  Se246  1  0.07680606  0.91084602  0.70259500  1
  Se  Se247  1  0.41678552  0.24653737  0.17995699  1
  Se  Se248  1  0.43262338  0.23573211  0.68828220  1
  Se  Se249  1  0.42709378  0.58894870  0.18409225  1
  Se  Se250  1  0.41454971  0.58032095  0.70330132  1
  Se  Se251  1  0.43425931  0.91102953  0.18076662  1
  Se  Se252  1  0.41750669  0.91373075  0.70420524  1
  Se  Se253  1  0.74956982  0.23411608  0.18761613  1
  Se  Se254  1  0.75662070  0.25444247  0.69955016  1
  Se  Se255  1  0.74970852  0.58438267  0.18747983  1
  Se  Se256  1  0.75254932  0.59091671  0.69411446  1
  Se  Se257  1  0.75876218  0.90691692  0.17953781  1
  Se  Se258  1  0.74727787  0.92042192  0.70323481  1
