# generated using pymatgen
data_In86Cu29Se144
_symmetry_space_group_name_H-M   'P 1'
_cell_length_a   17.60921727
_cell_length_b   17.61045695
_cell_length_c   23.47086933
_cell_angle_alpha   90.03069683
_cell_angle_beta   89.96848513
_cell_angle_gamma   89.98272526
_symmetry_Int_Tables_number   1
_chemical_formula_structural   In86Cu29Se144
_chemical_formula_sum   'In86 Cu29 Se144'
_cell_volume   7278.46343945
_cell_formula_units_Z   1
loop_
 _symmetry_equiv_pos_site_id
 _symmetry_equiv_pos_as_xyz
  1  'x, y, z'
loop_
 _atom_site_type_symbol
 _atom_site_label
 _atom_site_symmetry_multiplicity
 _atom_site_fract_x
 _atom_site_fract_y
 _atom_site_fract_z
 _atom_site_occupancy
  In  In0  1  0.00441816  0.16281561  0.11129032  1
  In  In1  1  -0.00899660  0.17549358  0.62809138  1
  In  In2  1  0.02037664  0.50664597  0.11474599  1
  In  In3  1  0.00937962  0.49487321  0.62055550  1
  In  In4  1  0.00110484  0.83557633  0.13794600  1
  In  In5  1  0.00058300  0.83907202  0.61570205  1
  In  In6  1  0.33123021  0.16717941  0.12070913  1
  In  In7  1  0.32346590  0.15570921  0.63074141  1
  In  In8  1  0.33624452  0.50618003  0.12121581  1
  In  In9  1  0.33744275  0.51095229  0.62351750  1
  In  In10  1  0.33940732  0.83048529  0.13015662  1
  In  In11  1  0.33565139  0.83308400  0.62305730  1
  In  In12  1  0.66221721  0.17217752  0.11251506  1
  In  In13  1  0.66842966  0.16014682  0.64180445  1
  In  In14  1  0.65814442  0.51320669  0.12535670  1
  In  In15  1  0.66346828  0.50462850  0.63850251  1
  In  In16  1  0.65286939  0.83504762  0.12575212  1
  In  In17  1  0.66010945  0.83119271  0.62085248  1
  In  In18  1  0.16249970  -0.00128531  0.36589940  1
  In  In19  1  0.18680293  0.00131099  0.88831668  1
  In  In20  1  0.18109372  0.32949674  0.36771883  1
  In  In21  1  0.19573867  0.30478782  0.91035658  1
  In  In22  1  0.16763503  0.66892021  0.37282292  1
  In  In23  1  0.17388855  0.64580436  0.88504771  1
  In  In24  1  0.48933121  -0.00146786  0.37388201  1
  In  In25  1  0.50207123  -0.00734701  0.87308326  1
  In  In26  1  0.49389014  0.33370159  0.36941814  1
  In  In27  1  0.50198822  0.31811273  0.89376020  1
  In  In28  1  0.50981977  0.67255235  0.36445637  1
  In  In29  1  0.49710936  0.66753675  0.87536446  1
  In  In30  1  0.84011050  -0.00943485  0.38517970  1
  In  In31  1  0.82769299  0.01613219  0.87485778  1
  In  In32  1  0.83157184  0.32154047  0.37692035  1
  In  In33  1  0.82263577  0.32468469  0.86910314  1
  In  In34  1  0.84551383  0.67842079  0.36742317  1
  In  In35  1  0.83108503  0.67410864  0.86959405  1
  In  In36  1  0.00201011  0.15618852  0.36938110  1
  In  In37  1  0.00465266  0.16121606  0.90318283  1
  In  In38  1  0.00573681  0.51621675  0.36844890  1
  In  In39  1  0.02453963  0.48798949  0.88696417  1
  In  In40  1  0.00492077  0.84013182  0.37404367  1
  In  In41  1  0.00286804  0.82951640  0.87620302  1
  In  In42  1  0.33265469  0.15858155  0.35405782  1
  In  In43  1  0.37534459  0.12812891  0.94028794  1
  In  In44  1  0.32641577  0.49582919  0.36590660  1
  In  In45  1  0.32733724  0.49872707  0.88571525  1
  In  In46  1  0.33445246  0.83199335  0.37345683  1
  In  In47  1  0.34508430  0.84230576  0.87024446  1
  In  In48  1  0.67156317  0.17070572  0.37893078  1
  In  In49  1  0.66419180  0.16514721  0.87012107  1
  In  In50  1  0.65543974  0.50173985  0.37388462  1
  In  In51  1  0.65892734  0.49220391  0.86942092  1
  In  In52  1  0.67667500  0.83202752  0.38534421  1
  In  In53  1  0.65361054  0.82084767  0.86313760  1
  In  In54  1  0.16592362  0.00769378  0.12610662  1
  In  In55  1  0.18101735  -0.00485291  0.62971045  1
  In  In56  1  0.18852417  0.35028543  0.09603487  1
  In  In57  1  0.15919837  0.33246668  0.62355482  1
  In  In58  1  0.17178350  0.66945739  0.13320211  1
  In  In59  1  0.17429693  0.67561253  0.61942241  1
  In  In60  1  0.49835312  -0.00222776  0.11796171  1
  In  In61  1  0.51121294  -0.01348536  0.63784871  1
  In  In62  1  0.46750729  0.31710985  0.09358819  1
  In  In63  1  0.49796103  0.34136112  0.63333797  1
  In  In64  1  0.49761142  0.66549013  0.12474764  1
  In  In65  1  0.48873770  0.67175443  0.62951300  1
  In  In66  1  0.83988106  0.01424091  0.12306749  1
  In  In67  1  0.80460167  -0.01936625  0.60329541  1
  In  In68  1  0.84376891  0.32212178  0.11777881  1
  In  In69  1  0.83156086  0.32397742  0.62625834  1
  In  In70  1  0.82814498  0.67126938  0.13734119  1
  In  In71  1  0.82137043  0.67129526  0.62616905  1
  In  In72  1  -0.00164633  0.33240364  0.75698654  1
  In  In73  1  0.00295555  0.66173619  0.75513612  1
  In  In74  1  -0.00248736  0.00166417  0.75489571  1
  In  In75  1  0.66568048  0.00386240  0.24515118  1
  In  In76  1  0.82859780  0.50016796  0.00558047  1
  In  In77  1  0.83738893  0.50457822  0.50072221  1
  In  In78  1  0.00783427  0.33544186  0.22938235  1
  In  In79  1  0.16144568  0.15821664  0.49679410  1
  In  In80  1  0.83671435  0.83818228  -0.00218827  1
  In  In81  1  0.49636528  0.50447482  0.49845379  1
  In  In82  1  0.17018787  0.83447701  0.01049415  1
  In  In83  1  0.33391735  0.33221477  0.76577132  1
  In  In84  1  0.65849430  0.33736529  0.24795300  1
  In  In85  1  0.50086970  0.16199685  0.50136450  1
  Cu  Cu86  1  0.49626022  0.83258190  0.74785250  1
  Cu  Cu87  1  0.83178129  0.50165076  0.24805318  1
  Cu  Cu88  1  0.48685913  0.16315517  0.76669028  1
  Cu  Cu89  1  0.33456425  0.67088332  0.00412212  1
  Cu  Cu90  1  0.32724716  0.33075288  0.49050570  1
  Cu  Cu91  1  0.84113144  0.16244865  0.24455426  1
  Cu  Cu92  1  0.83186000  0.16441045  0.74978566  1
  Cu  Cu93  1  0.48927354  0.49679435  0.24322174  1
  Cu  Cu94  1  0.66789102  0.32992779  -0.00708901  1
  Cu  Cu95  1  0.17148513  0.83593615  0.25225906  1
  Cu  Cu96  1  0.65963910  0.67230317  -0.00392901  1
  Cu  Cu97  1  0.17755487  0.83143464  0.75153626  1
  Cu  Cu98  1  0.66746602  0.66908372  0.49776067  1
  Cu  Cu99  1  0.67075493  0.32677304  0.50528576  1
  Cu  Cu100  1  0.50163750  0.83161409  0.24750854  1
  Cu  Cu101  1  0.00108524  0.00415146  0.49648334  1
  Cu  Cu102  1  0.82748896  0.83527159  0.74419177  1
  Cu  Cu103  1  0.83347205  0.83747280  0.25808384  1
  Cu  Cu104  1  0.00370966  0.67398083  0.49361680  1
  Cu  Cu105  1  0.17337923  0.17051108  0.23871320  1
  Cu  Cu106  1  0.83379083  0.50247544  0.75469183  1
  Cu  Cu107  1  0.16815829  0.15791952  0.76037356  1
  Cu  Cu108  1  0.16949008  0.49885462  0.24152230  1
  Cu  Cu109  1  0.33329512  -0.00802831  0.49876693  1
  Cu  Cu110  1  0.00461584  0.33987930  0.49812036  1
  Cu  Cu111  1  0.17657325  0.49811353  0.75366350  1
  Cu  Cu112  1  0.32825460  0.66879430  0.49708687  1
  Cu  Cu113  1  0.50408615  0.50286472  0.75445774  1
  Cu  Cu114  1  0.66547113  -0.00370948  -0.00226756  1
  Se  Se115  1  0.09039117  0.07818486  0.04716160  1
  Se  Se116  1  0.07610949  0.07593015  0.56648474  1
  Se  Se117  1  0.05587224  0.38874566  0.05630732  1
  Se  Se118  1  0.09224831  0.41884324  0.54933547  1
  Se  Se119  1  0.07390020  0.74584576  0.06448746  1
  Se  Se120  1  0.08551134  0.75323210  0.55279103  1
  Se  Se121  1  0.42347639  0.09146374  0.05024864  1
  Se  Se122  1  0.40839407  0.07452625  0.56104317  1
  Se  Se123  1  0.42627116  0.44130222  0.04728193  1
  Se  Se124  1  0.40755178  0.40541311  0.55498740  1
  Se  Se125  1  0.41930948  0.75357031  0.05600580  1
  Se  Se126  1  0.41500867  0.74724942  0.55265869  1
  Se  Se127  1  0.74555519  0.07882030  0.05327294  1
  Se  Se128  1  0.75338143  0.10496748  0.56255724  1
  Se  Se129  1  0.73823593  0.40682456  0.06306947  1
  Se  Se130  1  0.74247504  0.41835895  0.56142944  1
  Se  Se131  1  0.74398979  0.74731450  0.05747628  1
  Se  Se132  1  0.75081739  0.75166212  0.55203059  1
  Se  Se133  1  0.23463376  0.22649118  0.04736681  1
  Se  Se134  1  0.25492083  0.25066508  0.55608949  1
  Se  Se135  1  0.24682895  0.59164122  0.05697451  1
  Se  Se136  1  0.25074920  0.58262072  0.55321016  1
  Se  Se137  1  0.26430348  0.92703169  0.06121603  1
  Se  Se138  1  0.24742957  0.91306710  0.55376220  1
  Se  Se139  1  0.57753141  0.24660681  0.04055662  1
  Se  Se140  1  0.58375194  0.25575354  0.56505905  1
  Se  Se141  1  0.57948558  0.58691494  0.05037032  1
  Se  Se142  1  0.59018224  0.58808555  0.55936232  1
  Se  Se143  1  0.58135107  0.91352017  0.04990150  1
  Se  Se144  1  0.57989661  0.92100231  0.55641940  1
  Se  Se145  1  0.90070382  0.22730946  0.04834114  1
  Se  Se146  1  0.92090996  0.25799424  0.55314284  1
  Se  Se147  1  0.91511698  0.59442928  0.06305718  1
  Se  Se148  1  0.92736908  0.59643887  0.56036015  1
  Se  Se149  1  0.92745295  0.92157299  0.06037969  1
  Se  Se150  1  0.91667358  0.91875311  0.54791245  1
  Se  Se151  1  0.07863074  0.25663472  0.43644940  1
  Se  Se152  1  0.05687584  0.28411874  0.94572901  1
  Se  Se153  1  0.08512011  0.58521139  0.44431380  1
  Se  Se154  1  0.07586725  0.59040634  0.95389680  1
  Se  Se155  1  0.08797254  0.92421653  0.44355424  1
  Se  Se156  1  0.08088735  0.91920694  0.94291243  1
  Se  Se157  1  0.40731333  0.24615780  0.43679185  1
  Se  Se158  1  0.37943953  0.27806120  0.94475788  1
  Se  Se159  1  0.40954382  0.59004333  0.43499694  1
  Se  Se160  1  0.41473860  0.58789610  0.94656833  1
  Se  Se161  1  0.41865496  0.91134718  0.44540309  1
  Se  Se162  1  0.41052943  0.92531605  0.94544040  1
  Se  Se163  1  0.75423999  0.24644961  0.45192184  1
  Se  Se164  1  0.74958344  0.24300154  0.94245664  1
  Se  Se165  1  0.74664157  0.58898855  0.43749607  1
  Se  Se166  1  0.74368110  0.59091785  0.93949425  1
  Se  Se167  1  0.74493213  0.92578883  0.45221913  1
  Se  Se168  1  0.74068986  0.91555878  0.93383682  1
  Se  Se169  1  0.26096866  0.07903814  0.43790148  1
  Se  Se170  1  0.22828513  0.10432842  0.95961768  1
  Se  Se171  1  0.24713074  0.41839999  0.44112872  1
  Se  Se172  1  0.23090446  0.43474521  0.95384618  1
  Se  Se173  1  0.24720962  0.75346312  0.44293556  1
  Se  Se174  1  0.25576919  0.75060123  0.94115500  1
  Se  Se175  1  0.59010461  0.07518763  0.44024789  1
  Se  Se176  1  0.58639581  0.07956804  0.94002769  1
  Se  Se177  1  0.58876531  0.40368217  0.44514834  1
  Se  Se178  1  0.58439690  0.42002587  0.94736474  1
  Se  Se179  1  0.58071403  0.74758835  0.44337561  1
  Se  Se180  1  0.57670491  0.75697604  0.94402544  1
  Se  Se181  1  0.91911065  0.08978350  0.44491162  1
  Se  Se182  1  0.91659044  0.06505853  0.95209156  1
  Se  Se183  1  0.92360691  0.41512432  0.43636042  1
  Se  Se184  1  0.90804297  0.41534927  0.93556512  1
  Se  Se185  1  0.91840782  0.75700303  0.44286493  1
  Se  Se186  1  0.92475763  0.73716762  0.94385238  1
  Se  Se187  1  0.25552504  0.25438901  0.29236290  1
  Se  Se188  1  0.24822383  0.23676454  0.81981880  1
  Se  Se189  1  0.24545461  0.58313620  0.30121024  1
  Se  Se190  1  0.25712985  0.58119817  0.80766715  1
  Se  Se191  1  0.25617178  0.91968917  0.30412797  1
  Se  Se192  1  0.24906956  0.92083791  0.80827965  1
  Se  Se193  1  0.57659359  0.23833533  0.30706193  1
  Se  Se194  1  0.57380349  0.25311023  0.81003481  1
  Se  Se195  1  0.57899562  0.57445516  0.29817809  1
  Se  Se196  1  0.58636797  0.58942854  0.80600392  1
  Se  Se197  1  0.58395360  0.91048678  0.30892879  1
  Se  Se198  1  0.58262366  0.91736391  0.79814040  1
  Se  Se199  1  0.91888394  0.25199992  0.29947577  1
  Se  Se200  1  0.91941325  0.23021892  0.81331931  1
  Se  Se201  1  0.91648375  0.58525026  0.29920966  1
  Se  Se202  1  0.91993238  0.56878389  0.81751236  1
  Se  Se203  1  0.91853194  0.92416323  0.30607351  1
  Se  Se204  1  0.90578270  0.90669056  0.81084903  1
  Se  Se205  1  0.09107359  0.09208621  0.29711044  1
  Se  Se206  1  0.08490853  0.08524268  0.82069892  1
  Se  Se207  1  0.08810038  0.41832648  0.30286943  1
  Se  Se208  1  0.10078245  0.41186439  0.81022428  1
  Se  Se209  1  0.08424349  0.75380111  0.30530843  1
  Se  Se210  1  0.09817928  0.75021346  0.81152370  1
  Se  Se211  1  0.42949140  0.08217803  0.29704054  1
  Se  Se212  1  0.40699566  0.09589239  0.83207421  1
  Se  Se213  1  0.41226151  0.41196041  0.30022012  1
  Se  Se214  1  0.42785987  0.42400107  0.81780662  1
  Se  Se215  1  0.41651863  0.75019937  0.30209352  1
  Se  Se216  1  0.41526653  0.74816369  0.80310945  1
  Se  Se217  1  0.75949436  0.08845065  0.30783987  1
  Se  Se218  1  0.74424517  0.08068614  0.79861946  1
  Se  Se219  1  0.75759900  0.42111837  0.31053475  1
  Se  Se220  1  0.74940865  0.41516904  0.80218216  1
  Se  Se221  1  0.74649427  0.75355705  0.30673665  1
  Se  Se222  1  0.74856194  0.74698501  0.79722838  1
  Se  Se223  1  0.25862466  0.07983320  0.19428841  1
  Se  Se224  1  0.25088965  0.07662657  0.70571508  1
  Se  Se225  1  0.24873393  0.41687199  0.18411412  1
  Se  Se226  1  0.25043090  0.41473929  0.69058893  1
  Se  Se227  1  0.25549035  0.75159228  0.20026228  1
  Se  Se228  1  0.25515297  0.74738069  0.69413669  1
  Se  Se229  1  0.57783941  0.09462058  0.18605411  1
  Se  Se230  1  0.56986429  0.08927405  0.70443429  1
  Se  Se231  1  0.57012823  0.41790248  0.18298655  1
  Se  Se232  1  0.58383946  0.41460208  0.70318333  1
  Se  Se233  1  0.58395490  0.74558952  0.19596391  1
  Se  Se234  1  0.58072631  0.74978372  0.69312556  1
  Se  Se235  1  0.93014265  0.08659564  0.19175375  1
  Se  Se236  1  0.90815891  0.08234429  0.68914402  1
  Se  Se237  1  0.90830157  0.42926879  0.18219959  1
  Se  Se238  1  0.91319251  0.42542218  0.69174943  1
  Se  Se239  1  0.91458793  0.75258449  0.20333517  1
  Se  Se240  1  0.91796750  0.75628243  0.69211323  1
  Se  Se241  1  0.10146079  0.24882846  0.17367932  1
  Se  Se242  1  0.09382155  0.23839491  0.69849074  1
  Se  Se243  1  0.08086010  0.58452917  0.19681873  1
  Se  Se244  1  0.09424875  0.57454080  0.69291334  1
  Se  Se245  1  0.09019906  0.92090874  0.19826905  1
  Se  Se246  1  0.08781794  0.90776192  0.69635974  1
  Se  Se247  1  0.41569948  0.25596988  0.18379434  1
  Se  Se248  1  0.41687732  0.24069447  0.69568105  1
  Se  Se249  1  0.41006009  0.58970002  0.19564147  1
  Se  Se250  1  0.41708928  0.57992315  0.69892768  1
  Se  Se251  1  0.42369675  0.91906719  0.19455798  1
  Se  Se252  1  0.40844299  0.91761730  0.69793860  1
  Se  Se253  1  0.75443236  0.24493555  0.19145464  1
  Se  Se254  1  0.75037949  0.25573607  0.70213276  1
  Se  Se255  1  0.74295322  0.58304291  0.19924013  1
  Se  Se256  1  0.75403987  0.58707670  0.70088616  1
  Se  Se257  1  0.75864955  0.91209736  0.18781372  1
  Se  Se258  1  0.74399066  0.91627278  0.69049951  1
