# generated using pymatgen
data_In86Cu29Se144
_symmetry_space_group_name_H-M   'P 1'
_cell_length_a   17.57756473
_cell_length_b   17.57457327
_cell_length_c   23.43848225
_cell_angle_alpha   89.98480967
_cell_angle_beta   89.99378769
_cell_angle_gamma   90.02307590
_symmetry_Int_Tables_number   1
_chemical_formula_structural   In86Cu29Se144
_chemical_formula_sum   'In86 Cu29 Se144'
_cell_volume   7240.57284471
_cell_formula_units_Z   1
loop_
 _symmetry_equiv_pos_site_id
 _symmetry_equiv_pos_as_xyz
  1  'x, y, z'
loop_
 _atom_site_type_symbol
 _atom_site_label
 _atom_site_symmetry_multiplicity
 _atom_site_fract_x
 _atom_site_fract_y
 _atom_site_fract_z
 _atom_site_occupancy
  In  In0  1  -0.01145280  0.17316811  0.12383665  1
  In  In1  1  0.00038456  0.17210974  0.62716645  1
  In  In2  1  0.00945976  0.50429904  0.11394395  1
  In  In3  1  -0.01586078  0.49858447  0.64189759  1
  In  In4  1  -0.00017135  0.83084019  0.12170896  1
  In  In5  1  -0.01149780  0.83096722  0.63115310  1
  In  In6  1  0.34509730  0.16650044  0.12754235  1
  In  In7  1  0.34462137  0.15668324  0.63563487  1
  In  In8  1  0.33126481  0.50141461  0.12380479  1
  In  In9  1  0.34410566  0.49299059  0.63650934  1
  In  In10  1  0.31595396  0.82474338  0.11146108  1
  In  In11  1  0.33882663  0.82588125  0.62982067  1
  In  In12  1  0.66191492  0.15611787  0.12527451  1
  In  In13  1  0.65982955  0.17471483  0.62416390  1
  In  In14  1  0.66842596  0.49803561  0.10954737  1
  In  In15  1  0.65898107  0.49767037  0.62481251  1
  In  In16  1  0.67396980  0.84074037  0.11903521  1
  In  In17  1  0.65294666  0.84504661  0.62566934  1
  In  In18  1  0.16343174  0.01506180  0.36560084  1
  In  In19  1  0.17315941  -0.01554993  0.88248487  1
  In  In20  1  0.17772132  0.32152768  0.37095701  1
  In  In21  1  0.18089964  0.34419700  0.86863143  1
  In  In22  1  0.16731390  0.66916363  0.36363228  1
  In  In23  1  0.16762446  0.66662131  0.87516789  1
  In  In24  1  0.50737595  -0.01101263  0.38993484  1
  In  In25  1  0.48901438  -0.00070624  0.87843125  1
  In  In26  1  0.49469545  0.34535080  0.38357315  1
  In  In27  1  0.51129111  0.34581808  0.86656530  1
  In  In28  1  0.49624491  0.67416932  0.37944010  1
  In  In29  1  0.49332475  0.67110876  0.87854885  1
  In  In30  1  0.83135643  -0.00314961  0.36246619  1
  In  In31  1  0.83043124  0.00037663  0.88631654  1
  In  In32  1  0.84055920  0.34397403  0.37895330  1
  In  In33  1  0.83480328  0.33778414  0.86891393  1
  In  In34  1  0.83225462  0.65662108  0.37241288  1
  In  In35  1  0.84746013  0.64829765  0.88172833  1
  In  In36  1  0.01128441  0.16382942  0.37054401  1
  In  In37  1  -0.02031626  0.17312988  0.87038880  1
  In  In38  1  -0.01323105  0.49938802  0.37350131  1
  In  In39  1  -0.00014450  0.50585332  0.86997982  1
  In  In40  1  -0.00154605  0.83256161  0.36185289  1
  In  In41  1  0.01046851  0.81919602  0.88502248  1
  In  In42  1  0.33414129  0.17516453  0.37673685  1
  In  In43  1  0.33616220  0.16673949  0.86770423  1
  In  In44  1  0.33906795  0.50855497  0.36905604  1
  In  In45  1  0.33285285  0.50248023  0.87599350  1
  In  In46  1  0.34900210  0.83507142  0.37118921  1
  In  In47  1  0.33629812  0.83061272  0.87711272  1
  In  In48  1  0.66134083  0.15269157  0.37716109  1
  In  In49  1  0.67736995  0.18524485  0.86932289  1
  In  In50  1  0.67021349  0.50301415  0.38412459  1
  In  In51  1  0.68213632  0.47176805  0.89327169  1
  In  In52  1  0.65544850  0.83807388  0.37345611  1
  In  In53  1  0.66290059  0.83702051  0.88671120  1
  In  In54  1  0.17476412  -0.01887143  0.12225258  1
  In  In55  1  0.17379477  0.01464154  0.62487409  1
  In  In56  1  0.16362756  0.34598189  0.12103058  1
  In  In57  1  0.16687171  0.33484481  0.63725321  1
  In  In58  1  0.16509722  0.66440384  0.12311804  1
  In  In59  1  0.16691172  0.66504576  0.63427966  1
  In  In60  1  0.50744434  0.00436355  0.12606210  1
  In  In61  1  0.48568019  -0.01827979  0.60141933  1
  In  In62  1  0.49194161  0.32905806  0.12211155  1
  In  In63  1  0.49900237  0.33668291  0.62737596  1
  In  In64  1  0.48949931  0.65736421  0.12093120  1
  In  In65  1  0.49507307  0.65716491  0.62241383  1
  In  In66  1  0.83294774  -0.00012562  0.12378167  1
  In  In67  1  0.82756450  0.00505093  0.62601217  1
  In  In68  1  0.83738154  0.33864569  0.10600234  1
  In  In69  1  0.80106693  0.35172983  0.65987730  1
  In  In70  1  0.83971909  0.67105693  0.11610388  1
  In  In71  1  0.84693637  0.66405766  0.63575905  1
  In  In72  1  0.17170017  0.16834650  0.49456590  1
  In  In73  1  0.00465207  0.33314948  0.24895216  1
  In  In74  1  0.66276093  0.00971034  0.74910484  1
  In  In75  1  0.00928013  -0.00268255  0.75289704  1
  In  In76  1  0.33282398  -0.00110217  0.24810177  1
  In  In77  1  0.17112217  0.50209446  0.50143371  1
  In  In78  1  0.66510231  0.67127346  0.25129456  1
  In  In79  1  0.66506216  0.33304716  0.24315724  1
  In  In80  1  0.82124948  0.82713386  0.49540310  1
  In  In81  1  0.50820937  0.16888011  0.00083362  1
  In  In82  1  0.16395742  0.16549791  -0.00188747  1
  In  In83  1  0.82639904  0.17455775  0.50509039  1
  In  In84  1  0.17096354  0.83326634  0.50137268  1
  In  In85  1  0.66622933  0.65945263  0.76107223  1
  Cu  Cu86  1  0.34343361  0.66759169  0.50097073  1
  Cu  Cu87  1  0.66973872  0.00256284  0.00235834  1
  Cu  Cu88  1  -0.00639664  -0.00232339  0.49135019  1
  Cu  Cu89  1  0.17153757  0.16499200  0.75484257  1
  Cu  Cu90  1  -0.00456912  0.65855294  0.50525863  1
  Cu  Cu91  1  0.16332129  0.82776619  0.24155922  1
  Cu  Cu92  1  0.83604491  0.83815138  0.23903880  1
  Cu  Cu93  1  0.49297483  0.83300413  0.74947294  1
  Cu  Cu94  1  -0.00668549  0.34462804  0.50614722  1
  Cu  Cu95  1  0.83762150  0.50586495  0.24486991  1
  Cu  Cu96  1  0.33894772  0.33210962  0.50718606  1
  Cu  Cu97  1  0.67105674  0.66388281  0.50390984  1
  Cu  Cu98  1  0.00120264  0.66502330  -0.00104124  1
  Cu  Cu99  1  0.00155490  0.33790835  -0.00886318  1
  Cu  Cu100  1  0.32888602  0.66525790  -0.00170560  1
  Cu  Cu101  1  -0.00343182  -0.00320886  0.00122054  1
  Cu  Cu102  1  0.16547234  0.50641925  0.75367374  1
  Cu  Cu103  1  0.82993909  0.16160565  0.24617735  1
  Cu  Cu104  1  0.49594396  0.83296528  0.25077224  1
  Cu  Cu105  1  0.16941628  0.50088344  0.24235193  1
  Cu  Cu106  1  0.65811350  0.66990316  -0.00138315  1
  Cu  Cu107  1  0.48919325  0.49949612  0.25040694  1
  Cu  Cu108  1  0.49759217  0.16759549  0.74754777  1
  Cu  Cu109  1  0.33660173  0.33908237  -0.00295999  1
  Cu  Cu110  1  0.83709580  0.82908828  0.75920359  1
  Cu  Cu111  1  0.66567447  0.33873018  0.50792765  1
  Cu  Cu112  1  0.49930608  0.16730282  0.25192388  1
  Cu  Cu113  1  0.49926428  0.50147903  0.75372700  1
  Cu  Cu114  1  0.17344007  0.83156273  0.75672013  1
  Se  Se115  1  0.07704790  0.07707250  0.06181190  1
  Se  Se116  1  0.07250144  0.07777378  0.55256679  1
  Se  Se117  1  0.08765293  0.41820380  0.04435329  1
  Se  Se118  1  0.08082897  0.41741402  0.56487622  1
  Se  Se119  1  0.08411390  0.74853070  0.05345329  1
  Se  Se120  1  0.07429957  0.74426531  0.56038918  1
  Se  Se121  1  0.41220816  0.07597392  0.05397286  1
  Se  Se122  1  0.41062624  0.09030805  0.55274148  1
  Se  Se123  1  0.41775282  0.41929185  0.05499406  1
  Se  Se124  1  0.41830455  0.42282521  0.55675766  1
  Se  Se125  1  0.41432576  0.74702192  0.05228053  1
  Se  Se126  1  0.42284957  0.75255935  0.55574796  1
  Se  Se127  1  0.75203405  0.08751573  0.05483274  1
  Se  Se128  1  0.73630990  0.07474343  0.55500999  1
  Se  Se129  1  0.75567735  0.42358477  0.04233428  1
  Se  Se130  1  0.75317099  0.41215147  0.56544350  1
  Se  Se131  1  0.74690701  0.74867838  0.05218116  1
  Se  Se132  1  0.74472463  0.74264720  0.56970408  1
  Se  Se133  1  0.25927886  0.25472831  0.05737370  1
  Se  Se134  1  0.25304745  0.25460700  0.56366437  1
  Se  Se135  1  0.24687431  0.58100844  0.05368844  1
  Se  Se136  1  0.26068370  0.59055001  0.56248474  1
  Se  Se137  1  0.25138813  0.91970702  0.04248853  1
  Se  Se138  1  0.25712663  0.92385858  0.56085604  1
  Se  Se139  1  0.59813461  0.26142348  0.05872548  1
  Se  Se140  1  0.57826637  0.25420385  0.55444533  1
  Se  Se141  1  0.57710566  0.58310109  0.05069308  1
  Se  Se142  1  0.58280665  0.58129134  0.55331082  1
  Se  Se143  1  0.58297427  0.92109415  0.05408388  1
  Se  Se144  1  0.59046371  0.91480662  0.54328227  1
  Se  Se145  1  0.92244778  0.25014647  0.04398005  1
  Se  Se146  1  0.91505153  0.26260279  0.56510418  1
  Se  Se147  1  0.91523730  0.57966856  0.04942142  1
  Se  Se148  1  0.91536987  0.57772119  0.56161627  1
  Se  Se149  1  0.91266550  0.91364512  0.05515559  1
  Se  Se150  1  0.91702497  0.92084367  0.55519157  1
  Se  Se151  1  0.07214461  0.26465197  0.44427268  1
  Se  Se152  1  0.08213488  0.25514707  0.93229605  1
  Se  Se153  1  0.07901242  0.58943747  0.44015314  1
  Se  Se154  1  0.08375056  0.58290431  0.94329641  1
  Se  Se155  1  0.07965265  0.91999159  0.43602029  1
  Se  Se156  1  0.08332859  0.91321136  0.95167125  1
  Se  Se157  1  0.41765068  0.25118950  0.44798114  1
  Se  Se158  1  0.41520425  0.25467959  0.93954141  1
  Se  Se159  1  0.41995806  0.58032322  0.44498246  1
  Se  Se160  1  0.41540956  0.58262290  0.94707727  1
  Se  Se161  1  0.41368771  0.90899992  0.45057755  1
  Se  Se162  1  0.42458352  0.90680940  0.94668516  1
  Se  Se163  1  0.73890719  0.26295783  0.43810140  1
  Se  Se164  1  0.76194328  0.25064679  0.94223554  1
  Se  Se165  1  0.75786921  0.58376043  0.45058214  1
  Se  Se166  1  0.74271720  0.58741210  0.94582017  1
  Se  Se167  1  0.74265472  0.92883017  0.43965359  1
  Se  Se168  1  0.75281452  0.91326976  0.95392580  1
  Se  Se169  1  0.25978638  0.07021871  0.44132416  1
  Se  Se170  1  0.26136818  0.07976084  0.94265877  1
  Se  Se171  1  0.25818521  0.40816221  0.44235536  1
  Se  Se172  1  0.24873329  0.42165453  0.94786461  1
  Se  Se173  1  0.25649386  0.73999622  0.44023217  1
  Se  Se174  1  0.24752903  0.75103425  0.94505044  1
  Se  Se175  1  0.57214882  0.09368612  0.45043306  1
  Se  Se176  1  0.59557286  0.08086642  0.93503414  1
  Se  Se177  1  0.58500858  0.42175867  0.45033310  1
  Se  Se178  1  0.57243125  0.41270158  0.95209339  1
  Se  Se179  1  0.59200231  0.74563737  0.44532823  1
  Se  Se180  1  0.57338658  0.75497225  0.94917604  1
  Se  Se181  1  0.91466018  0.08473104  0.43752618  1
  Se  Se182  1  0.91928773  0.08576657  0.94798473  1
  Se  Se183  1  0.91117456  0.42773236  0.45247073  1
  Se  Se184  1  0.91749999  0.42157555  0.93919304  1
  Se  Se185  1  0.92483377  0.74429340  0.44090957  1
  Se  Se186  1  0.91232601  0.74803016  0.94870179  1
  Se  Se187  1  0.24271400  0.23150524  0.30145039  1
  Se  Se188  1  0.25653973  0.25338125  0.80113656  1
  Se  Se189  1  0.25111373  0.58318281  0.29980435  1
  Se  Se190  1  0.25272785  0.58698393  0.80550619  1
  Se  Se191  1  0.24076056  0.90572348  0.30812969  1
  Se  Se192  1  0.25595514  0.91795638  0.80605173  1
  Se  Se193  1  0.57914661  0.25060444  0.31115840  1
  Se  Se194  1  0.58228854  0.24983698  0.80012479  1
  Se  Se195  1  0.57800744  0.57449499  0.30921783  1
  Se  Se196  1  0.57977566  0.56989276  0.82160501  1
  Se  Se197  1  0.57511601  0.92010269  0.30407138  1
  Se  Se198  1  0.57932870  0.91038359  0.80705729  1
  Se  Se199  1  0.90647322  0.24468745  0.30828949  1
  Se  Se200  1  0.92306870  0.26371325  0.79540805  1
  Se  Se201  1  0.92023117  0.58738848  0.29932449  1
  Se  Se202  1  0.91339075  0.58118068  0.79881907  1
  Se  Se203  1  0.91959461  0.92028651  0.29564519  1
  Se  Se204  1  0.91716100  0.91315932  0.81624500  1
  Se  Se205  1  0.07528817  0.08173633  0.29481499  1
  Se  Se206  1  0.09199174  0.08783948  0.81851138  1
  Se  Se207  1  0.09385289  0.42496543  0.31148761  1
  Se  Se208  1  0.08560934  0.41816195  0.80470247  1
  Se  Se209  1  0.07889464  0.74523865  0.29628213  1
  Se  Se210  1  0.08368564  0.74993714  0.80452186  1
  Se  Se211  1  0.42279278  0.08305392  0.31236170  1
  Se  Se212  1  0.41960397  0.08032956  0.80196274  1
  Se  Se213  1  0.41277090  0.41099841  0.30500860  1
  Se  Se214  1  0.41201052  0.41706075  0.80434734  1
  Se  Se215  1  0.41626531  0.74317777  0.30088796  1
  Se  Se216  1  0.41423077  0.74737791  0.80362246  1
  Se  Se217  1  0.74383316  0.08402999  0.30108012  1
  Se  Se218  1  0.76314299  0.08683870  0.80790892  1
  Se  Se219  1  0.75600477  0.42570683  0.30469599  1
  Se  Se220  1  0.74146565  0.41488776  0.80314506  1
  Se  Se221  1  0.76000127  0.76263892  0.30831992  1
  Se  Se222  1  0.75365288  0.75441043  0.81895381  1
  Se  Se223  1  0.24353454  0.08725754  0.18680636  1
  Se  Se224  1  0.25349142  0.07913085  0.70311987  1
  Se  Se225  1  0.25187236  0.41306534  0.19400217  1
  Se  Se226  1  0.24987165  0.42063071  0.70199195  1
  Se  Se227  1  0.25157806  0.74661457  0.19221586  1
  Se  Se228  1  0.25320801  0.74800990  0.69886139  1
  Se  Se229  1  0.58359663  0.08290183  0.20111651  1
  Se  Se230  1  0.56689228  0.08199651  0.68348514  1
  Se  Se231  1  0.57552285  0.42884145  0.18816673  1
  Se  Se232  1  0.58195693  0.41801143  0.69861844  1
  Se  Se233  1  0.57655900  0.75592777  0.18750851  1
  Se  Se234  1  0.57999982  0.75150269  0.69527243  1
  Se  Se235  1  0.91712194  0.08321551  0.19331889  1
  Se  Se236  1  0.91315313  0.08520205  0.69557250  1
  Se  Se237  1  0.91346932  0.41952014  0.18657590  1
  Se  Se238  1  0.92996884  0.38945031  0.70485817  1
  Se  Se239  1  0.91627338  0.74702410  0.19199678  1
  Se  Se240  1  0.92318059  0.74808325  0.70751118  1
  Se  Se241  1  0.09239428  0.24468093  0.18767594  1
  Se  Se242  1  0.08609686  0.24264176  0.69950485  1
  Se  Se243  1  0.07998427  0.58093590  0.19256884  1
  Se  Se244  1  0.07857431  0.58462680  0.69898625  1
  Se  Se245  1  0.08168770  0.91525057  0.19229384  1
  Se  Se246  1  0.09722862  0.90786264  0.68819102  1
  Se  Se247  1  0.41790822  0.25220330  0.19939073  1
  Se  Se248  1  0.41415605  0.25683708  0.69797822  1
  Se  Se249  1  0.40969905  0.58536243  0.19691970  1
  Se  Se250  1  0.41804896  0.58857265  0.70185384  1
  Se  Se251  1  0.41717227  0.90820719  0.18504998  1
  Se  Se252  1  0.42064323  0.92073638  0.69076807  1
  Se  Se253  1  0.76148980  0.24929420  0.18454267  1
  Se  Se254  1  0.75010774  0.22663036  0.70026762  1
  Se  Se255  1  0.74969880  0.58012253  0.18728817  1
  Se  Se256  1  0.75358376  0.57615493  0.69518630  1
  Se  Se257  1  0.74526211  0.92162784  0.19485945  1
  Se  Se258  1  0.75705010  0.90681161  0.69687067  1
