# generated using pymatgen
data_In86Cu29Se144
_symmetry_space_group_name_H-M   'P 1'
_cell_length_a   17.58090248
_cell_length_b   17.57614873
_cell_length_c   23.43790416
_cell_angle_alpha   90.01792499
_cell_angle_beta   90.00415075
_cell_angle_gamma   89.97735263
_symmetry_Int_Tables_number   1
_chemical_formula_structural   In86Cu29Se144
_chemical_formula_sum   'In86 Cu29 Se144'
_cell_volume   7242.41825140
_cell_formula_units_Z   1
loop_
 _symmetry_equiv_pos_site_id
 _symmetry_equiv_pos_as_xyz
  1  'x, y, z'
loop_
 _atom_site_type_symbol
 _atom_site_label
 _atom_site_symmetry_multiplicity
 _atom_site_fract_x
 _atom_site_fract_y
 _atom_site_fract_z
 _atom_site_occupancy
  In  In0  1  -0.00489264  0.16877874  0.12752324  1
  In  In1  1  0.00316967  0.17300055  0.63269906  1
  In  In2  1  -0.01536711  0.49529989  0.12247429  1
  In  In3  1  -0.01125643  0.48991831  0.61787204  1
  In  In4  1  0.01410027  0.84249971  0.10776425  1
  In  In5  1  0.01330768  0.84656557  0.63621574  1
  In  In6  1  0.32583408  0.15502869  0.10354916  1
  In  In7  1  0.33184466  0.17461937  0.62442426  1
  In  In8  1  0.34638395  0.49228966  0.12675229  1
  In  In9  1  0.33468314  0.50407970  0.61231711  1
  In  In10  1  0.32998865  0.83681717  0.10736896  1
  In  In11  1  0.31989302  0.84152151  0.62917356  1
  In  In12  1  0.67726291  0.17947199  0.11291774  1
  In  In13  1  0.67766487  0.15513017  0.64176315  1
  In  In14  1  0.65912429  0.48617594  0.12130909  1
  In  In15  1  0.66736636  0.49628350  0.62952328  1
  In  In16  1  0.67193437  0.83231455  0.11123355  1
  In  In17  1  0.66138372  0.83451882  0.64013684  1
  In  In18  1  0.15228356  0.01171099  0.38791881  1
  In  In19  1  0.15957284  0.00857792  0.87616958  1
  In  In20  1  0.15408423  0.33861494  0.38095464  1
  In  In21  1  0.15070567  0.32309890  0.86438243  1
  In  In22  1  0.17554689  0.66566290  0.39225343  1
  In  In23  1  0.17304309  0.67244481  0.87320080  1
  In  In24  1  0.50012448  0.00312868  0.37126597  1
  In  In25  1  0.50580256  -0.00334170  0.87977301  1
  In  In26  1  0.51359404  0.33880884  0.36968520  1
  In  In27  1  0.52421461  0.31477243  0.88414256  1
  In  In28  1  0.49169961  0.65395822  0.37592459  1
  In  In29  1  0.50509330  0.65961469  0.88032487  1
  In  In30  1  0.85323903  -0.00621849  0.37346162  1
  In  In31  1  0.83420281  0.00372960  0.87506434  1
  In  In32  1  0.83273835  0.33043897  0.37700778  1
  In  In33  1  0.83530481  0.33132772  0.87579201  1
  In  In34  1  0.82295017  0.65890355  0.37788894  1
  In  In35  1  0.82333218  0.68068084  0.88629987  1
  In  In36  1  -0.00392945  0.16508946  0.37674192  1
  In  In37  1  0.00351071  0.15928852  0.87271228  1
  In  In38  1  0.00601707  0.49039280  0.38143584  1
  In  In39  1  -0.00173413  0.48342937  0.87154539  1
  In  In40  1  0.00651560  0.84760438  0.37189680  1
  In  In41  1  -0.01157729  0.83760223  0.88111063  1
  In  In42  1  0.32583575  0.15168960  0.37494952  1
  In  In43  1  0.33578645  0.15640367  0.88660202  1
  In  In44  1  0.33772638  0.50129393  0.38671065  1
  In  In45  1  0.33569351  0.50915208  0.87609741  1
  In  In46  1  0.32099756  0.81644045  0.37639600  1
  In  In47  1  0.32517639  0.85275577  0.89669309  1
  In  In48  1  0.65886943  0.18542046  0.37530179  1
  In  In49  1  0.66924056  0.17214518  0.86945729  1
  In  In50  1  0.67612746  0.48872155  0.38498148  1
  In  In51  1  0.66989439  0.49875611  0.87491529  1
  In  In52  1  0.66565474  0.83138413  0.37392791  1
  In  In53  1  0.66843907  0.83314765  0.87482492  1
  In  In54  1  0.15690473  -0.00751772  0.11600430  1
  In  In55  1  0.15504946  0.00087691  0.63013794  1
  In  In56  1  0.16704143  0.31744316  0.12605835  1
  In  In57  1  0.15432621  0.32123013  0.61914214  1
  In  In58  1  0.15586361  0.67757120  0.11996488  1
  In  In59  1  0.16978845  0.67047855  0.61624145  1
  In  In60  1  0.49429162  -0.00080286  0.09805664  1
  In  In61  1  0.50879114  0.00684748  0.63424856  1
  In  In62  1  0.51224182  0.34540903  0.11460223  1
  In  In63  1  0.49665591  0.34341722  0.62837596  1
  In  In64  1  0.49976779  0.66340409  0.11873231  1
  In  In65  1  0.50953240  0.66223813  0.63219321  1
  In  In66  1  0.84755367  0.01557652  0.11510241  1
  In  In67  1  0.82837410  0.01161071  0.63518670  1
  In  In68  1  0.82953091  0.33008506  0.12590555  1
  In  In69  1  0.83558294  0.33295197  0.62864255  1
  In  In70  1  0.83656759  0.65636203  0.10758908  1
  In  In71  1  0.83144391  0.65361323  0.62628040  1
  In  In72  1  0.48921474  0.82653906  0.50540643  1
  In  In73  1  0.67787670  0.02115456  0.23633147  1
  In  In74  1  0.32735020  -0.00285806  0.24408974  1
  In  In75  1  0.33565214  0.67188608  0.74877763  1
  In  In76  1  0.33347359  0.66384200  0.24223135  1
  In  In77  1  -0.00707019  0.66605533  0.75198962  1
  In  In78  1  -0.00052837  0.66830024  0.24753541  1
  In  In79  1  0.16921501  0.50169778  -0.00011244  1
  In  In80  1  0.83809987  0.82904695  0.49944986  1
  In  In81  1  0.33540955  0.33159706  0.75197340  1
  In  In82  1  0.33448899  0.00196492  0.75926128  1
  In  In83  1  0.49791085  0.17751157  0.50424152  1
  In  In84  1  0.33599618  0.32897871  0.25013274  1
  In  In85  1  0.67157172  0.66144293  0.25515982  1
  Cu  Cu86  1  0.33285135  0.33752904  -0.00345532  1
  Cu  Cu87  1  0.66552931  0.65697838  0.50792180  1
  Cu  Cu88  1  0.82984437  0.49054872  0.25036426  1
  Cu  Cu89  1  -0.00200953  0.32402457  -0.00271033  1
  Cu  Cu90  1  0.66823376  0.66409073  -0.00369813  1
  Cu  Cu91  1  0.50483187  0.84000367  0.24301047  1
  Cu  Cu92  1  0.67295258  0.00688916  0.50942436  1
  Cu  Cu93  1  0.84001262  0.17134652  0.75582952  1
  Cu  Cu94  1  0.83383519  0.17189604  0.24871306  1
  Cu  Cu95  1  0.67216303  0.33355724  0.50554023  1
  Cu  Cu96  1  0.49864521  0.82817486  0.76279829  1
  Cu  Cu97  1  0.50790226  0.49273750  0.75583780  1
  Cu  Cu98  1  0.67311569  0.00064790  -0.00906018  1
  Cu  Cu99  1  0.50088558  0.17659041  0.23371371  1
  Cu  Cu100  1  0.82665354  0.49746868  0.75158350  1
  Cu  Cu101  1  0.32974019  0.33043985  0.49930650  1
  Cu  Cu102  1  0.16297270  0.49497047  0.73738594  1
  Cu  Cu103  1  0.16266459  0.49719119  0.25637904  1
  Cu  Cu104  1  0.32350675  -0.00355656  0.50316214  1
  Cu  Cu105  1  0.15832363  0.84291883  0.24742664  1
  Cu  Cu106  1  0.33867684  0.66755262  -0.00076136  1
  Cu  Cu107  1  -0.00441713  0.32823008  0.50055804  1
  Cu  Cu108  1  0.84635937  0.83701749  0.23723090  1
  Cu  Cu109  1  -0.00471103  0.00721209  -0.00330604  1
  Cu  Cu110  1  -0.00010891  0.66777196  0.50596641  1
  Cu  Cu111  1  -0.00298195  0.00771101  0.50492980  1
  Cu  Cu112  1  0.83056508  0.83618206  0.75665616  1
  Cu  Cu113  1  0.15420642  0.16235152  0.25158592  1
  Cu  Cu114  1  0.67198369  0.33657767  -0.00396394  1
  Se  Se115  1  0.07630977  0.08740600  0.05606576  1
  Se  Se116  1  0.08124218  0.08804616  0.55932633  1
  Se  Se117  1  0.08000592  0.40648244  0.05808561  1
  Se  Se118  1  0.08092544  0.41370048  0.55218726  1
  Se  Se119  1  0.08997752  0.75187372  0.04146512  1
  Se  Se120  1  0.07401436  0.75633178  0.56037014  1
  Se  Se121  1  0.42329547  0.09495254  0.03577512  1
  Se  Se122  1  0.41295131  0.07297354  0.55954221  1
  Se  Se123  1  0.41783641  0.42059318  0.04784085  1
  Se  Se124  1  0.41763347  0.41196543  0.55041735  1
  Se  Se125  1  0.42393182  0.75177799  0.05063866  1
  Se  Se126  1  0.40561845  0.74071369  0.57176135  1
  Se  Se127  1  0.75170355  0.08483749  0.04865523  1
  Se  Se128  1  0.75447631  0.09165727  0.55919912  1
  Se  Se129  1  0.75396120  0.41697994  0.05421396  1
  Se  Se130  1  0.75313246  0.41800054  0.55951093  1
  Se  Se131  1  0.75583251  0.74847994  0.04554137  1
  Se  Se132  1  0.74009986  0.74919265  0.56242646  1
  Se  Se133  1  0.24554440  0.25382948  0.04627291  1
  Se  Se134  1  0.24869924  0.24681341  0.55192067  1
  Se  Se135  1  0.26022592  0.58970852  0.06459991  1
  Se  Se136  1  0.24238804  0.58007923  0.55025733  1
  Se  Se137  1  0.25491140  0.93148000  0.04739303  1
  Se  Se138  1  0.23883280  0.91876029  0.55856370  1
  Se  Se139  1  0.58342868  0.25277017  0.04670894  1
  Se  Se140  1  0.59294617  0.25320672  0.56777477  1
  Se  Se141  1  0.58757254  0.58201819  0.05449627  1
  Se  Se142  1  0.57892634  0.57616724  0.55915241  1
  Se  Se143  1  0.58946728  0.91379365  0.04269391  1
  Se  Se144  1  0.58820849  0.91956513  0.55964694  1
  Se  Se145  1  0.91228145  0.24774634  0.05600854  1
  Se  Se146  1  0.91673945  0.24812870  0.55985049  1
  Se  Se147  1  0.93330447  0.58373949  0.04515362  1
  Se  Se148  1  0.91243021  0.58297948  0.55127339  1
  Se  Se149  1  0.91397419  0.91774192  0.04825799  1
  Se  Se150  1  0.91718537  0.92261182  0.56354299  1
  Se  Se151  1  0.08061224  0.24517435  0.44697269  1
  Se  Se152  1  0.08476780  0.24545079  0.94391655  1
  Se  Se153  1  0.07911683  0.58370653  0.44836021  1
  Se  Se154  1  0.08225123  0.58210176  0.93297355  1
  Se  Se155  1  0.07762085  0.91728022  0.45344847  1
  Se  Se156  1  0.07790239  0.92234204  0.94389743  1
  Se  Se157  1  0.40938913  0.25475769  0.43278060  1
  Se  Se158  1  0.41651588  0.25356644  0.94510231  1
  Se  Se159  1  0.40313766  0.60065134  0.45154945  1
  Se  Se160  1  0.41918721  0.57924098  0.94965049  1
  Se  Se161  1  0.40734236  0.92224827  0.43959627  1
  Se  Se162  1  0.42920673  0.91775095  0.95409490  1
  Se  Se163  1  0.74802767  0.24865647  0.44824984  1
  Se  Se164  1  0.75152726  0.24889462  0.94433433  1
  Se  Se165  1  0.75257238  0.57888187  0.45338494  1
  Se  Se166  1  0.75256931  0.57812651  0.94644781  1
  Se  Se167  1  0.74364291  0.92316810  0.44342967  1
  Se  Se168  1  0.75642904  0.91320749  0.94221488  1
  Se  Se169  1  0.24509720  0.08743797  0.45341428  1
  Se  Se170  1  0.25203389  0.07121073  0.94925123  1
  Se  Se171  1  0.24759891  0.41476568  0.44543375  1
  Se  Se172  1  0.24867650  0.40946973  0.93288295  1
  Se  Se173  1  0.24399674  0.76009628  0.45817083  1
  Se  Se174  1  0.24866603  0.74693956  0.94995341  1
  Se  Se175  1  0.58641680  0.07889040  0.44531823  1
  Se  Se176  1  0.58987815  0.08774724  0.94149086  1
  Se  Se177  1  0.58294585  0.41148753  0.45069580  1
  Se  Se178  1  0.58412355  0.42120504  0.94663121  1
  Se  Se179  1  0.58905328  0.74117759  0.44495518  1
  Se  Se180  1  0.58558568  0.74979710  0.94449876  1
  Se  Se181  1  0.91190315  0.08348425  0.44815070  1
  Se  Se182  1  0.91208414  0.09078544  0.94447093  1
  Se  Se183  1  0.91416323  0.41405753  0.44673175  1
  Se  Se184  1  0.91789135  0.41349826  0.94792068  1
  Se  Se185  1  0.92738556  0.74224573  0.43417456  1
  Se  Se186  1  0.92747499  0.73924702  0.94925866  1
  Se  Se187  1  0.24149147  0.24038326  0.30933301  1
  Se  Se188  1  0.25079242  0.23647681  0.81044572  1
  Se  Se189  1  0.24511297  0.57984604  0.31088562  1
  Se  Se190  1  0.23974100  0.57336427  0.80107952  1
  Se  Se191  1  0.24099143  0.91467826  0.31261739  1
  Se  Se192  1  0.24434067  0.90701061  0.81192416  1
  Se  Se193  1  0.58123587  0.25206961  0.29518114  1
  Se  Se194  1  0.58977538  0.25555825  0.79821025  1
  Se  Se195  1  0.58197762  0.57099180  0.31317514  1
  Se  Se196  1  0.58526584  0.58381589  0.80656142  1
  Se  Se197  1  0.58747218  0.92009102  0.30031598  1
  Se  Se198  1  0.58444309  0.91670861  0.80643210  1
  Se  Se199  1  0.91651068  0.24999656  0.30706708  1
  Se  Se200  1  0.92467262  0.25344421  0.80821156  1
  Se  Se201  1  0.90967970  0.57672523  0.30823670  1
  Se  Se202  1  0.90529569  0.57800656  0.81364094  1
  Se  Se203  1  0.92565198  0.91787853  0.29535563  1
  Se  Se204  1  0.91683977  0.91841382  0.80567141  1
  Se  Se205  1  0.07662491  0.07682079  0.30695244  1
  Se  Se206  1  0.08117709  0.07856667  0.79918010  1
  Se  Se207  1  0.07694082  0.41188799  0.30337260  1
  Se  Se208  1  0.08171471  0.41560777  0.79498864  1
  Se  Se209  1  0.09433673  0.75126294  0.31014077  1
  Se  Se210  1  0.08357241  0.75652682  0.80945031  1
  Se  Se211  1  0.42521544  0.09422997  0.29737472  1
  Se  Se212  1  0.42940540  0.09317429  0.81076577  1
  Se  Se213  1  0.41938542  0.42641864  0.30862927  1
  Se  Se214  1  0.42372639  0.41787970  0.81603304  1
  Se  Se215  1  0.42528891  0.75798394  0.30401020  1
  Se  Se216  1  0.41159268  0.75660151  0.82140037  1
  Se  Se217  1  0.75687384  0.09097592  0.31558076  1
  Se  Se218  1  0.75350653  0.08506112  0.80362144  1
  Se  Se219  1  0.74648071  0.41128908  0.30688786  1
  Se  Se220  1  0.74834338  0.41145032  0.80632518  1
  Se  Se221  1  0.76730030  0.76343798  0.30393452  1
  Se  Se222  1  0.74917828  0.74688229  0.80456051  1
  Se  Se223  1  0.23939128  0.09167301  0.18698537  1
  Se  Se224  1  0.24989139  0.08908952  0.69299177  1
  Se  Se225  1  0.24298626  0.42272509  0.19232020  1
  Se  Se226  1  0.25138331  0.41850246  0.68389462  1
  Se  Se227  1  0.24416606  0.76495606  0.18893596  1
  Se  Se228  1  0.23379788  0.75774606  0.69758959  1
  Se  Se229  1  0.57351740  0.08839354  0.17432077  1
  Se  Se230  1  0.58653976  0.07915686  0.70722009  1
  Se  Se231  1  0.57987817  0.41493378  0.19698994  1
  Se  Se232  1  0.58739057  0.41057638  0.69960630  1
  Se  Se233  1  0.58633735  0.75366602  0.18945633  1
  Se  Se234  1  0.58008000  0.74630127  0.70541373  1
  Se  Se235  1  0.91518372  0.08373513  0.19876080  1
  Se  Se236  1  0.92031162  0.08678016  0.70054587  1
  Se  Se237  1  0.91580754  0.41063956  0.19660278  1
  Se  Se238  1  0.91639024  0.41998929  0.69832581  1
  Se  Se239  1  0.91709995  0.75076343  0.17778459  1
  Se  Se240  1  0.90580318  0.75941023  0.68867199  1
  Se  Se241  1  0.07789865  0.25214858  0.19865196  1
  Se  Se242  1  0.09093221  0.25154140  0.70132014  1
  Se  Se243  1  0.09102340  0.57587681  0.18895208  1
  Se  Se244  1  0.08209620  0.58187997  0.68480215  1
  Se  Se245  1  0.07495633  0.92031745  0.19116161  1
  Se  Se246  1  0.07774479  0.93312113  0.71013182  1
  Se  Se247  1  0.41160676  0.24653534  0.17507101  1
  Se  Se248  1  0.42869187  0.23987700  0.69446572  1
  Se  Se249  1  0.43477931  0.57243580  0.19714521  1
  Se  Se250  1  0.42034479  0.56830427  0.69683125  1
  Se  Se251  1  0.42405809  0.91460153  0.18179565  1
  Se  Se252  1  0.42398685  0.90636278  0.69594155  1
  Se  Se253  1  0.74454792  0.24904812  0.19665555  1
  Se  Se254  1  0.75513719  0.25272473  0.70130792  1
  Se  Se255  1  0.75910036  0.57794410  0.18847867  1
  Se  Se256  1  0.74603024  0.58495200  0.69930949  1
  Se  Se257  1  0.75837717  0.91501227  0.18293388  1
  Se  Se258  1  0.74890517  0.92028841  0.70054580  1
