# generated using pymatgen
data_In86Cu29Se144
_symmetry_space_group_name_H-M   'P 1'
_cell_length_a   17.57299345
_cell_length_b   17.57139264
_cell_length_c   23.42520443
_cell_angle_alpha   89.98627406
_cell_angle_beta   89.97964344
_cell_angle_gamma   89.99394772
_symmetry_Int_Tables_number   1
_chemical_formula_structural   In86Cu29Se144
_chemical_formula_sum   'In86 Cu29 Se144'
_cell_volume   7233.28001777
_cell_formula_units_Z   1
loop_
 _symmetry_equiv_pos_site_id
 _symmetry_equiv_pos_as_xyz
  1  'x, y, z'
loop_
 _atom_site_type_symbol
 _atom_site_label
 _atom_site_symmetry_multiplicity
 _atom_site_fract_x
 _atom_site_fract_y
 _atom_site_fract_z
 _atom_site_occupancy
  In  In0  1  0.00650342  0.17606806  0.12686251  1
  In  In1  1  -0.01037367  0.14675725  0.60858001  1
  In  In2  1  -0.00293567  0.48687356  0.12136999  1
  In  In3  1  0.01430191  0.50185269  0.63129807  1
  In  In4  1  -0.00680487  0.84282943  0.12576541  1
  In  In5  1  0.00230855  0.83944865  0.62364441  1
  In  In6  1  0.33175474  0.16075914  0.12416168  1
  In  In7  1  0.33011308  0.16651154  0.62242896  1
  In  In8  1  0.34710790  0.50609168  0.11252731  1
  In  In9  1  0.34537036  0.49733169  0.64147815  1
  In  In10  1  0.33576903  0.82084707  0.13954399  1
  In  In11  1  0.33382906  0.83345907  0.62574372  1
  In  In12  1  0.65672211  0.15528530  0.11932643  1
  In  In13  1  0.65628135  0.15650853  0.60179871  1
  In  In14  1  0.65703034  0.50702429  0.12035739  1
  In  In15  1  0.65284690  0.49842918  0.62283159  1
  In  In16  1  0.67258072  0.84041266  0.12123365  1
  In  In17  1  0.67288119  0.84560251  0.60744010  1
  In  In18  1  0.19005693  -0.01810304  0.39601015  1
  In  In19  1  0.16421725  0.00529949  0.86278919  1
  In  In20  1  0.15416382  0.33161944  0.37231352  1
  In  In21  1  0.19678975  0.33194977  0.87753263  1
  In  In22  1  0.18113122  0.67401769  0.37173290  1
  In  In23  1  0.16192778  0.66071454  0.87260278  1
  In  In24  1  0.49656247  0.00190912  0.37377544  1
  In  In25  1  0.49464432  0.00774056  0.87817522  1
  In  In26  1  0.51631328  0.32895150  0.39173116  1
  In  In27  1  0.46552145  0.35385066  0.90849655  1
  In  In28  1  0.49056638  0.67664892  0.38161570  1
  In  In29  1  0.49509701  0.67487727  0.87419660  1
  In  In30  1  0.82555913  0.00332253  0.38397653  1
  In  In31  1  0.83355724  -0.00078147  0.87647450  1
  In  In32  1  0.83227695  0.29688302  0.37532562  1
  In  In33  1  0.81633683  0.32639565  0.87595431  1
  In  In34  1  0.83650971  0.68247885  0.37523222  1
  In  In35  1  0.84433655  0.67000988  0.87420087  1
  In  In36  1  0.00014112  0.16048376  0.38100490  1
  In  In37  1  -0.00272853  0.15650694  0.87038615  1
  In  In38  1  0.01214356  0.49413011  0.37294440  1
  In  In39  1  0.00205907  0.51548087  0.87402662  1
  In  In40  1  -0.00497137  0.85153916  0.39899465  1
  In  In41  1  -0.00218197  0.83190964  0.87110437  1
  In  In42  1  0.35166086  0.15748974  0.38281525  1
  In  In43  1  0.34224107  0.17133263  0.86248511  1
  In  In44  1  0.33593717  0.51374918  0.37179114  1
  In  In45  1  0.33383228  0.50180744  0.87559504  1
  In  In46  1  0.33121775  0.83446636  0.37276928  1
  In  In47  1  0.34051592  0.84713829  0.86589593  1
  In  In48  1  0.67969627  0.14661807  0.39443654  1
  In  In49  1  0.65919002  0.17908278  0.89020241  1
  In  In50  1  0.65826909  0.48530533  0.37651719  1
  In  In51  1  0.64394084  0.49326321  0.87745574  1
  In  In52  1  0.64171284  0.86221311  0.39826365  1
  In  In53  1  0.66493785  0.83432558  0.88003352  1
  In  In54  1  0.17185631  0.00423520  0.13264590  1
  In  In55  1  0.16926378  -0.00130651  0.62160055  1
  In  In56  1  0.15790566  0.32849851  0.12137778  1
  In  In57  1  0.17972918  0.33756645  0.62531570  1
  In  In58  1  0.19232278  0.66948144  0.12854373  1
  In  In59  1  0.16362598  0.67426516  0.63387145  1
  In  In60  1  0.50061253  -0.00413549  0.12641850  1
  In  In61  1  0.49495719  -0.00857605  0.61423032  1
  In  In62  1  0.49793784  0.32827016  0.10910373  1
  In  In63  1  0.49294719  0.32574329  0.62057299  1
  In  In64  1  0.49043500  0.66178843  0.11964525  1
  In  In65  1  0.48725078  0.66362438  0.62287939  1
  In  In66  1  0.82653094  -0.01182477  0.12153885  1
  In  In67  1  0.83968723  0.00895611  0.60788375  1
  In  In68  1  0.84232858  0.32724784  0.12204431  1
  In  In69  1  0.83755398  0.31967704  0.62351125  1
  In  In70  1  0.82000616  0.67091062  0.12330982  1
  In  In71  1  0.83674404  0.68286055  0.62779756  1
  In  In72  1  0.66606138  0.32547063  0.24819298  1
  In  In73  1  0.16752922  0.83093371  0.00406934  1
  In  In74  1  0.66152958  0.67068365  0.75085526  1
  In  In75  1  0.00754053  0.33084420  0.74707129  1
  In  In76  1  0.82851278  0.49968002  -0.00659591  1
  In  In77  1  0.17262738  0.16861522  0.00082360  1
  In  In78  1  0.17586594  0.50031033  0.50206576  1
  In  In79  1  0.83047289  0.50022359  0.49847711  1
  In  In80  1  0.33594416  0.33632457  0.24574132  1
  In  In81  1  0.65591159  0.32764564  0.74963214  1
  In  In82  1  0.00861462  0.66993769  0.25736795  1
  In  In83  1  0.66423477  0.66641835  0.24672325  1
  In  In84  1  0.01021432  0.00385490  0.25770713  1
  In  In85  1  0.66781989  0.00418305  0.74035387  1
  Cu  Cu86  1  0.84289928  0.48546664  0.24996950  1
  Cu  Cu87  1  -0.00864474  -0.00002889  -0.00288428  1
  Cu  Cu88  1  0.82911559  0.15808100  0.74325986  1
  Cu  Cu89  1  0.83807380  0.15806685  0.25590232  1
  Cu  Cu90  1  0.16272877  0.16246914  0.74230497  1
  Cu  Cu91  1  0.00931603  0.66983995  0.50791503  1
  Cu  Cu92  1  0.49880936  0.83594986  0.25657382  1
  Cu  Cu93  1  0.50161086  0.83635493  0.74332782  1
  Cu  Cu94  1  0.82597770  0.83742764  0.25305369  1
  Cu  Cu95  1  0.33665958  0.66933430  -0.00277217  1
  Cu  Cu96  1  0.33353653  0.33223792  0.50360961  1
  Cu  Cu97  1  0.49209709  0.50207567  0.24757687  1
  Cu  Cu98  1  0.16837244  0.83398505  0.74682997  1
  Cu  Cu99  1  0.66274685  0.66501161  0.50199800  1
  Cu  Cu100  1  -0.00505864  0.32521660  0.49698903  1
  Cu  Cu101  1  0.16544970  0.49914991  0.24780999  1
  Cu  Cu102  1  0.66791562  -0.00232029  0.00076177  1
  Cu  Cu103  1  0.17238376  0.50278581  0.75479473  1
  Cu  Cu104  1  0.34034759  -0.00037283  0.00000934  1
  Cu  Cu105  1  0.33313835  0.67303610  0.50193717  1
  Cu  Cu106  1  0.50647585  0.15713061  0.25166053  1
  Cu  Cu107  1  0.48983887  0.16911568  0.74960459  1
  Cu  Cu108  1  0.00274128  0.33066528  -0.00221792  1
  Cu  Cu109  1  0.84870309  0.83980276  0.74803002  1
  Cu  Cu110  1  0.83279855  0.50695794  0.75211079  1
  Cu  Cu111  1  0.33712006  0.00008253  0.50137638  1
  Cu  Cu112  1  0.00023710  0.67200834  -0.00354451  1
  Cu  Cu113  1  0.65802784  0.67196094  -0.00034725  1
  Cu  Cu114  1  0.17537383  0.16461697  0.25282780  1
  Se  Se115  1  0.07821036  0.07370427  0.05784360  1
  Se  Se116  1  0.08261753  0.06917274  0.54630770  1
  Se  Se117  1  0.08453212  0.41563582  0.04948621  1
  Se  Se118  1  0.07528634  0.40808560  0.55502433  1
  Se  Se119  1  0.07721810  0.74157571  0.06657977  1
  Se  Se120  1  0.09240901  0.75465469  0.55797933  1
  Se  Se121  1  0.41938592  0.08276262  0.05706116  1
  Se  Se122  1  0.41743543  0.08829771  0.55323563  1
  Se  Se123  1  0.42185720  0.41885672  0.04463686  1
  Se  Se124  1  0.40875699  0.42023748  0.55945929  1
  Se  Se125  1  0.41044380  0.75532266  0.05676652  1
  Se  Se126  1  0.41965150  0.75670074  0.55311007  1
  Se  Se127  1  0.75230057  0.07975094  0.05485982  1
  Se  Se128  1  0.75012937  0.08201504  0.53974630  1
  Se  Se129  1  0.74630272  0.41377065  0.06087718  1
  Se  Se130  1  0.74696770  0.41103992  0.56236835  1
  Se  Se131  1  0.74791144  0.75167611  0.04994588  1
  Se  Se132  1  0.75230049  0.74500194  0.55103409  1
  Se  Se133  1  0.26338026  0.26213151  0.05645226  1
  Se  Se134  1  0.24528131  0.24965093  0.55209359  1
  Se  Se135  1  0.25175834  0.58647882  0.05012530  1
  Se  Se136  1  0.25826128  0.58980881  0.56568283  1
  Se  Se137  1  0.25796498  0.92258509  0.06202174  1
  Se  Se138  1  0.25407754  0.91497855  0.55390318  1
  Se  Se139  1  0.59587833  0.25328717  0.05138632  1
  Se  Se140  1  0.58927060  0.26605080  0.55036927  1
  Se  Se141  1  0.57630129  0.58339340  0.04881737  1
  Se  Se142  1  0.57715764  0.58549947  0.55511371  1
  Se  Se143  1  0.58189390  0.91483391  0.05386624  1
  Se  Se144  1  0.59044783  0.93012615  0.54348913  1
  Se  Se145  1  0.92300538  0.24531208  0.05129907  1
  Se  Se146  1  0.90838705  0.24215031  0.54697186  1
  Se  Se147  1  0.91802048  0.59013982  0.05773148  1
  Se  Se148  1  0.92623548  0.58437775  0.56157987  1
  Se  Se149  1  0.91286081  0.91147843  0.04994592  1
  Se  Se150  1  0.90311682  0.89801917  0.55455698  1
  Se  Se151  1  0.08638182  0.24738007  0.44665855  1
  Se  Se152  1  0.08240557  0.25332950  0.93380775  1
  Se  Se153  1  0.08303589  0.59053250  0.44227634  1
  Se  Se154  1  0.08461838  0.58494515  0.94967169  1
  Se  Se155  1  0.07499487  0.94309385  0.46021013  1
  Se  Se156  1  0.08228958  0.92501288  0.94135180  1
  Se  Se157  1  0.42117936  0.25011257  0.45204646  1
  Se  Se158  1  0.41012941  0.22968823  0.94865777  1
  Se  Se159  1  0.41339853  0.58490815  0.44877448  1
  Se  Se160  1  0.41981216  0.58650976  0.94362500  1
  Se  Se161  1  0.41425590  0.91595182  0.44215399  1
  Se  Se162  1  0.41965579  0.91409672  0.94521897  1
  Se  Se163  1  0.72225059  0.27256522  0.44274276  1
  Se  Se164  1  0.76253516  0.24165648  0.95377644  1
  Se  Se165  1  0.74211477  0.59121018  0.43584824  1
  Se  Se166  1  0.73658041  0.59293248  0.93481107  1
  Se  Se167  1  0.77150348  0.89081622  0.44273168  1
  Se  Se168  1  0.75159427  0.91583096  0.94531606  1
  Se  Se169  1  0.25574090  0.09145451  0.45172678  1
  Se  Se170  1  0.25478213  0.07442908  0.93869489  1
  Se  Se171  1  0.25892459  0.40967706  0.43630200  1
  Se  Se172  1  0.24428104  0.43041239  0.94811655  1
  Se  Se173  1  0.24946590  0.75455829  0.44778112  1
  Se  Se174  1  0.25637340  0.75080559  0.93684940  1
  Se  Se175  1  0.57441213  0.07875475  0.44937978  1
  Se  Se176  1  0.58201386  0.08031883  0.94898103  1
  Se  Se177  1  0.57160834  0.43563493  0.45510689  1
  Se  Se178  1  0.59955704  0.39008269  0.94606755  1
  Se  Se179  1  0.57737040  0.75027659  0.45198733  1
  Se  Se180  1  0.57590455  0.75632575  0.94582885  1
  Se  Se181  1  0.90676057  0.09122048  0.44781388  1
  Se  Se182  1  0.91304885  0.08801717  0.94502597  1
  Se  Se183  1  0.91853167  0.40840257  0.43571504  1
  Se  Se184  1  0.92298109  0.40966487  0.93437245  1
  Se  Se185  1  0.92095855  0.74451167  0.45210063  1
  Se  Se186  1  0.91632590  0.75583714  0.94631010  1
  Se  Se187  1  0.25438633  0.24768082  0.31275825  1
  Se  Se188  1  0.24643665  0.24425555  0.79701215  1
  Se  Se189  1  0.24818069  0.58359575  0.29936222  1
  Se  Se190  1  0.25514607  0.58907343  0.80551757  1
  Se  Se191  1  0.24342153  0.91707828  0.30731088  1
  Se  Se192  1  0.24999620  0.92162897  0.79838555  1
  Se  Se193  1  0.58162207  0.23928398  0.31362833  1
  Se  Se194  1  0.56967270  0.24291235  0.81366406  1
  Se  Se195  1  0.57577773  0.57789534  0.30897418  1
  Se  Se196  1  0.56907693  0.57637982  0.80304592  1
  Se  Se197  1  0.58543945  0.91927165  0.30608449  1
  Se  Se198  1  0.58188035  0.91517565  0.80502103  1
  Se  Se199  1  0.92749095  0.24174952  0.30258019  1
  Se  Se200  1  0.90476130  0.24594585  0.80218227  1
  Se  Se201  1  0.91031684  0.57585693  0.31106427  1
  Se  Se202  1  0.91979641  0.58960679  0.80011213  1
  Se  Se203  1  0.91344279  0.91321662  0.31116858  1
  Se  Se204  1  0.92230928  0.92607640  0.80572445  1
  Se  Se205  1  0.10412824  0.08502203  0.31876847  1
  Se  Se206  1  0.07545225  0.08304898  0.79497712  1
  Se  Se207  1  0.08189735  0.41338063  0.29684427  1
  Se  Se208  1  0.09064343  0.41861756  0.81359332  1
  Se  Se209  1  0.07905647  0.76684266  0.32290570  1
  Se  Se210  1  0.08667119  0.75284610  0.80571247  1
  Se  Se211  1  0.41341126  0.08031498  0.30081570  1
  Se  Se212  1  0.41447459  0.07340460  0.79854873  1
  Se  Se213  1  0.42622104  0.41614806  0.31338289  1
  Se  Se214  1  0.41426185  0.40652590  0.81490790  1
  Se  Se215  1  0.41436925  0.74774151  0.30373812  1
  Se  Se216  1  0.41973091  0.75613817  0.80035518  1
  Se  Se217  1  0.74879183  0.08179105  0.30898965  1
  Se  Se218  1  0.74593121  0.09210111  0.81077454  1
  Se  Se219  1  0.75921928  0.41237050  0.31117084  1
  Se  Se220  1  0.74922039  0.42615573  0.80652506  1
  Se  Se221  1  0.74173419  0.76003047  0.31143839  1
  Se  Se222  1  0.75997880  0.76207506  0.80541614  1
  Se  Se223  1  0.25868176  0.08173668  0.20044374  1
  Se  Se224  1  0.25120056  0.08087773  0.69219341  1
  Se  Se225  1  0.24641047  0.42404447  0.18390526  1
  Se  Se226  1  0.25079121  0.41502747  0.70186041  1
  Se  Se227  1  0.23684308  0.75866323  0.20693461  1
  Se  Se228  1  0.25643652  0.75025685  0.69883358  1
  Se  Se229  1  0.58840121  0.07491620  0.19656364  1
  Se  Se230  1  0.57250039  0.09452746  0.68584826  1
  Se  Se231  1  0.57389383  0.41971442  0.19028145  1
  Se  Se232  1  0.56721326  0.42231351  0.69446034  1
  Se  Se233  1  0.57352806  0.75687254  0.18880840  1
  Se  Se234  1  0.58651230  0.76328755  0.68242072  1
  Se  Se235  1  0.91729456  0.08226087  0.18977133  1
  Se  Se236  1  0.91374769  0.07778039  0.68948454  1
  Se  Se237  1  0.92394027  0.40442963  0.19523022  1
  Se  Se238  1  0.90867517  0.42212983  0.69143466  1
  Se  Se239  1  0.90650879  0.75308750  0.19632945  1
  Se  Se240  1  0.92800335  0.74975019  0.69766773  1
  Se  Se241  1  0.09144063  0.24745883  0.19990357  1
  Se  Se242  1  0.08317504  0.23974171  0.67884795  1
  Se  Se243  1  0.08433817  0.57953101  0.18680063  1
  Se  Se244  1  0.08592984  0.58503678  0.70340709  1
  Se  Se245  1  0.09103596  0.90615972  0.19549996  1
  Se  Se246  1  0.08585935  0.91902425  0.69402839  1
  Se  Se247  1  0.43087985  0.24312621  0.19144082  1
  Se  Se248  1  0.40924440  0.25228794  0.69380322  1
  Se  Se249  1  0.40993095  0.58511976  0.19418055  1
  Se  Se250  1  0.41563487  0.59631689  0.70370055  1
  Se  Se251  1  0.41671020  0.91694121  0.19830165  1
  Se  Se252  1  0.41747128  0.92171292  0.69259476  1
  Se  Se253  1  0.75949708  0.23586938  0.19071035  1
  Se  Se254  1  0.74384355  0.23608269  0.68626972  1
  Se  Se255  1  0.75932226  0.56734747  0.19392032  1
  Se  Se256  1  0.75229509  0.57973203  0.68775934  1
  Se  Se257  1  0.74445239  0.91977795  0.19839931  1
  Se  Se258  1  0.76071480  0.91106247  0.68743828  1
