# generated using pymatgen
data_In86Cu29Se144
_symmetry_space_group_name_H-M   'P 1'
_cell_length_a   17.58139904
_cell_length_b   17.57946874
_cell_length_c   23.44763298
_cell_angle_alpha   89.97407474
_cell_angle_beta   89.97794358
_cell_angle_gamma   89.97918796
_symmetry_Int_Tables_number   1
_chemical_formula_structural   In86Cu29Se144
_chemical_formula_sum   'In86 Cu29 Se144'
_cell_volume   7246.99697183
_cell_formula_units_Z   1
loop_
 _symmetry_equiv_pos_site_id
 _symmetry_equiv_pos_as_xyz
  1  'x, y, z'
loop_
 _atom_site_type_symbol
 _atom_site_label
 _atom_site_symmetry_multiplicity
 _atom_site_fract_x
 _atom_site_fract_y
 _atom_site_fract_z
 _atom_site_occupancy
  In  In0  1  -0.00063890  0.16657176  0.12542249  1
  In  In1  1  -0.00530995  0.17680669  0.62143097  1
  In  In2  1  -0.01282891  0.48588588  0.11530094  1
  In  In3  1  -0.01670322  0.50323076  0.62089761  1
  In  In4  1  0.00443081  0.84204948  0.13109755  1
  In  In5  1  -0.00204052  0.81996462  0.60688726  1
  In  In6  1  0.33258284  0.17930177  0.12123024  1
  In  In7  1  0.34185754  0.15218560  0.63648050  1
  In  In8  1  0.34440383  0.50220892  0.11606280  1
  In  In9  1  0.34274119  0.49408314  0.63272957  1
  In  In10  1  0.32995660  0.81733970  0.12630167  1
  In  In11  1  0.33350291  0.83471538  0.62776172  1
  In  In12  1  0.67471256  0.15028449  0.13820236  1
  In  In13  1  0.66182622  0.15819904  0.61992082  1
  In  In14  1  0.65424365  0.49084761  0.11979020  1
  In  In15  1  0.67778966  0.51218162  0.62286580  1
  In  In16  1  0.66604684  0.84633744  0.12885832  1
  In  In17  1  0.66972378  0.82615313  0.62969737  1
  In  In18  1  0.15448093  0.00627377  0.37382060  1
  In  In19  1  0.16793040  0.00093458  0.87833068  1
  In  In20  1  0.16054249  0.34656358  0.36944724  1
  In  In21  1  0.17415354  0.32294586  0.87919930  1
  In  In22  1  0.18288385  0.66687506  0.37751201  1
  In  In23  1  0.16532097  0.65286909  0.87348982  1
  In  In24  1  0.51976889  0.00191366  0.36696468  1
  In  In25  1  0.49231024  -0.00980791  0.87106875  1
  In  In26  1  0.51536044  0.32380517  0.38642487  1
  In  In27  1  0.49655599  0.34776265  0.87845587  1
  In  In28  1  0.47720349  0.66773474  0.37779849  1
  In  In29  1  0.49961248  0.66738858  0.87272154  1
  In  In30  1  0.83375217  0.00623007  0.37679391  1
  In  In31  1  0.83287301  0.01374594  0.87473762  1
  In  In32  1  0.82791895  0.33244720  0.37217698  1
  In  In33  1  0.83076556  0.33157327  0.88428860  1
  In  In34  1  0.84155179  0.66487324  0.39064203  1
  In  In35  1  0.81895680  0.66237873  0.87112463  1
  In  In36  1  -0.01141168  0.15843936  0.36542203  1
  In  In37  1  -0.00553042  0.16160456  0.88878676  1
  In  In38  1  -0.00334304  0.48709803  0.36897238  1
  In  In39  1  0.00142275  0.49972108  0.88363846  1
  In  In40  1  -0.00994679  0.84343426  0.38635508  1
  In  In41  1  0.00710375  0.84106796  0.87895208  1
  In  In42  1  0.34213750  0.17600303  0.37950017  1
  In  In43  1  0.31933390  0.15653776  0.86104377  1
  In  In44  1  0.33313269  0.51462021  0.37637079  1
  In  In45  1  0.33345749  0.50057054  0.86992644  1
  In  In46  1  0.34173435  0.81322207  0.37998385  1
  In  In47  1  0.33979998  0.84490107  0.86809967  1
  In  In48  1  0.66602332  0.17246966  0.37123177  1
  In  In49  1  0.67980204  0.16696731  0.87587918  1
  In  In50  1  0.67415015  0.49224154  0.38062632  1
  In  In51  1  0.65981009  0.50141318  0.88037018  1
  In  In52  1  0.66683560  0.85098140  0.37298540  1
  In  In53  1  0.65582866  0.82162257  0.86729563  1
  In  In54  1  0.15291300  0.00501189  0.12551156  1
  In  In55  1  0.18399897  -0.00606539  0.62926681  1
  In  In56  1  0.15637936  0.32168602  0.11526317  1
  In  In57  1  0.16984304  0.33942821  0.62830960  1
  In  In58  1  0.18331126  0.66619048  0.12197529  1
  In  In59  1  0.16856466  0.68015898  0.62168965  1
  In  In60  1  0.51631055  -0.00233149  0.12657361  1
  In  In61  1  0.49746735  0.00299524  0.62989732  1
  In  In62  1  0.49765348  0.34118444  0.12751652  1
  In  In63  1  0.50114080  0.32571989  0.62131373  1
  In  In64  1  0.49358753  0.65933410  0.12069448  1
  In  In65  1  0.50532781  0.66158537  0.62939534  1
  In  In66  1  0.82891671  0.00677164  0.13078533  1
  In  In67  1  0.82696193  -0.00943527  0.61925308  1
  In  In68  1  0.83086742  0.33046076  0.12792684  1
  In  In69  1  0.83344837  0.33365359  0.61748306  1
  In  In70  1  0.83936325  0.66024562  0.12496278  1
  In  In71  1  0.81899124  0.65300020  0.61023750  1
  In  In72  1  0.33890588  -0.00324105  0.25394979  1
  In  In73  1  0.16221849  0.50362636  0.50283238  1
  In  In74  1  0.00463769  -0.00133304  0.75278210  1
  In  In75  1  0.66334946  0.33562811  0.75636296  1
  In  In76  1  0.16835268  0.83595709  -0.00275142  1
  In  In77  1  0.00555512  0.66628468  0.25187008  1
  In  In78  1  0.50426480  0.83535242  0.49731583  1
  In  In79  1  -0.00239769  0.66408635  0.74365703  1
  In  In80  1  0.82980070  0.83088905  0.00341179  1
  In  In81  1  0.50156151  0.17016350  0.00163442  1
  In  In82  1  0.16514746  0.16593796  0.50255261  1
  In  In83  1  0.00420056  0.33173847  0.74518851  1
  In  In84  1  0.66165871  0.67240486  0.25692449  1
  In  In85  1  0.33439483  0.33896089  0.24672388  1
  Cu  Cu86  1  0.34017658  0.33565896  0.50510256  1
  Cu  Cu87  1  -0.01171251  0.32922562  0.49227035  1
  Cu  Cu88  1  0.50215181  0.50417459  0.75256474  1
  Cu  Cu89  1  0.33161778  0.33754566  -0.00434091  1
  Cu  Cu90  1  0.66043344  0.66285314  -0.00479165  1
  Cu  Cu91  1  0.67254300  0.00724645  0.49627829  1
  Cu  Cu92  1  0.16408752  0.50078894  0.24490125  1
  Cu  Cu93  1  0.67387060  0.32996247  0.00405535  1
  Cu  Cu94  1  0.66404801  0.66847051  0.50173069  1
  Cu  Cu95  1  -0.00141168  0.00068627  0.49661011  1
  Cu  Cu96  1  0.16783763  0.83512671  0.25070551  1
  Cu  Cu97  1  0.17152926  0.83514316  0.74773663  1
  Cu  Cu98  1  0.66768604  0.33616381  0.49950237  1
  Cu  Cu99  1  0.49908999  0.83377300  0.74783001  1
  Cu  Cu100  1  0.82517752  0.83386090  0.74511187  1
  Cu  Cu101  1  0.33457893  -0.00050730  -0.00540048  1
  Cu  Cu102  1  0.17297352  0.49976437  0.74939842  1
  Cu  Cu103  1  0.49656341  0.50193282  0.24895007  1
  Cu  Cu104  1  0.49909257  0.16547794  0.74650052  1
  Cu  Cu105  1  0.33959047  0.66224843  -0.00462165  1
  Cu  Cu106  1  0.16203217  0.16936480  0.24547234  1
  Cu  Cu107  1  0.66875639  -0.00249886  0.00232705  1
  Cu  Cu108  1  0.82563262  0.49349063  0.24755442  1
  Cu  Cu109  1  0.83098917  0.16645337  0.75121191  1
  Cu  Cu110  1  0.83465605  0.16993478  0.25152966  1
  Cu  Cu111  1  -0.00184467  0.33410319  0.00333898  1
  Cu  Cu112  1  0.34035110  -0.00123272  0.50624734  1
  Cu  Cu113  1  0.83350043  0.84512387  0.25757942  1
  Cu  Cu114  1  -0.00113598  0.66283662  0.00088009  1
  Se  Se115  1  0.09266970  0.09753818  0.05541175  1
  Se  Se116  1  0.07790879  0.07358144  0.56375288  1
  Se  Se117  1  0.08710487  0.42003527  0.05008852  1
  Se  Se118  1  0.06962509  0.40411382  0.55697800  1
  Se  Se119  1  0.07650723  0.74556759  0.06035888  1
  Se  Se120  1  0.09129448  0.74581881  0.54345544  1
  Se  Se121  1  0.41258833  0.07570085  0.06067445  1
  Se  Se122  1  0.42109541  0.08583899  0.55658508  1
  Se  Se123  1  0.42200541  0.41260299  0.04887012  1
  Se  Se124  1  0.42251686  0.41949775  0.55748260  1
  Se  Se125  1  0.41506781  0.74868777  0.05203943  1
  Se  Se126  1  0.41798571  0.74699730  0.55950754  1
  Se  Se127  1  0.74823292  0.08273575  0.05614859  1
  Se  Se128  1  0.75643033  0.08695160  0.55291923  1
  Se  Se129  1  0.75257974  0.41808117  0.05736415  1
  Se  Se130  1  0.75044847  0.42022122  0.55344475  1
  Se  Se131  1  0.73789706  0.73907237  0.06215159  1
  Se  Se132  1  0.74722141  0.75667592  0.55094468  1
  Se  Se133  1  0.25067352  0.25004274  0.04738111  1
  Se  Se134  1  0.25786974  0.25319593  0.56215735  1
  Se  Se135  1  0.25380884  0.58136816  0.04913885  1
  Se  Se136  1  0.25739127  0.58361896  0.56339843  1
  Se  Se137  1  0.25605694  0.92331113  0.06177537  1
  Se  Se138  1  0.25408628  0.91376174  0.55312876  1
  Se  Se139  1  0.59234540  0.25198736  0.06573555  1
  Se  Se140  1  0.58687724  0.24826636  0.55213384  1
  Se  Se141  1  0.57818306  0.57947146  0.05163161  1
  Se  Se142  1  0.58348717  0.58352243  0.55515307  1
  Se  Se143  1  0.58379180  0.91243550  0.05083214  1
  Se  Se144  1  0.59224329  0.92564115  0.55822431  1
  Se  Se145  1  0.91511136  0.25098001  0.05759528  1
  Se  Se146  1  0.90910713  0.24504787  0.54816619  1
  Se  Se147  1  0.91084431  0.58041672  0.05016094  1
  Se  Se148  1  0.92743623  0.59609095  0.54892549  1
  Se  Se149  1  0.92007632  0.92225370  0.06047866  1
  Se  Se150  1  0.91536084  0.91648921  0.54999076  1
  Se  Se151  1  0.07894334  0.25429477  0.43678058  1
  Se  Se152  1  0.08060441  0.25249317  0.94729001  1
  Se  Se153  1  0.07752719  0.58365890  0.43261783  1
  Se  Se154  1  0.08716387  0.58220429  0.95039211  1
  Se  Se155  1  0.08860674  0.92033094  0.44802154  1
  Se  Se156  1  0.07051078  0.93391302  0.95198954  1
  Se  Se157  1  0.42192628  0.24894677  0.45339820  1
  Se  Se158  1  0.40913721  0.25048028  0.93682748  1
  Se  Se159  1  0.41217246  0.58303752  0.45232915  1
  Se  Se160  1  0.42025892  0.57828389  0.94030687  1
  Se  Se161  1  0.41618488  0.92686034  0.43583126  1
  Se  Se162  1  0.41837207  0.91216323  0.94781534  1
  Se  Se163  1  0.74838184  0.25119630  0.44410771  1
  Se  Se164  1  0.75399900  0.24265035  0.95228708  1
  Se  Se165  1  0.74824480  0.58247114  0.44968566  1
  Se  Se166  1  0.75026584  0.58125033  0.94752948  1
  Se  Se167  1  0.75352677  0.91882026  0.44608190  1
  Se  Se168  1  0.74356277  0.91654205  0.93734891  1
  Se  Se169  1  0.25932204  0.07754046  0.44251057  1
  Se  Se170  1  0.25191159  0.08517935  0.94483133  1
  Se  Se171  1  0.25509159  0.40934429  0.44375972  1
  Se  Se172  1  0.24911482  0.42071815  0.94118892  1
  Se  Se173  1  0.25336515  0.74812101  0.45175827  1
  Se  Se174  1  0.25575787  0.74444172  0.93707211  1
  Se  Se175  1  0.58570976  0.08596440  0.44276376  1
  Se  Se176  1  0.58792401  0.07717759  0.94013510  1
  Se  Se177  1  0.58188290  0.42319868  0.45146440  1
  Se  Se178  1  0.58781639  0.41115183  0.95095264  1
  Se  Se179  1  0.59074744  0.74403634  0.43425065  1
  Se  Se180  1  0.57928564  0.75077090  0.94545689  1
  Se  Se181  1  0.91757346  0.08905538  0.44681485  1
  Se  Se182  1  0.90722170  0.08109582  0.95296141  1
  Se  Se183  1  0.90970464  0.41933546  0.44208621  1
  Se  Se184  1  0.91512456  0.41709184  0.94899545  1
  Se  Se185  1  0.92204212  0.75082057  0.45419231  1
  Se  Se186  1  0.92222562  0.74383076  0.93867762  1
  Se  Se187  1  0.24297669  0.24540988  0.30821940  1
  Se  Se188  1  0.25538640  0.26098688  0.80052654  1
  Se  Se189  1  0.24677635  0.58042176  0.30071972  1
  Se  Se190  1  0.25324263  0.58803414  0.79997081  1
  Se  Se191  1  0.24637790  0.91160965  0.31539532  1
  Se  Se192  1  0.24549191  0.92235288  0.80462953  1
  Se  Se193  1  0.58327222  0.25813732  0.30433028  1
  Se  Se194  1  0.57330544  0.24202560  0.81435229  1
  Se  Se195  1  0.57534854  0.57690629  0.31473778  1
  Se  Se196  1  0.58787356  0.58443615  0.80602077  1
  Se  Se197  1  0.57929013  0.90692834  0.29661619  1
  Se  Se198  1  0.58307868  0.91715947  0.80204615  1
  Se  Se199  1  0.91793267  0.25683301  0.30235215  1
  Se  Se200  1  0.91294018  0.24486461  0.81011231  1
  Se  Se201  1  0.90415408  0.57946868  0.30556032  1
  Se  Se202  1  0.91432233  0.57585039  0.80912193  1
  Se  Se203  1  0.92210775  0.92399477  0.30878975  1
  Se  Se204  1  0.90714317  0.90754511  0.80868225  1
  Se  Se205  1  0.08082272  0.08363648  0.29820367  1
  Se  Se206  1  0.08574035  0.09521529  0.81181916  1
  Se  Se207  1  0.07900551  0.41576602  0.29367954  1
  Se  Se208  1  0.08846037  0.42327902  0.80872460  1
  Se  Se209  1  0.08812674  0.75747383  0.31482535  1
  Se  Se210  1  0.08756107  0.75636764  0.80720622  1
  Se  Se211  1  0.42522045  0.09526252  0.30837991  1
  Se  Se212  1  0.41826351  0.08018365  0.80216488  1
  Se  Se213  1  0.42040459  0.42123850  0.31385499  1
  Se  Se214  1  0.41812209  0.41659537  0.80097862  1
  Se  Se215  1  0.41747337  0.75036094  0.29944172  1
  Se  Se216  1  0.41627359  0.75166868  0.80403928  1
  Se  Se217  1  0.75155674  0.08583700  0.30576738  1
  Se  Se218  1  0.74609412  0.08092166  0.80014775  1
  Se  Se219  1  0.74202401  0.41318752  0.30229915  1
  Se  Se220  1  0.75812521  0.42272241  0.81223577  1
  Se  Se221  1  0.76301163  0.75393466  0.31524468  1
  Se  Se222  1  0.74691996  0.74687734  0.79910513  1
  Se  Se223  1  0.24999436  0.08995636  0.19165268  1
  Se  Se224  1  0.24522868  0.08335162  0.70127159  1
  Se  Se225  1  0.24326559  0.42090867  0.18229742  1
  Se  Se226  1  0.25470593  0.41226288  0.69929291  1
  Se  Se227  1  0.24769977  0.74601927  0.20149365  1
  Se  Se228  1  0.25252864  0.74817888  0.69697707  1
  Se  Se229  1  0.57925328  0.07951410  0.20296938  1
  Se  Se230  1  0.58640322  0.08313126  0.69686801  1
  Se  Se231  1  0.58151972  0.41728988  0.19938533  1
  Se  Se232  1  0.58131416  0.42405826  0.68998453  1
  Se  Se233  1  0.57652257  0.75272276  0.18839575  1
  Se  Se234  1  0.58411238  0.74805693  0.69800971  1
  Se  Se235  1  0.91754986  0.08542093  0.19730243  1
  Se  Se236  1  0.91283582  0.08716234  0.69106586  1
  Se  Se237  1  0.91562933  0.41575713  0.19614147  1
  Se  Se238  1  0.90454282  0.42150953  0.69523650  1
  Se  Se239  1  0.90782495  0.75948918  0.19604972  1
  Se  Se240  1  0.90984838  0.75765967  0.68657972  1
  Se  Se241  1  0.07940239  0.25510557  0.19501386  1
  Se  Se242  1  0.09551869  0.23627814  0.69201065  1
  Se  Se243  1  0.08428683  0.57914711  0.18220127  1
  Se  Se244  1  0.09043698  0.57248526  0.68525462  1
  Se  Se245  1  0.08420909  0.92140399  0.20197843  1
  Se  Se246  1  0.08257978  0.90453826  0.68638640  1
  Se  Se247  1  0.42618206  0.24113667  0.19540930  1
  Se  Se248  1  0.41858250  0.25257472  0.69546015  1
  Se  Se249  1  0.41220261  0.58213537  0.19467993  1
  Se  Se250  1  0.41693621  0.58677178  0.69978788  1
  Se  Se251  1  0.41977465  0.90910763  0.18736894  1
  Se  Se252  1  0.41438992  0.91858138  0.69661217  1
  Se  Se253  1  0.74783742  0.25055315  0.19863543  1
  Se  Se254  1  0.75191410  0.24816019  0.69146840  1
  Se  Se255  1  0.74755996  0.58076690  0.19201298  1
  Se  Se256  1  0.75691940  0.58799541  0.69593411  1
  Se  Se257  1  0.74883653  0.92142987  0.20039312  1
  Se  Se258  1  0.74414653  0.92213447  0.69529791  1
