# generated using pymatgen
data_In86Cu29Se144
_symmetry_space_group_name_H-M   'P 1'
_cell_length_a   17.57003475
_cell_length_b   17.57288908
_cell_length_c   23.43549132
_cell_angle_alpha   89.96213432
_cell_angle_beta   89.98506362
_cell_angle_gamma   90.00639774
_symmetry_Int_Tables_number   1
_chemical_formula_structural   In86Cu29Se144
_chemical_formula_sum   'In86 Cu29 Se144'
_cell_volume   7235.85305696
_cell_formula_units_Z   1
loop_
 _symmetry_equiv_pos_site_id
 _symmetry_equiv_pos_as_xyz
  1  'x, y, z'
loop_
 _atom_site_type_symbol
 _atom_site_label
 _atom_site_symmetry_multiplicity
 _atom_site_fract_x
 _atom_site_fract_y
 _atom_site_fract_z
 _atom_site_occupancy
  In  In0  1  -0.00056843  0.18387604  0.12851957  1
  In  In1  1  -0.00535673  0.15915539  0.61518363  1
  In  In2  1  -0.01078351  0.49244037  0.11627786  1
  In  In3  1  0.01339086  0.50731960  0.62799642  1
  In  In4  1  0.00476839  0.82246780  0.12229759  1
  In  In5  1  0.01230359  0.81398820  0.62864734  1
  In  In6  1  0.34926046  0.16941956  0.12432436  1
  In  In7  1  0.33825372  0.16965735  0.62333816  1
  In  In8  1  0.32709447  0.49390579  0.11507074  1
  In  In9  1  0.36139060  0.48755497  0.64938426  1
  In  In10  1  0.33027497  0.83908490  0.10528856  1
  In  In11  1  0.33808382  0.83807257  0.63138969  1
  In  In12  1  0.66747037  0.16350924  0.13106710  1
  In  In13  1  0.67505727  0.17724584  0.61746503  1
  In  In14  1  0.66767759  0.49549878  0.12439172  1
  In  In15  1  0.64059315  0.49769253  0.62844387  1
  In  In16  1  0.65640116  0.84468776  0.13515234  1
  In  In17  1  0.66349541  0.84664087  0.62205863  1
  In  In18  1  0.16923880  -0.00470056  0.38438385  1
  In  In19  1  0.18475537  -0.01477658  0.88226303  1
  In  In20  1  0.16037767  0.32858123  0.36826342  1
  In  In21  1  0.18455331  0.33545411  0.87217089  1
  In  In22  1  0.17603705  0.66513563  0.38166486  1
  In  In23  1  0.17242710  0.66764161  0.87254146  1
  In  In24  1  0.50718988  -0.00445535  0.38268279  1
  In  In25  1  0.48575167  -0.00258658  0.86928524  1
  In  In26  1  0.49935637  0.33478548  0.37520167  1
  In  In27  1  0.51688712  0.34554503  0.83952458  1
  In  In28  1  0.50451523  0.65709166  0.38499662  1
  In  In29  1  0.48776017  0.67100428  0.87872457  1
  In  In30  1  0.83009931  0.00816056  0.37274447  1
  In  In31  1  0.83644708  0.01291032  0.88196102  1
  In  In32  1  0.82315114  0.32314222  0.36450363  1
  In  In33  1  0.81768601  0.34921274  0.89229105  1
  In  In34  1  0.82136898  0.67911633  0.37373563  1
  In  In35  1  0.82647363  0.64769731  0.87670605  1
  In  In36  1  -0.00875568  0.16782757  0.38207383  1
  In  In37  1  -0.00860275  0.16347089  0.87688689  1
  In  In38  1  0.01166253  0.49486520  0.37158412  1
  In  In39  1  -0.00619314  0.51017835  0.87823802  1
  In  In40  1  0.00053715  0.83685857  0.38017274  1
  In  In41  1  0.01917163  0.83285263  0.87695102  1
  In  In42  1  0.32618484  0.17519823  0.38471646  1
  In  In43  1  0.35308958  0.17227523  0.85322782  1
  In  In44  1  0.34593156  0.50033839  0.37685196  1
  In  In45  1  0.33933025  0.49393479  0.87539344  1
  In  In46  1  0.33349051  0.83345251  0.38676193  1
  In  In47  1  0.34529194  0.82525948  0.86904195  1
  In  In48  1  0.66506902  0.16971189  0.37553122  1
  In  In49  1  0.65028773  0.20934913  0.88512648  1
  In  In50  1  0.65781826  0.49042795  0.36511082  1
  In  In51  1  0.66742929  0.48994740  0.88407682  1
  In  In52  1  0.65694680  0.82123259  0.36203778  1
  In  In53  1  0.65400996  0.82579914  0.87892420  1
  In  In54  1  0.17484120  -0.01518843  0.12172279  1
  In  In55  1  0.17739959  0.00982516  0.61738999  1
  In  In56  1  0.15920378  0.33918178  0.12890338  1
  In  In57  1  0.18113577  0.33219262  0.62448696  1
  In  In58  1  0.16849859  0.66991328  0.11292408  1
  In  In59  1  0.16952897  0.67432837  0.62854341  1
  In  In60  1  0.50744478  0.00595929  0.12161363  1
  In  In61  1  0.48842935  -0.00696563  0.61868220  1
  In  In62  1  0.49679624  0.33780784  0.12964567  1
  In  In63  1  0.50138756  0.33193992  0.62870101  1
  In  In64  1  0.50565848  0.67047756  0.11749181  1
  In  In65  1  0.48962336  0.66226311  0.62667109  1
  In  In66  1  0.80924748  -0.00265050  0.12903647  1
  In  In67  1  0.82313762  0.00866849  0.62274573  1
  In  In68  1  0.82942979  0.33644882  0.12413305  1
  In  In69  1  0.83079335  0.32131495  0.62217825  1
  In  In70  1  0.83071381  0.65721645  0.12423727  1
  In  In71  1  0.83998192  0.67007252  0.62917396  1
  In  In72  1  -0.00632972  0.00386719  0.26179293  1
  In  In73  1  0.65843935  0.00615921  0.75623607  1
  In  In74  1  0.83197527  0.49861534  0.50123771  1
  In  In75  1  0.33948044  0.00488812  0.24838868  1
  In  In76  1  0.33471930  0.66228390  0.25075233  1
  In  In77  1  0.83399165  0.83212212  0.00736915  1
  In  In78  1  -0.00751606  0.65981214  0.24502765  1
  In  In79  1  0.00530000  0.00024667  0.75281458  1
  In  In80  1  0.17436674  0.50397002  0.50613620  1
  In  In81  1  0.16686728  0.16904249  -0.00735873  1
  In  In82  1  0.49853579  0.16597853  -0.00151858  1
  In  In83  1  0.00180479  0.33576066  0.74647208  1
  In  In84  1  0.83313760  0.83972269  0.49810287  1
  In  In85  1  0.66030442  0.66320018  0.75080130  1
  Cu  Cu86  1  0.50485351  0.17109064  0.25267476  1
  Cu  Cu87  1  0.33254908  0.67051835  0.50961663  1
  Cu  Cu88  1  -0.00103006  0.32585638  0.49497029  1
  Cu  Cu89  1  0.00006933  0.00861879  0.00180556  1
  Cu  Cu90  1  0.17561789  0.83125789  0.75299284  1
  Cu  Cu91  1  0.33735444  0.33355196  -0.00265193  1
  Cu  Cu92  1  0.83254229  0.17032476  0.25128019  1
  Cu  Cu93  1  0.00831041  0.67194588  -0.00407818  1
  Cu  Cu94  1  0.65753469  0.66818893  0.49945238  1
  Cu  Cu95  1  -0.00085437  0.34080881  0.00487284  1
  Cu  Cu96  1  0.17455792  0.17425654  0.25247326  1
  Cu  Cu97  1  0.84024237  0.83063875  0.75163439  1
  Cu  Cu98  1  0.65918871  0.33680119  0.49313637  1
  Cu  Cu99  1  0.00499712  -0.00841577  0.50144203  1
  Cu  Cu100  1  0.33432769  0.66219367  -0.00834622  1
  Cu  Cu101  1  0.83020595  0.49677782  0.75614545  1
  Cu  Cu102  1  0.82397969  0.17713548  0.75297542  1
  Cu  Cu103  1  0.33789340  0.33420189  0.50687701  1
  Cu  Cu104  1  0.65903216  0.65897788  0.00003143  1
  Cu  Cu105  1  0.50365386  0.49964561  0.25060971  1
  Cu  Cu106  1  0.16703651  0.82731725  0.25029974  1
  Cu  Cu107  1  0.49967819  0.83140410  0.24963551  1
  Cu  Cu108  1  0.33603153  0.00043316  0.50580038  1
  Cu  Cu109  1  0.17002502  0.15946727  0.74692064  1
  Cu  Cu110  1  0.65861759  0.00088856  0.00218082  1
  Cu  Cu111  1  0.83135568  0.49715670  0.24321278  1
  Cu  Cu112  1  0.66287528  0.00860835  0.50003790  1
  Cu  Cu113  1  0.16921342  0.51111730  0.75191088  1
  Cu  Cu114  1  0.16656297  0.48870277  0.24150060  1
  Se  Se115  1  0.08286211  0.08426620  0.06409193  1
  Se  Se116  1  0.08521074  0.08329779  0.54966358  1
  Se  Se117  1  0.08961349  0.42150860  0.05300051  1
  Se  Se118  1  0.07657986  0.40624141  0.55714679  1
  Se  Se119  1  0.08978906  0.75969517  0.04608732  1
  Se  Se120  1  0.08838258  0.74420920  0.55220012  1
  Se  Se121  1  0.40501452  0.06955287  0.05227607  1
  Se  Se122  1  0.42023045  0.08980031  0.55140860  1
  Se  Se123  1  0.42127440  0.41444055  0.05279041  1
  Se  Se124  1  0.41816249  0.42055175  0.56020197  1
  Se  Se125  1  0.41450090  0.74494251  0.04941833  1
  Se  Se126  1  0.41894959  0.75574264  0.55854281  1
  Se  Se127  1  0.74325821  0.08290731  0.05469499  1
  Se  Se128  1  0.75404175  0.08957363  0.54748163  1
  Se  Se129  1  0.75994393  0.42727680  0.05423550  1
  Se  Se130  1  0.73706000  0.41295583  0.56025308  1
  Se  Se131  1  0.73630970  0.74451432  0.06100877  1
  Se  Se132  1  0.74327095  0.74370799  0.55899152  1
  Se  Se133  1  0.25656452  0.25405035  0.05855139  1
  Se  Se134  1  0.24913399  0.24701272  0.55105914  1
  Se  Se135  1  0.24905881  0.58259482  0.04812916  1
  Se  Se136  1  0.26605836  0.58059929  0.57213129  1
  Se  Se137  1  0.24589149  0.92167443  0.04016973  1
  Se  Se138  1  0.25328418  0.91284922  0.55640605  1
  Se  Se139  1  0.58697437  0.25316348  0.06122870  1
  Se  Se140  1  0.58170678  0.25469704  0.55341838  1
  Se  Se141  1  0.57834754  0.57299316  0.05411799  1
  Se  Se142  1  0.57582776  0.58563977  0.55449099  1
  Se  Se143  1  0.57982778  0.91276798  0.05428988  1
  Se  Se144  1  0.58168467  0.91940848  0.54932157  1
  Se  Se145  1  0.91679680  0.25389053  0.05470527  1
  Se  Se146  1  0.91263138  0.24657160  0.54947320  1
  Se  Se147  1  0.92265309  0.59381365  0.05212987  1
  Se  Se148  1  0.92554695  0.58957420  0.55707068  1
  Se  Se149  1  0.92254682  0.92824896  0.06564392  1
  Se  Se150  1  0.92433378  0.91946616  0.56783966  1
  Se  Se151  1  0.08772059  0.24671958  0.44326721  1
  Se  Se152  1  0.07457466  0.26459372  0.93675359  1
  Se  Se153  1  0.07661757  0.58755182  0.44531478  1
  Se  Se154  1  0.08784535  0.58540389  0.94262484  1
  Se  Se155  1  0.08877760  0.90710429  0.45056825  1
  Se  Se156  1  0.08212727  0.92505654  0.94900076  1
  Se  Se157  1  0.41917165  0.25372970  0.44784868  1
  Se  Se158  1  0.41488074  0.25568622  0.93482074  1
  Se  Se159  1  0.41108264  0.58528572  0.45233543  1
  Se  Se160  1  0.42136220  0.57406202  0.94697903  1
  Se  Se161  1  0.41879725  0.91721713  0.45033177  1
  Se  Se162  1  0.42295380  0.90842663  0.94136482  1
  Se  Se163  1  0.74920405  0.25405280  0.44496208  1
  Se  Se164  1  0.76511558  0.23481241  0.94865820  1
  Se  Se165  1  0.73972313  0.58736233  0.44100030  1
  Se  Se166  1  0.74823615  0.57631888  0.95256648  1
  Se  Se167  1  0.73783131  0.92187153  0.43797747  1
  Se  Se168  1  0.74302181  0.92028568  0.94235925  1
  Se  Se169  1  0.25126286  0.08087426  0.44951919  1
  Se  Se170  1  0.26555480  0.09233136  0.93279187  1
  Se  Se171  1  0.25551968  0.41058378  0.44209070  1
  Se  Se172  1  0.25031658  0.41824712  0.94829923  1
  Se  Se173  1  0.24864561  0.74951473  0.45297232  1
  Se  Se174  1  0.25447460  0.75166761  0.94071029  1
  Se  Se175  1  0.57959476  0.09238894  0.44681465  1
  Se  Se176  1  0.58813423  0.07931796  0.93357471  1
  Se  Se177  1  0.57769119  0.42511016  0.44426252  1
  Se  Se178  1  0.58460551  0.38503468  0.93253365  1
  Se  Se179  1  0.58128585  0.75702161  0.44469787  1
  Se  Se180  1  0.57649102  0.74611503  0.95016831  1
  Se  Se181  1  0.91849075  0.07220774  0.44757636  1
  Se  Se182  1  0.91368328  0.09251435  0.95504746  1
  Se  Se183  1  0.91983715  0.40974231  0.43717525  1
  Se  Se184  1  0.91761957  0.42556084  0.94968092  1
  Se  Se185  1  0.92137710  0.73951446  0.44525470  1
  Se  Se186  1  0.91836129  0.74722267  0.93771273  1
  Se  Se187  1  0.25936885  0.25540000  0.30536536  1
  Se  Se188  1  0.24906566  0.24897563  0.79764480  1
  Se  Se189  1  0.23973195  0.56953713  0.30695263  1
  Se  Se190  1  0.25824341  0.58336545  0.80778624  1
  Se  Se191  1  0.24823805  0.91009828  0.30753986  1
  Se  Se192  1  0.25930155  0.91580011  0.80367900  1
  Se  Se193  1  0.58642282  0.25615654  0.30592556  1
  Se  Se194  1  0.56830680  0.21990844  0.79609055  1
  Se  Se195  1  0.58044868  0.58911735  0.30451850  1
  Se  Se196  1  0.57947881  0.57617344  0.81708820  1
  Se  Se197  1  0.57774001  0.92011672  0.30300361  1
  Se  Se198  1  0.57343778  0.90103623  0.80369261  1
  Se  Se199  1  0.92292093  0.24764772  0.30380442  1
  Se  Se200  1  0.90973651  0.25451584  0.81101968  1
  Se  Se201  1  0.90563622  0.57360870  0.31222153  1
  Se  Se202  1  0.91517960  0.58463194  0.80155929  1
  Se  Se203  1  0.90408774  0.90233273  0.30983664  1
  Se  Se204  1  0.91224085  0.91270021  0.81515287  1
  Se  Se205  1  0.09635709  0.09037065  0.31224292  1
  Se  Se206  1  0.09502966  0.08746153  0.81524843  1
  Se  Se207  1  0.08002271  0.41153175  0.29729510  1
  Se  Se208  1  0.08920440  0.42435026  0.80949318  1
  Se  Se209  1  0.08701443  0.74707865  0.30899793  1
  Se  Se210  1  0.08632615  0.74967490  0.80214353  1
  Se  Se211  1  0.42281197  0.09159437  0.31403375  1
  Se  Se212  1  0.42014841  0.07296225  0.78857137  1
  Se  Se213  1  0.41726129  0.41798420  0.30326006  1
  Se  Se214  1  0.39417845  0.40014917  0.79941396  1
  Se  Se215  1  0.41970219  0.75479715  0.31221534  1
  Se  Se216  1  0.41321750  0.73324351  0.79622052  1
  Se  Se217  1  0.74726700  0.08719332  0.30352582  1
  Se  Se218  1  0.74961343  0.09564277  0.81513410  1
  Se  Se219  1  0.74768654  0.41438952  0.29849034  1
  Se  Se220  1  0.74793382  0.41343269  0.80765847  1
  Se  Se221  1  0.74739259  0.74658263  0.29572069  1
  Se  Se222  1  0.75579225  0.75412484  0.81124831  1
  Se  Se223  1  0.24315113  0.09060727  0.18803054  1
  Se  Se224  1  0.25589441  0.08168196  0.69276438  1
  Se  Se225  1  0.25855605  0.41156187  0.19231073  1
  Se  Se226  1  0.24355824  0.42272708  0.69660059  1
  Se  Se227  1  0.24985866  0.75575781  0.18751624  1
  Se  Se228  1  0.25735004  0.74835206  0.69805788  1
  Se  Se229  1  0.58062948  0.08125723  0.19851323  1
  Se  Se230  1  0.58600150  0.08330571  0.67845211  1
  Se  Se231  1  0.58583886  0.41519026  0.19728818  1
  Se  Se232  1  0.57892986  0.41346701  0.70375982  1
  Se  Se233  1  0.57932118  0.74549107  0.19558930  1
  Se  Se234  1  0.58104577  0.75843277  0.68840233  1
  Se  Se235  1  0.91156094  0.08740306  0.19065483  1
  Se  Se236  1  0.90695573  0.09251443  0.69719832  1
  Se  Se237  1  0.91923139  0.41470282  0.19417561  1
  Se  Se238  1  0.90861311  0.42559483  0.68677985  1
  Se  Se239  1  0.90560738  0.75907658  0.19107008  1
  Se  Se240  1  0.92251454  0.74581723  0.70109899  1
  Se  Se241  1  0.08522065  0.25325882  0.20121222  1
  Se  Se242  1  0.08524860  0.23739551  0.68785966  1
  Se  Se243  1  0.09062353  0.57856952  0.18542822  1
  Se  Se244  1  0.08429019  0.59215759  0.69926846  1
  Se  Se245  1  0.08400309  0.91267309  0.19690212  1
  Se  Se246  1  0.09466087  0.91287459  0.69162139  1
  Se  Se247  1  0.41747053  0.25064978  0.19977368  1
  Se  Se248  1  0.39930399  0.26594337  0.69282665  1
  Se  Se249  1  0.42168720  0.57608185  0.18758664  1
  Se  Se250  1  0.42010011  0.59613131  0.71074164  1
  Se  Se251  1  0.41828816  0.90694176  0.18664098  1
  Se  Se252  1  0.41454900  0.92832048  0.69958799  1
  Se  Se253  1  0.75009742  0.25191435  0.19527125  1
  Se  Se254  1  0.74313872  0.25810551  0.69716054  1
  Se  Se255  1  0.74627976  0.58326483  0.19555140  1
  Se  Se256  1  0.75260963  0.57385776  0.68888845  1
  Se  Se257  1  0.74677089  0.91479072  0.20457712  1
  Se  Se258  1  0.75884705  0.91362757  0.69715848  1
