# generated using pymatgen
data_In86Cu29Se144
_symmetry_space_group_name_H-M   'P 1'
_cell_length_a   17.53815180
_cell_length_b   17.53588541
_cell_length_c   23.39323832
_cell_angle_alpha   89.99416856
_cell_angle_beta   89.96187841
_cell_angle_gamma   89.99275397
_symmetry_Int_Tables_number   1
_chemical_formula_structural   In86Cu29Se144
_chemical_formula_sum   'In86 Cu29 Se144'
_cell_volume   7194.51905475
_cell_formula_units_Z   1
loop_
 _symmetry_equiv_pos_site_id
 _symmetry_equiv_pos_as_xyz
  1  'x, y, z'
loop_
 _atom_site_type_symbol
 _atom_site_label
 _atom_site_symmetry_multiplicity
 _atom_site_fract_x
 _atom_site_fract_y
 _atom_site_fract_z
 _atom_site_occupancy
  In  In0  1  -0.00966425  0.16895393  0.11944195  1
  In  In1  1  -0.00317399  0.15901651  0.62743034  1
  In  In2  1  -0.00493484  0.49934129  0.12303498  1
  In  In3  1  0.01069177  0.50720029  0.61902072  1
  In  In4  1  -0.00288765  0.83413582  0.13538280  1
  In  In5  1  -0.02025478  0.82621490  0.61603853  1
  In  In6  1  0.34381746  0.16126874  0.10702684  1
  In  In7  1  0.34193355  0.15222643  0.64176176  1
  In  In8  1  0.31393660  0.50174481  0.12149128  1
  In  In9  1  0.33456499  0.49859532  0.62753430  1
  In  In10  1  0.33661555  0.84550576  0.12325276  1
  In  In11  1  0.36457927  0.81460426  0.65192606  1
  In  In12  1  0.66521315  0.16327883  0.10549775  1
  In  In13  1  0.66499742  0.19356310  0.63365143  1
  In  In14  1  0.68740889  0.49609258  0.12445807  1
  In  In15  1  0.66990448  0.50655044  0.62800149  1
  In  In16  1  0.67197940  0.82627173  0.13574719  1
  In  In17  1  0.65232765  0.81729226  0.62169465  1
  In  In18  1  0.16492566  0.01311735  0.37063790  1
  In  In19  1  0.17743952  0.01313994  0.87625102  1
  In  In20  1  0.15956041  0.34246315  0.37747972  1
  In  In21  1  0.17755698  0.32944017  0.88887256  1
  In  In22  1  0.15459486  0.66333539  0.37576897  1
  In  In23  1  0.15279757  0.65542271  0.86300988  1
  In  In24  1  0.51130651  -0.01184242  0.38811324  1
  In  In25  1  0.49933972  0.01367231  0.87690368  1
  In  In26  1  0.49919751  0.33555380  0.38753347  1
  In  In27  1  0.49757052  0.32841671  0.86378348  1
  In  In28  1  0.51053925  0.65946707  0.38651366  1
  In  In29  1  0.50219088  0.66892308  0.85453658  1
  In  In30  1  0.82142215  -0.00482951  0.36492635  1
  In  In31  1  0.82836550  0.00576189  0.87951002  1
  In  In32  1  0.84322903  0.33092235  0.37267024  1
  In  In33  1  0.82783067  0.33395467  0.88576493  1
  In  In34  1  0.83219344  0.66698733  0.37832934  1
  In  In35  1  0.81537014  0.63399909  0.85065316  1
  In  In36  1  -0.00787433  0.16667756  0.35870269  1
  In  In37  1  -0.00680174  0.19153234  0.90058861  1
  In  In38  1  -0.00423430  0.50130852  0.37808748  1
  In  In39  1  -0.01033012  0.50241574  0.88643600  1
  In  In40  1  -0.01262415  0.81664890  0.36557776  1
  In  In41  1  0.00402137  0.82330372  0.87378779  1
  In  In42  1  0.33702039  0.17546776  0.37760219  1
  In  In43  1  0.33194280  0.16784324  0.87794560  1
  In  In44  1  0.33031390  0.50292434  0.38897500  1
  In  In45  1  0.33245979  0.49344456  0.86276102  1
  In  In46  1  0.34268989  0.84331666  0.38210414  1
  In  In47  1  0.34036713  0.84084779  0.85490929  1
  In  In48  1  0.66965105  0.15803601  0.37452469  1
  In  In49  1  0.65698745  0.17094496  0.88957647  1
  In  In50  1  0.66026766  0.50961937  0.38378765  1
  In  In51  1  0.67546453  0.49211504  0.86712154  1
  In  In52  1  0.67095573  0.83471349  0.38027672  1
  In  In53  1  0.66966138  0.82636426  0.87010043  1
  In  In54  1  0.16051501  -0.00479945  0.12332276  1
  In  In55  1  0.17281523  0.01060027  0.62683440  1
  In  In56  1  0.13085778  0.31167182  0.09093743  1
  In  In57  1  0.16233281  0.34966539  0.62944358  1
  In  In58  1  0.15127275  0.64623352  0.11649704  1
  In  In59  1  0.18052111  0.65842821  0.62973002  1
  In  In60  1  0.51008844  0.01681396  0.11804064  1
  In  In61  1  0.49492340  -0.00695825  0.62283806  1
  In  In62  1  0.51601613  0.31732058  0.12171620  1
  In  In63  1  0.50119358  0.33341779  0.62728555  1
  In  In64  1  0.50212724  0.68092304  0.12644935  1
  In  In65  1  0.50991731  0.66693367  0.62988128  1
  In  In66  1  0.82201900  0.00991229  0.13007929  1
  In  In67  1  0.84112970  -0.00352691  0.62313231  1
  In  In68  1  0.84537121  0.35530514  0.10079005  1
  In  In69  1  0.81052026  0.35007825  0.64361863  1
  In  In70  1  0.83946271  0.65898732  0.13140176  1
  In  In71  1  0.83174013  0.65971938  0.62791630  1
  In  In72  1  0.00252238  -0.00026032  0.75377442  1
  In  In73  1  0.32488045  0.33630307  0.24706571  1
  In  In74  1  0.33645494  -0.00039258  0.24730619  1
  In  In75  1  -0.00407385  0.34103304  0.76142369  1
  In  In76  1  0.50018657  0.83893315  -0.01035313  1
  In  In77  1  0.65954765  -0.00500322  0.75448043  1
  In  In78  1  0.83215895  0.83484773  -0.00569402  1
  In  In79  1  0.16784376  0.83720818  -0.00030257  1
  In  In80  1  0.82909072  0.17463324  0.50527281  1
  In  In81  1  0.67781932  0.32676798  0.24163829  1
  In  In82  1  0.17250366  0.17175961  0.49774182  1
  In  In83  1  0.17559600  0.83233776  0.50061543  1
  In  In84  1  0.49908726  0.49701265  -0.00625934  1
  In  In85  1  0.32888470  0.66645568  0.24986536  1
  Cu  Cu86  1  0.34101594  0.66433900  0.51199853  1
  Cu  Cu87  1  0.16584454  0.17547655  0.75975540  1
  Cu  Cu88  1  0.34273518  0.34035513  -0.00803501  1
  Cu  Cu89  1  0.66235986  0.34355259  0.50839638  1
  Cu  Cu90  1  0.17191723  0.49955354  0.75189978  1
  Cu  Cu91  1  0.50291032  0.50365868  0.25646691  1
  Cu  Cu92  1  0.83495846  0.83431457  0.25509340  1
  Cu  Cu93  1  0.67417410  0.65317663  -0.00393515  1
  Cu  Cu94  1  -0.00639639  -0.00787972  0.48920870  1
  Cu  Cu95  1  0.66528028  0.00409395  0.50164295  1
  Cu  Cu96  1  0.16399693  0.82727633  0.24514275  1
  Cu  Cu97  1  0.67154365  0.66930914  0.50453169  1
  Cu  Cu98  1  -0.00178315  0.66243014  0.49675335  1
  Cu  Cu99  1  0.83659067  0.16976438  0.23862169  1
  Cu  Cu100  1  0.00117053  0.00809536  0.00650006  1
  Cu  Cu101  1  0.15867866  0.83588447  0.74888973  1
  Cu  Cu102  1  0.50277142  0.17097540  0.75434772  1
  Cu  Cu103  1  0.51587748  0.83149247  0.25786606  1
  Cu  Cu104  1  0.14917311  0.49401664  0.24771824  1
  Cu  Cu105  1  0.50845407  0.49623020  0.74295736  1
  Cu  Cu106  1  0.83087019  0.82463975  0.74516884  1
  Cu  Cu107  1  0.34623589  -0.00660994  0.51325241  1
  Cu  Cu108  1  0.32489204  0.67088384  -0.01447338  1
  Cu  Cu109  1  0.83342151  0.50306784  0.25110090  1
  Cu  Cu110  1  0.50991230  0.16182095  0.24867426  1
  Cu  Cu111  1  -0.00592733  0.34084441  0.50323448  1
  Cu  Cu112  1  -0.01126736  0.65845360  -0.00375945  1
  Cu  Cu113  1  0.33569166  0.32847485  0.50716406  1
  Cu  Cu114  1  0.15346237  0.16952950  0.23835676  1
  Se  Se115  1  0.08825263  0.08775936  0.05704425  1
  Se  Se116  1  0.07456898  0.07427078  0.55016954  1
  Se  Se117  1  0.10384497  0.44849204  0.05725594  1
  Se  Se118  1  0.08863922  0.41909205  0.54950018  1
  Se  Se119  1  0.06752582  0.74705702  0.05380886  1
  Se  Se120  1  0.08204105  0.74151825  0.55794191  1
  Se  Se121  1  0.42363457  0.07493705  0.04181510  1
  Se  Se122  1  0.42015689  0.09160952  0.55887050  1
  Se  Se123  1  0.41512385  0.41287613  0.06480440  1
  Se  Se124  1  0.41849163  0.41639703  0.55779141  1
  Se  Se125  1  0.40495207  0.74608814  0.05125925  1
  Se  Se126  1  0.42256276  0.75219079  0.56170011  1
  Se  Se127  1  0.75571453  0.07561853  0.04670760  1
  Se  Se128  1  0.74008203  0.08379796  0.56676072  1
  Se  Se129  1  0.72569921  0.40232467  0.04704248  1
  Se  Se130  1  0.75382533  0.42128198  0.55738326  1
  Se  Se131  1  0.74602682  0.74068909  0.05697174  1
  Se  Se132  1  0.75510858  0.75145771  0.55889123  1
  Se  Se133  1  0.26274278  0.26174314  0.05341871  1
  Se  Se134  1  0.25404942  0.25160944  0.56999818  1
  Se  Se135  1  0.24949808  0.58822850  0.04527945  1
  Se  Se136  1  0.25098768  0.57736098  0.55377308  1
  Se  Se137  1  0.26265211  0.93318708  0.05127639  1
  Se  Se138  1  0.26046370  0.91503955  0.56958836  1
  Se  Se139  1  0.57670842  0.24420524  0.04000613  1
  Se  Se140  1  0.58162618  0.25047357  0.55381025  1
  Se  Se141  1  0.58551725  0.58690680  0.06061237  1
  Se  Se142  1  0.58595508  0.58462615  0.55611432  1
  Se  Se143  1  0.59079119  0.91036111  0.06181687  1
  Se  Se144  1  0.58489520  0.91718979  0.55600365  1
  Se  Se145  1  0.92146759  0.25398132  0.04445767  1
  Se  Se146  1  0.91891011  0.26175835  0.56863679  1
  Se  Se147  1  0.90578693  0.57813610  0.05292207  1
  Se  Se148  1  0.91566497  0.58219961  0.55458554  1
  Se  Se149  1  0.92111050  0.91914251  0.05988448  1
  Se  Se150  1  0.90853929  0.91514580  0.54506343  1
  Se  Se151  1  0.06601588  0.25127175  0.44222836  1
  Se  Se152  1  0.09368865  0.25885393  0.96318862  1
  Se  Se153  1  0.08586223  0.57744676  0.44880913  1
  Se  Se154  1  0.08592987  0.58582982  0.94707408  1
  Se  Se155  1  0.08343184  0.91598110  0.43427818  1
  Se  Se156  1  0.07327183  0.92558324  0.94044341  1
  Se  Se157  1  0.41903443  0.24484076  0.45277442  1
  Se  Se158  1  0.42308916  0.25254227  0.94140974  1
  Se  Se159  1  0.42134039  0.58109356  0.45361343  1
  Se  Se160  1  0.41553126  0.59236248  0.93248290  1
  Se  Se161  1  0.42644529  0.90848140  0.45803128  1
  Se  Se162  1  0.40049225  0.92487676  0.93718234  1
  Se  Se163  1  0.73866171  0.26346772  0.44203489  1
  Se  Se164  1  0.76239414  0.23288117  0.95079653  1
  Se  Se165  1  0.75300994  0.58380473  0.44993400  1
  Se  Se166  1  0.75664059  0.57197228  0.94123114  1
  Se  Se167  1  0.75231937  0.92409629  0.44745894  1
  Se  Se168  1  0.73100795  0.92320352  0.94274648  1
  Se  Se169  1  0.26525499  0.06981888  0.44639106  1
  Se  Se170  1  0.24176371  0.09864520  0.95002115  1
  Se  Se171  1  0.24984458  0.40799949  0.45017878  1
  Se  Se172  1  0.25862007  0.42974110  0.94625651  1
  Se  Se173  1  0.26345152  0.73640898  0.44072786  1
  Se  Se174  1  0.24784524  0.75367561  0.92710650  1
  Se  Se175  1  0.58386321  0.08979965  0.44902333  1
  Se  Se176  1  0.58388828  0.07420225  0.95312762  1
  Se  Se177  1  0.57861355  0.42446131  0.45196047  1
  Se  Se178  1  0.58855095  0.40766917  0.93607205  1
  Se  Se179  1  0.58696648  0.75317207  0.45045173  1
  Se  Se180  1  0.58838926  0.73309262  0.94006306  1
  Se  Se181  1  0.91452719  0.08567519  0.43797459  1
  Se  Se182  1  0.91613054  0.08122715  0.94845320  1
  Se  Se183  1  0.90912463  0.41871819  0.44659381  1
  Se  Se184  1  0.93374306  0.39560011  0.94920554  1
  Se  Se185  1  0.91512254  0.75214515  0.44872377  1
  Se  Se186  1  0.91060709  0.73658067  0.93324898  1
  Se  Se187  1  0.23513383  0.23998207  0.30725098  1
  Se  Se188  1  0.25323240  0.25845210  0.80932556  1
  Se  Se189  1  0.24000933  0.56785107  0.30661231  1
  Se  Se190  1  0.25596101  0.58976775  0.79964007  1
  Se  Se191  1  0.24453093  0.90596998  0.30735859  1
  Se  Se192  1  0.23898033  0.92262244  0.80110466  1
  Se  Se193  1  0.57878987  0.25151933  0.30919713  1
  Se  Se194  1  0.59480565  0.24581380  0.80528946  1
  Se  Se195  1  0.58603653  0.58801317  0.30691362  1
  Se  Se196  1  0.59085310  0.57683920  0.79960360  1
  Se  Se197  1  0.59164781  0.92372155  0.30915525  1
  Se  Se198  1  0.56628623  0.90534008  0.81212214  1
  Se  Se199  1  0.91474615  0.25747985  0.29282959  1
  Se  Se200  1  0.91316805  0.23834015  0.81295578  1
  Se  Se201  1  0.91569288  0.58506361  0.30784506  1
  Se  Se202  1  0.93846579  0.58729992  0.80390669  1
  Se  Se203  1  0.92192788  0.92145662  0.30375823  1
  Se  Se204  1  0.90485756  0.90693482  0.80919570  1
  Se  Se205  1  0.08026645  0.08051587  0.29606287  1
  Se  Se206  1  0.07740496  0.09887811  0.81726136  1
  Se  Se207  1  0.07094674  0.41105091  0.30624862  1
  Se  Se208  1  0.09518895  0.42372909  0.81857341  1
  Se  Se209  1  0.08330415  0.74282801  0.30014475  1
  Se  Se210  1  0.07503201  0.74716588  0.79583733  1
  Se  Se211  1  0.42602203  0.08639599  0.31150527  1
  Se  Se212  1  0.41519787  0.08846224  0.80497268  1
  Se  Se213  1  0.41782530  0.42318491  0.31153141  1
  Se  Se214  1  0.42016938  0.41551271  0.79522269  1
  Se  Se215  1  0.42216285  0.75415810  0.31083175  1
  Se  Se216  1  0.41229528  0.74678970  0.79046275  1
  Se  Se217  1  0.75193621  0.09209626  0.29737203  1
  Se  Se218  1  0.74821242  0.08879232  0.80997781  1
  Se  Se219  1  0.75072129  0.42292187  0.31035928  1
  Se  Se220  1  0.76724508  0.41206450  0.80423229  1
  Se  Se221  1  0.75008606  0.75121539  0.30914131  1
  Se  Se222  1  0.74430300  0.74381612  0.79769354  1
  Se  Se223  1  0.24982918  0.09468841  0.18665904  1
  Se  Se224  1  0.24288976  0.08340310  0.70747400  1
  Se  Se225  1  0.22780558  0.41398540  0.18601996  1
  Se  Se226  1  0.25481693  0.41417766  0.70020790  1
  Se  Se227  1  0.24251043  0.75166636  0.18032674  1
  Se  Se228  1  0.24663983  0.75214882  0.69980076  1
  Se  Se229  1  0.59592440  0.08871317  0.19015251  1
  Se  Se230  1  0.57923191  0.09018298  0.69038212  1
  Se  Se231  1  0.57817039  0.42145490  0.19183118  1
  Se  Se232  1  0.59363847  0.41007663  0.69362270  1
  Se  Se233  1  0.58936892  0.74099177  0.20325843  1
  Se  Se234  1  0.57793138  0.75587515  0.70351291  1
  Se  Se235  1  0.92197989  0.07945072  0.19350146  1
  Se  Se236  1  0.90330410  0.08941207  0.69960054  1
  Se  Se237  1  0.90720911  0.41770420  0.19029802  1
  Se  Se238  1  0.91874236  0.43132751  0.69323050  1
  Se  Se239  1  0.91502349  0.74783453  0.20063150  1
  Se  Se240  1  0.92006265  0.74463752  0.69544545  1
  Se  Se241  1  0.07485063  0.25765788  0.18609147  1
  Se  Se242  1  0.08421491  0.24646168  0.69442102  1
  Se  Se243  1  0.07155010  0.58583774  0.19709510  1
  Se  Se244  1  0.08927778  0.58058754  0.69567945  1
  Se  Se245  1  0.08375654  0.92000194  0.19880388  1
  Se  Se246  1  0.08076021  0.91099644  0.68191694  1
  Se  Se247  1  0.42174453  0.24149626  0.19278321  1
  Se  Se248  1  0.41798652  0.25262538  0.69967890  1
  Se  Se249  1  0.41971225  0.57524106  0.18885826  1
  Se  Se250  1  0.42115590  0.58092516  0.69400980  1
  Se  Se251  1  0.43672611  0.91078529  0.19288234  1
  Se  Se252  1  0.40413648  0.93980166  0.70015881  1
  Se  Se253  1  0.76191763  0.24660674  0.17225340  1
  Se  Se254  1  0.76073040  0.24284697  0.70687744  1
  Se  Se255  1  0.74636099  0.58551317  0.19997617  1
  Se  Se256  1  0.74514396  0.58950736  0.70076622  1
  Se  Se257  1  0.75188273  0.91635209  0.19943962  1
  Se  Se258  1  0.75182983  0.91080187  0.68904735  1
