# generated using pymatgen
data_In86Cu29Se144
_symmetry_space_group_name_H-M   'P 1'
_cell_length_a   17.57664933
_cell_length_b   17.57722883
_cell_length_c   23.43662766
_cell_angle_alpha   89.97877678
_cell_angle_beta   90.00681915
_cell_angle_gamma   89.99867059
_symmetry_Int_Tables_number   1
_chemical_formula_structural   In86Cu29Se144
_chemical_formula_sum   'In86 Cu29 Se144'
_cell_volume   7240.71714325
_cell_formula_units_Z   1
loop_
 _symmetry_equiv_pos_site_id
 _symmetry_equiv_pos_as_xyz
  1  'x, y, z'
loop_
 _atom_site_type_symbol
 _atom_site_label
 _atom_site_symmetry_multiplicity
 _atom_site_fract_x
 _atom_site_fract_y
 _atom_site_fract_z
 _atom_site_occupancy
  In  In0  1  0.00357450  0.17950291  0.11206940  1
  In  In1  1  -0.00359598  0.15999748  0.63734820  1
  In  In2  1  -0.00329503  0.50816144  0.13189423  1
  In  In3  1  -0.00420263  0.49206589  0.61257469  1
  In  In4  1  -0.00839550  0.81838866  0.11817302  1
  In  In5  1  0.00942566  0.83288332  0.63411537  1
  In  In6  1  0.32236068  0.17409828  0.12799403  1
  In  In7  1  0.33760411  0.16464277  0.63034721  1
  In  In8  1  0.34353250  0.49160123  0.12821878  1
  In  In9  1  0.32700955  0.49284970  0.61358586  1
  In  In10  1  0.33714864  0.83347875  0.11998856  1
  In  In11  1  0.33586604  0.83946298  0.62917321  1
  In  In12  1  0.67664834  0.15723350  0.13101834  1
  In  In13  1  0.66932986  0.18063771  0.62394328  1
  In  In14  1  0.66468141  0.50482450  0.13055958  1
  In  In15  1  0.66072555  0.48262097  0.60144651  1
  In  In16  1  0.67020592  0.83437866  0.13030812  1
  In  In17  1  0.65845824  0.83429843  0.62468266  1
  In  In18  1  0.17009631  -0.01609507  0.37487432  1
  In  In19  1  0.16415121  0.00535116  0.88278376  1
  In  In20  1  0.18027094  0.34588362  0.36398874  1
  In  In21  1  0.17005401  0.29049614  0.88460555  1
  In  In22  1  0.15838147  0.65492901  0.36106405  1
  In  In23  1  0.18284891  0.67787390  0.88626822  1
  In  In24  1  0.50437156  0.00842959  0.36772310  1
  In  In25  1  0.48841265  0.00685668  0.87804097  1
  In  In26  1  0.50552669  0.33872186  0.37274583  1
  In  In27  1  0.49194681  0.34439557  0.87846461  1
  In  In28  1  0.49317969  0.65919243  0.36477611  1
  In  In29  1  0.49207138  0.66471834  0.89990890  1
  In  In30  1  0.82666426  0.00968077  0.37059687  1
  In  In31  1  0.84311964  -0.00522525  0.87970888  1
  In  In32  1  0.84268835  0.33825856  0.36066327  1
  In  In33  1  0.86006150  0.32254866  0.90886607  1
  In  In34  1  0.80980217  0.64913109  0.34740221  1
  In  In35  1  0.83391625  0.66778059  0.88435881  1
  In  In36  1  -0.01579745  0.16629046  0.37185982  1
  In  In37  1  0.00488262  0.16204512  0.88649938  1
  In  In38  1  0.00297320  0.49515694  0.36793561  1
  In  In39  1  -0.00659483  0.48574704  0.88166943  1
  In  In40  1  0.00389832  0.82728971  0.36790279  1
  In  In41  1  -0.01641529  0.85398002  0.89073818  1
  In  In42  1  0.34967784  0.18240015  0.36272316  1
  In  In43  1  0.31690908  0.14955480  0.85476347  1
  In  In44  1  0.33761177  0.50013206  0.37195030  1
  In  In45  1  0.34026542  0.49986074  0.87665767  1
  In  In46  1  0.33808679  0.83700587  0.35994084  1
  In  In47  1  0.32119320  0.84342516  0.89818376  1
  In  In48  1  0.65680962  0.15946214  0.36401822  1
  In  In49  1  0.67128051  0.17902047  0.87899587  1
  In  In50  1  0.66584094  0.49634640  0.36985297  1
  In  In51  1  0.66395518  0.49894509  0.88577117  1
  In  In52  1  0.66611727  0.82620294  0.35498903  1
  In  In53  1  0.67710955  0.82272255  0.88581723  1
  In  In54  1  0.17152594  0.01010670  0.11684108  1
  In  In55  1  0.16873730  0.00520891  0.64138647  1
  In  In56  1  0.16976849  0.32926314  0.12681257  1
  In  In57  1  0.16315323  0.34348590  0.62313497  1
  In  In58  1  0.16262937  0.67058893  0.12807267  1
  In  In59  1  0.17191818  0.66307154  0.62254112  1
  In  In60  1  0.51243033  -0.00950501  0.12956823  1
  In  In61  1  0.48182659  0.00210455  0.62885863  1
  In  In62  1  0.49252361  0.34284032  0.13119216  1
  In  In63  1  0.49878428  0.32491659  0.61009883  1
  In  In64  1  0.49720213  0.66833436  0.12433554  1
  In  In65  1  0.51221855  0.66254171  0.62243630  1
  In  In66  1  0.82412874  -0.00990971  0.11803702  1
  In  In67  1  0.83574630  0.00745437  0.63733766  1
  In  In68  1  0.83334536  0.33470924  0.12583604  1
  In  In69  1  0.83327419  0.33236603  0.62555867  1
  In  In70  1  0.83715146  0.67225007  0.13282911  1
  In  In71  1  0.84061906  0.64979557  0.62589905  1
  In  In72  1  0.00047227  0.67313625  0.75508271  1
  In  In73  1  0.16253917  0.49912840  0.00486964  1
  In  In74  1  0.66954296  0.65930338  0.76124106  1
  In  In75  1  0.33623450  0.67255619  0.75413320  1
  In  In76  1  0.16983160  0.17028259  0.49743538  1
  In  In77  1  0.16963044  0.82317247  0.50498559  1
  In  In78  1  -0.00234617  -0.00085669  0.24333062  1
  In  In79  1  0.67048125  -0.00147083  0.75585726  1
  In  In80  1  0.82889139  0.82343693  0.49416928  1
  In  In81  1  0.49408925  0.82745844  0.50001534  1
  In  In82  1  0.67112014  0.33525551  0.74726863  1
  In  In83  1  0.82607637  0.18118642  0.50111275  1
  In  In84  1  0.49804248  0.17080548  0.00124529  1
  In  In85  1  0.00593299  0.32176074  0.76081911  1
  Cu  Cu86  1  0.49353489  0.83653117  0.76079576  1
  Cu  Cu87  1  0.33431243  0.00390022  0.00180352  1
  Cu  Cu88  1  0.16252700  0.16365473  0.24644272  1
  Cu  Cu89  1  0.33933468  0.33786378  0.48974972  1
  Cu  Cu90  1  0.17304892  0.49680700  0.24409019  1
  Cu  Cu91  1  0.32539195  0.65850577  0.49122448  1
  Cu  Cu92  1  0.16098155  0.84366275  0.76275455  1
  Cu  Cu93  1  0.49306650  0.16852033  0.24477530  1
  Cu  Cu94  1  0.00314639  0.00067910  0.00504657  1
  Cu  Cu95  1  0.00513006  0.33681446  0.49128677  1
  Cu  Cu96  1  0.66147598  0.00737080  0.49195541  1
  Cu  Cu97  1  0.66481523  0.34015340  0.00965716  1
  Cu  Cu98  1  0.49902873  0.17190536  0.74446677  1
  Cu  Cu99  1  -0.00417119  -0.00447151  0.51153765  1
  Cu  Cu100  1  0.49733847  0.83180150  0.24171480  1
  Cu  Cu101  1  0.50179352  0.50173398  0.25154450  1
  Cu  Cu102  1  0.67120019  -0.00485091  0.00418663  1
  Cu  Cu103  1  0.16281911  0.49689564  0.74725053  1
  Cu  Cu104  1  0.33620548  0.01351158  0.49943750  1
  Cu  Cu105  1  0.83195878  0.16832446  0.24348970  1
  Cu  Cu106  1  0.32954427  0.32767084  0.00139024  1
  Cu  Cu107  1  0.17226141  0.83671573  0.24268850  1
  Cu  Cu108  1  -0.00624645  0.65192538  0.48830437  1
  Cu  Cu109  1  0.49508827  0.49694340  0.75035208  1
  Cu  Cu110  1  0.66846513  0.65824557  0.48949480  1
  Cu  Cu111  1  0.83473376  0.50086945  0.24635774  1
  Cu  Cu112  1  0.00159965  0.66971258  0.00591605  1
  Cu  Cu113  1  0.82725872  0.49299746  0.75266882  1
  Cu  Cu114  1  0.66851890  0.66608525  0.01206824  1
  Se  Se115  1  0.08798149  0.09150525  0.04807363  1
  Se  Se116  1  0.08237812  0.07778779  0.56180513  1
  Se  Se117  1  0.07250926  0.41117848  0.06364437  1
  Se  Se118  1  0.08889215  0.41919955  0.54604918  1
  Se  Se119  1  0.09173220  0.75273421  0.05160106  1
  Se  Se120  1  0.06564567  0.73323462  0.55618849  1
  Se  Se121  1  0.41437502  0.08103501  0.06523294  1
  Se  Se122  1  0.42062510  0.09206125  0.55409139  1
  Se  Se123  1  0.41546376  0.41055263  0.05105577  1
  Se  Se124  1  0.42046801  0.41997657  0.54792286  1
  Se  Se125  1  0.42794775  0.75830696  0.05290968  1
  Se  Se126  1  0.40062492  0.73632578  0.55976701  1
  Se  Se127  1  0.75130214  0.08616153  0.05169777  1
  Se  Se128  1  0.74613422  0.07491500  0.55861950  1
  Se  Se129  1  0.74867872  0.42308966  0.06084275  1
  Se  Se130  1  0.76837494  0.41353028  0.55000789  1
  Se  Se131  1  0.75393744  0.75152609  0.06061019  1
  Se  Se132  1  0.73872794  0.73657762  0.55979044  1
  Se  Se133  1  0.24252912  0.24604000  0.05097052  1
  Se  Se134  1  0.26041435  0.26011629  0.55572716  1
  Se  Se135  1  0.25518675  0.58270212  0.06461578  1
  Se  Se136  1  0.24184093  0.58023177  0.54859709  1
  Se  Se137  1  0.25100724  0.91838497  0.05238145  1
  Se  Se138  1  0.25520829  0.92855366  0.55798625  1
  Se  Se139  1  0.58683311  0.25335560  0.06644710  1
  Se  Se140  1  0.60463904  0.26213830  0.54938893  1
  Se  Se141  1  0.58036540  0.58027296  0.05742357  1
  Se  Se142  1  0.57936916  0.58234073  0.54591259  1
  Se  Se143  1  0.58716562  0.91169827  0.05506115  1
  Se  Se144  1  0.58351048  0.92737224  0.55566432  1
  Se  Se145  1  0.90009561  0.24587785  0.05194469  1
  Se  Se146  1  0.93549737  0.25375048  0.55877089  1
  Se  Se147  1  0.91800482  0.58936606  0.06036159  1
  Se  Se148  1  0.90911392  0.57476955  0.54661435  1
  Se  Se149  1  0.91826293  0.91466997  0.05361152  1
  Se  Se150  1  0.91435919  0.91141442  0.56410816  1
  Se  Se151  1  0.07971383  0.25297808  0.43160452  1
  Se  Se152  1  0.04940155  0.28097114  0.94473815  1
  Se  Se153  1  0.08749468  0.57719454  0.43894658  1
  Se  Se154  1  0.07671613  0.59206036  0.93912980  1
  Se  Se155  1  0.07318161  0.91662621  0.44831547  1
  Se  Se156  1  0.08870392  0.91673558  0.95262163  1
  Se  Se157  1  0.42317725  0.25073851  0.44255667  1
  Se  Se158  1  0.40463774  0.24659108  0.93555476  1
  Se  Se159  1  0.42002577  0.58362806  0.44267665  1
  Se  Se160  1  0.41176173  0.56956360  0.95619037  1
  Se  Se161  1  0.40805111  0.92244641  0.44019903  1
  Se  Se162  1  0.42386157  0.92174700  0.95333990  1
  Se  Se163  1  0.74688979  0.25404640  0.42588486  1
  Se  Se164  1  0.74472381  0.25321738  0.95573805  1
  Se  Se165  1  0.75559565  0.58098044  0.43630262  1
  Se  Se166  1  0.74705636  0.58677740  0.94962825  1
  Se  Se167  1  0.73867646  0.92011558  0.43664558  1
  Se  Se168  1  0.75599786  0.91519815  0.94826414  1
  Se  Se169  1  0.25579304  0.08206082  0.43270420  1
  Se  Se170  1  0.25703685  0.09033506  0.94534399  1
  Se  Se171  1  0.25066535  0.42085566  0.44285542  1
  Se  Se172  1  0.24788106  0.40731774  0.93949701  1
  Se  Se173  1  0.25352104  0.74737237  0.43188419  1
  Se  Se174  1  0.27105245  0.73419400  0.96147592  1
  Se  Se175  1  0.57625146  0.09069806  0.44332942  1
  Se  Se176  1  0.59272534  0.07810590  0.94307622  1
  Se  Se177  1  0.57655084  0.42937066  0.44219159  1
  Se  Se178  1  0.57899866  0.41379592  0.95106125  1
  Se  Se179  1  0.58873757  0.74806188  0.43579616  1
  Se  Se180  1  0.58824316  0.74922322  0.95454867  1
  Se  Se181  1  0.91741224  0.07537532  0.44952200  1
  Se  Se182  1  0.91613948  0.08163202  0.95135637  1
  Se  Se183  1  0.91781657  0.41461150  0.43806764  1
  Se  Se184  1  0.89943262  0.44543051  0.95942172  1
  Se  Se185  1  0.91693813  0.73764728  0.43071665  1
  Se  Se186  1  0.91492175  0.75170382  0.95209496  1
  Se  Se187  1  0.24738475  0.24696408  0.29933951  1
  Se  Se188  1  0.26351178  0.26767042  0.80330335  1
  Se  Se189  1  0.25560253  0.58022826  0.29964048  1
  Se  Se190  1  0.24046140  0.57989165  0.80851589  1
  Se  Se191  1  0.25195630  0.92280540  0.29583453  1
  Se  Se192  1  0.25119762  0.91684189  0.81764784  1
  Se  Se193  1  0.57765399  0.25004626  0.29950338  1
  Se  Se194  1  0.57405773  0.24893126  0.80865720  1
  Se  Se195  1  0.58912328  0.58702518  0.30040711  1
  Se  Se196  1  0.56726005  0.57751566  0.81593077  1
  Se  Se197  1  0.57677905  0.91632035  0.29942179  1
  Se  Se198  1  0.58141039  0.90958875  0.81877271  1
  Se  Se199  1  0.92170678  0.24807331  0.29375652  1
  Se  Se200  1  0.90480977  0.24485583  0.81858689  1
  Se  Se201  1  0.92367681  0.58185787  0.29821799  1
  Se  Se202  1  0.90960784  0.57523681  0.80932181  1
  Se  Se203  1  0.90932214  0.91435374  0.30830326  1
  Se  Se204  1  0.91771504  0.91446295  0.80495684  1
  Se  Se205  1  0.08702502  0.08401325  0.31194287  1
  Se  Se206  1  0.10096024  0.10526362  0.81557343  1
  Se  Se207  1  0.08512921  0.41433859  0.29662907  1
  Se  Se208  1  0.09420830  0.41943060  0.81522759  1
  Se  Se209  1  0.08829199  0.75385778  0.29691746  1
  Se  Se210  1  0.08769287  0.75628762  0.82096767  1
  Se  Se211  1  0.41256239  0.07968051  0.29830564  1
  Se  Se212  1  0.42275958  0.08062166  0.79625399  1
  Se  Se213  1  0.41781032  0.41576489  0.30283989  1
  Se  Se214  1  0.41028114  0.41475584  0.80161497  1
  Se  Se215  1  0.41517417  0.74613410  0.29605412  1
  Se  Se216  1  0.41919953  0.75544163  0.82316892  1
  Se  Se217  1  0.74884570  0.08406567  0.29618231  1
  Se  Se218  1  0.75647329  0.09104346  0.81432832  1
  Se  Se219  1  0.74951044  0.41745553  0.29796631  1
  Se  Se220  1  0.75422849  0.41541797  0.81869304  1
  Se  Se221  1  0.76455710  0.76446049  0.28952793  1
  Se  Se222  1  0.76428834  0.75686346  0.80679446  1
  Se  Se223  1  0.24825498  0.08095043  0.19584815  1
  Se  Se224  1  0.26256728  0.08135985  0.70117846  1
  Se  Se225  1  0.25523619  0.40995947  0.19411330  1
  Se  Se226  1  0.24997378  0.42100619  0.69209402  1
  Se  Se227  1  0.25485830  0.75108732  0.19158179  1
  Se  Se228  1  0.23608276  0.76219988  0.69705613  1
  Se  Se229  1  0.58189037  0.08508982  0.19723119  1
  Se  Se230  1  0.58331189  0.08857453  0.68980724  1
  Se  Se231  1  0.58391912  0.41669924  0.19850807  1
  Se  Se232  1  0.57882534  0.42420756  0.68713815  1
  Se  Se233  1  0.58407674  0.74695606  0.19435180  1
  Se  Se234  1  0.57394784  0.75552479  0.70067883  1
  Se  Se235  1  0.91355116  0.08978062  0.18159710  1
  Se  Se236  1  0.92392644  0.07544784  0.70738275  1
  Se  Se237  1  0.91842879  0.41542487  0.19608710  1
  Se  Se238  1  0.91859226  0.41827867  0.69648191  1
  Se  Se239  1  0.92632725  0.74938316  0.20076440  1
  Se  Se240  1  0.90443991  0.75385771  0.69169982  1
  Se  Se241  1  0.08060411  0.24705338  0.19273289  1
  Se  Se242  1  0.09841254  0.24315562  0.69250375  1
  Se  Se243  1  0.08669536  0.58509650  0.19889062  1
  Se  Se244  1  0.08211129  0.57773416  0.68936746  1
  Se  Se245  1  0.08805011  0.91309543  0.18187213  1
  Se  Se246  1  0.07898476  0.92223604  0.70425901  1
  Se  Se247  1  0.40937863  0.25384768  0.19500333  1
  Se  Se248  1  0.42146515  0.25881112  0.69006779  1
  Se  Se249  1  0.41785846  0.58288346  0.19613514  1
  Se  Se250  1  0.42011071  0.58135607  0.68867053  1
  Se  Se251  1  0.41380969  0.91902783  0.19289716  1
  Se  Se252  1  0.41195307  0.91710799  0.70351882  1
  Se  Se253  1  0.74637512  0.25524430  0.19612957  1
  Se  Se254  1  0.76730882  0.23719611  0.69857695  1
  Se  Se255  1  0.74974673  0.58763851  0.19777324  1
  Se  Se256  1  0.74524480  0.56811027  0.69065689  1
  Se  Se257  1  0.74226856  0.93024235  0.19646418  1
  Se  Se258  1  0.75338951  0.90308074  0.69365366  1
