# generated using pymatgen
data_In86Cu29Se144
_symmetry_space_group_name_H-M   'P 1'
_cell_length_a   17.58463286
_cell_length_b   17.58532237
_cell_length_c   23.43233123
_cell_angle_alpha   89.99410793
_cell_angle_beta   89.99136582
_cell_angle_gamma   90.00010809
_symmetry_Int_Tables_number   1
_chemical_formula_structural   In86Cu29Se144
_chemical_formula_sum   'In86 Cu29 Se144'
_cell_volume   7246.01335072
_cell_formula_units_Z   1
loop_
 _symmetry_equiv_pos_site_id
 _symmetry_equiv_pos_as_xyz
  1  'x, y, z'
loop_
 _atom_site_type_symbol
 _atom_site_label
 _atom_site_symmetry_multiplicity
 _atom_site_fract_x
 _atom_site_fract_y
 _atom_site_fract_z
 _atom_site_occupancy
  In  In0  1  0.00998811  0.15631569  0.13715642  1
  In  In1  1  0.01039457  0.16771477  0.60931188  1
  In  In2  1  -0.01509457  0.50227312  0.13063256  1
  In  In3  1  -0.00363198  0.49447702  0.61528643  1
  In  In4  1  0.00972594  0.83735513  0.12193180  1
  In  In5  1  -0.00276490  0.84934192  0.61963742  1
  In  In6  1  0.32510170  0.16307493  0.12083695  1
  In  In7  1  0.33317453  0.16607867  0.61893048  1
  In  In8  1  0.35072331  0.49416401  0.12699004  1
  In  In9  1  0.32576898  0.47898744  0.60176691  1
  In  In10  1  0.32638752  0.84847216  0.13815553  1
  In  In11  1  0.34312888  0.83077904  0.62735626  1
  In  In12  1  0.66643764  0.18320494  0.12959285  1
  In  In13  1  0.66841413  0.17468454  0.61280228  1
  In  In14  1  0.66202886  0.49415517  0.12245994  1
  In  In15  1  0.64268881  0.46958486  0.59985846  1
  In  In16  1  0.66771264  0.82207863  0.12750106  1
  In  In17  1  0.67168036  0.83998176  0.61480539  1
  In  In18  1  0.17093275  0.00506340  0.36990536  1
  In  In19  1  0.17847434  -0.00690364  0.88070618  1
  In  In20  1  0.16922395  0.33786857  0.38239363  1
  In  In21  1  0.16356976  0.32024281  0.87633815  1
  In  In22  1  0.17403308  0.65540114  0.37357969  1
  In  In23  1  0.17876353  0.67570983  0.87716815  1
  In  In24  1  0.49164037  0.01022004  0.37280697  1
  In  In25  1  0.49798981  0.02005356  0.87815647  1
  In  In26  1  0.50597439  0.31519357  0.40250847  1
  In  In27  1  0.49952356  0.33208031  0.87205717  1
  In  In28  1  0.49497866  0.67398531  0.37642142  1
  In  In29  1  0.48939946  0.65909751  0.87816677  1
  In  In30  1  0.84554621  -0.00061370  0.38061707  1
  In  In31  1  0.82368982  -0.00469759  0.88098325  1
  In  In32  1  0.83080015  0.32759706  0.38172241  1
  In  In33  1  0.83233120  0.34491412  0.87483235  1
  In  In34  1  0.82868146  0.66821485  0.37802129  1
  In  In35  1  0.83365929  0.66587199  0.87948292  1
  In  In36  1  -0.00075313  0.16501455  0.37689540  1
  In  In37  1  0.00761109  0.17808636  0.87903611  1
  In  In38  1  0.01108578  0.48812685  0.37996432  1
  In  In39  1  -0.00905228  0.48848522  0.87770225  1
  In  In40  1  -0.01652689  0.84170911  0.36792897  1
  In  In41  1  0.00173830  0.83434578  0.88218641  1
  In  In42  1  0.34531526  0.15533744  0.39169025  1
  In  In43  1  0.33238575  0.16818573  0.87334034  1
  In  In44  1  0.33301891  0.50009795  0.38209642  1
  In  In45  1  0.34890293  0.50333306  0.87406760  1
  In  In46  1  0.34902728  0.84440857  0.35839144  1
  In  In47  1  0.31864544  0.84396642  0.87766679  1
  In  In48  1  0.65660652  0.18635513  0.38531677  1
  In  In49  1  0.65105231  0.16521818  0.87404861  1
  In  In50  1  0.67079705  0.48030649  0.39128983  1
  In  In51  1  0.67049080  0.49326376  0.87667628  1
  In  In52  1  0.66990393  0.83306522  0.37698185  1
  In  In53  1  0.67781318  0.84098180  0.87973109  1
  In  In54  1  0.16769387  0.00109848  0.12690500  1
  In  In55  1  0.16481658  0.01552790  0.62192652  1
  In  In56  1  0.17084977  0.31833516  0.12725654  1
  In  In57  1  0.17485916  0.33205236  0.61272996  1
  In  In58  1  0.16291606  0.68132519  0.12580469  1
  In  In59  1  0.18115590  0.66293517  0.62365838  1
  In  In60  1  0.48245764  0.00715561  0.13526764  1
  In  In61  1  0.49327092  -0.00513691  0.61562368  1
  In  In62  1  0.50592171  0.33937110  0.12053006  1
  In  In63  1  0.49962725  0.32534277  0.61766474  1
  In  In64  1  0.50712291  0.65618546  0.13220818  1
  In  In65  1  0.49532778  0.66943895  0.62008624  1
  In  In66  1  0.84754896  -0.00371730  0.13286454  1
  In  In67  1  0.84506977  0.00429907  0.60271283  1
  In  In68  1  0.82372656  0.34044018  0.13610230  1
  In  In69  1  0.81662235  0.31880329  0.60751851  1
  In  In70  1  0.83443147  0.66431043  0.12089755  1
  In  In71  1  0.83074264  0.66386575  0.61680833  1
  In  In72  1  0.66351724  0.66086617  0.74344721  1
  In  In73  1  0.66013112  0.00332349  0.74049707  1
  In  In74  1  0.16478403  0.50110622  -0.00363338  1
  In  In75  1  0.66682841  0.00731591  0.25623207  1
  In  In76  1  0.83506081  0.16620667  0.00760181  1
  In  In77  1  0.34063163  0.66444560  0.74621702  1
  In  In78  1  0.00015354  0.33307731  0.75139746  1
  In  In79  1  0.50146778  0.82732795  0.00767660  1
  In  In80  1  0.66404569  0.66594826  0.25800968  1
  In  In81  1  0.00235522  0.66673000  0.25109218  1
  In  In82  1  0.00561371  0.00563476  0.74083935  1
  In  In83  1  0.34047758  0.32625600  0.25985647  1
  In  In84  1  0.00169293  0.66624427  0.76006797  1
  In  In85  1  0.16306706  0.83140265  0.49648196  1
  Cu  Cu86  1  0.17365959  0.49565053  0.73670104  1
  Cu  Cu87  1  0.17260015  0.49498114  0.25697530  1
  Cu  Cu88  1  0.34047702  0.32768364  -0.00096580  1
  Cu  Cu89  1  0.33645291  0.67154846  0.49844719  1
  Cu  Cu90  1  0.49933255  0.48678961  0.74157551  1
  Cu  Cu91  1  0.83841841  0.83633259  0.74626012  1
  Cu  Cu92  1  0.82430388  0.16982939  0.73995968  1
  Cu  Cu93  1  0.66766317  -0.00246320  0.00350775  1
  Cu  Cu94  1  0.33476108  -0.00403378  0.49634384  1
  Cu  Cu95  1  -0.00123827  0.33312249  0.00485711  1
  Cu  Cu96  1  0.00034210  0.33345317  0.49570689  1
  Cu  Cu97  1  0.33088630  0.00234230  0.00442067  1
  Cu  Cu98  1  0.66256231  0.00191910  0.49149398  1
  Cu  Cu99  1  0.82013106  0.48814217  0.74296305  1
  Cu  Cu100  1  0.16367653  0.16479157  0.25145126  1
  Cu  Cu101  1  0.00312160  0.66481021  0.49137430  1
  Cu  Cu102  1  0.50670624  0.49189325  0.25263676  1
  Cu  Cu103  1  0.17649883  0.16711882  0.74836011  1
  Cu  Cu104  1  0.49692556  0.84451371  0.74828280  1
  Cu  Cu105  1  0.67076811  0.67051511  0.49468856  1
  Cu  Cu106  1  0.82953306  0.49254653  0.25719297  1
  Cu  Cu107  1  0.33275001  0.66699329  0.00326326  1
  Cu  Cu108  1  0.66950088  0.65921613  0.00262019  1
  Cu  Cu109  1  0.83383706  0.17226323  0.25781001  1
  Cu  Cu110  1  0.66593814  0.33606401  0.00038084  1
  Cu  Cu111  1  0.49069603  0.17449842  0.74791582  1
  Cu  Cu112  1  0.00509609  0.00078596  0.00766546  1
  Cu  Cu113  1  -0.00530192  0.66974485  0.00324699  1
  Cu  Cu114  1  0.16837860  0.83941245  0.24862805  1
  Se  Se115  1  0.08663438  0.08787309  0.05752683  1
  Se  Se116  1  0.05703735  0.05057117  0.55302342  1
  Se  Se117  1  0.07973234  0.41551625  0.06393812  1
  Se  Se118  1  0.08522857  0.41601456  0.55001823  1
  Se  Se119  1  0.08477066  0.75190507  0.04921100  1
  Se  Se120  1  0.07719973  0.74004927  0.56124927  1
  Se  Se121  1  0.41782357  0.08452880  0.05465163  1
  Se  Se122  1  0.41697384  0.08426283  0.54809923  1
  Se  Se123  1  0.42021562  0.41666738  0.04934716  1
  Se  Se124  1  0.44735838  0.43582709  0.55057481  1
  Se  Se125  1  0.40983560  0.74336152  0.06917902  1
  Se  Se126  1  0.41879188  0.75689403  0.55074418  1
  Se  Se127  1  0.74487848  0.07648620  0.06780880  1
  Se  Se128  1  0.74620320  0.08346643  0.54718369  1
  Se  Se129  1  0.75207053  0.41459226  0.05601247  1
  Se  Se130  1  0.76908456  0.43520753  0.55157134  1
  Se  Se131  1  0.74890743  0.74736635  0.05425712  1
  Se  Se132  1  0.75411105  0.75358942  0.54997776  1
  Se  Se133  1  0.24978219  0.25026139  0.04952783  1
  Se  Se134  1  0.22648813  0.22110487  0.55333074  1
  Se  Se135  1  0.25302867  0.58421601  0.06334343  1
  Se  Se136  1  0.25072513  0.58480168  0.54733827  1
  Se  Se137  1  0.25048972  0.91587181  0.05769181  1
  Se  Se138  1  0.25426940  0.91859003  0.55913363  1
  Se  Se139  1  0.58491114  0.24976838  0.05215301  1
  Se  Se140  1  0.58183993  0.25023740  0.54400717  1
  Se  Se141  1  0.58127203  0.58099329  0.05485923  1
  Se  Se142  1  0.59122096  0.59582893  0.55704757  1
  Se  Se143  1  0.58555002  0.92340486  0.06721448  1
  Se  Se144  1  0.58270061  0.91725842  0.54880509  1
  Se  Se145  1  0.92246551  0.25410404  0.06947536  1
  Se  Se146  1  0.91786336  0.24723263  0.54728915  1
  Se  Se147  1  0.91530037  0.57965878  0.05231608  1
  Se  Se148  1  0.91966712  0.58588878  0.55010075  1
  Se  Se149  1  0.91792103  0.91684085  0.05578171  1
  Se  Se150  1  0.90583430  0.89733715  0.54360395  1
  Se  Se151  1  0.08521663  0.24845154  0.44527420  1
  Se  Se152  1  0.08552023  0.25060217  0.95493886  1
  Se  Se153  1  0.09045257  0.58013842  0.44492498  1
  Se  Se154  1  0.07262771  0.59336526  0.93606805  1
  Se  Se155  1  0.07666826  0.92047567  0.43548011  1
  Se  Se156  1  0.08466860  0.91992670  0.94722467  1
  Se  Se157  1  0.37444606  0.28079503  0.44743864  1
  Se  Se158  1  0.42132875  0.24572476  0.94195444  1
  Se  Se159  1  0.41900493  0.58696636  0.44635611  1
  Se  Se160  1  0.41678529  0.58095132  0.95381918  1
  Se  Se161  1  0.41791682  0.91550653  0.44074010  1
  Se  Se162  1  0.41687413  0.92209387  0.94524505  1
  Se  Se163  1  0.73809756  0.26574189  0.45539955  1
  Se  Se164  1  0.74659525  0.25136350  0.94097265  1
  Se  Se165  1  0.75233652  0.58127831  0.44625486  1
  Se  Se166  1  0.75136928  0.57923581  0.94413696  1
  Se  Se167  1  0.75089126  0.91890991  0.44328362  1
  Se  Se168  1  0.75490145  0.91287054  0.95693572  1
  Se  Se169  1  0.24440743  0.07847736  0.44936071  1
  Se  Se170  1  0.25193550  0.08649526  0.94628503  1
  Se  Se171  1  0.26323949  0.40657209  0.45164924  1
  Se  Se172  1  0.25837146  0.41057501  0.93928633  1
  Se  Se173  1  0.25911689  0.75114557  0.43527264  1
  Se  Se174  1  0.25292693  0.75426450  0.95172667  1
  Se  Se175  1  0.57677872  0.08680580  0.44386206  1
  Se  Se176  1  0.58619927  0.08402914  0.95263853  1
  Se  Se177  1  0.56254588  0.43088713  0.45766466  1
  Se  Se178  1  0.58147886  0.41545210  0.94307731  1
  Se  Se179  1  0.58393471  0.75226261  0.44400210  1
  Se  Se180  1  0.59163940  0.74105648  0.93958989  1
  Se  Se181  1  0.91239627  0.09267028  0.44915460  1
  Se  Se182  1  0.92523703  0.07777949  0.94208445  1
  Se  Se183  1  0.91564600  0.41880485  0.44592844  1
  Se  Se184  1  0.91264082  0.41423290  0.95253491  1
  Se  Se185  1  0.92017283  0.74946048  0.44071380  1
  Se  Se186  1  0.91278220  0.75273499  0.94615892  1
  Se  Se187  1  0.24441944  0.23899540  0.31473720  1
  Se  Se188  1  0.25203119  0.25550772  0.80326600  1
  Se  Se189  1  0.25949814  0.57873908  0.30372121  1
  Se  Se190  1  0.24406154  0.57518686  0.80585558  1
  Se  Se191  1  0.25283671  0.92428399  0.29942610  1
  Se  Se192  1  0.25516920  0.92604068  0.80162903  1
  Se  Se193  1  0.56649738  0.25461972  0.31426776  1
  Se  Se194  1  0.58223244  0.24973530  0.80062102  1
  Se  Se195  1  0.58320032  0.57006167  0.31794516  1
  Se  Se196  1  0.57029116  0.57459476  0.80432878  1
  Se  Se197  1  0.57713347  0.91234260  0.31046472  1
  Se  Se198  1  0.58005910  0.91485676  0.81245773  1
  Se  Se199  1  0.91899315  0.25493988  0.30976131  1
  Se  Se200  1  0.90539496  0.23987536  0.80777230  1
  Se  Se201  1  0.91366909  0.57514964  0.31171774  1
  Se  Se202  1  0.90106976  0.56780741  0.80438001  1
  Se  Se203  1  0.91150254  0.92697654  0.29778581  1
  Se  Se204  1  0.91414990  0.91814726  0.80759931  1
  Se  Se205  1  0.07870097  0.08183339  0.30403251  1
  Se  Se206  1  0.08970211  0.09286580  0.80889843  1
  Se  Se207  1  0.08833474  0.41050170  0.30549918  1
  Se  Se208  1  0.09422951  0.42681379  0.80726874  1
  Se  Se209  1  0.09209561  0.75750153  0.31180266  1
  Se  Se210  1  0.09528928  0.76340918  0.80817585  1
  Se  Se211  1  0.41502093  0.09881615  0.30571909  1
  Se  Se212  1  0.41504004  0.08515337  0.80217880  1
  Se  Se213  1  0.42937377  0.41679345  0.31809897  1
  Se  Se214  1  0.41377563  0.41368188  0.80189293  1
  Se  Se215  1  0.40913996  0.73558176  0.29989854  1
  Se  Se216  1  0.42313811  0.75996958  0.81053468  1
  Se  Se217  1  0.75103267  0.09702381  0.31998607  1
  Se  Se218  1  0.75367373  0.08743454  0.80613779  1
  Se  Se219  1  0.74593643  0.41110610  0.31101355  1
  Se  Se220  1  0.74129783  0.40838042  0.80183362  1
  Se  Se221  1  0.76276151  0.76093948  0.30310469  1
  Se  Se222  1  0.75568783  0.75536683  0.80360918  1
  Se  Se223  1  0.24971447  0.08502481  0.19631803  1
  Se  Se224  1  0.25464571  0.08234123  0.69324864  1
  Se  Se225  1  0.25090794  0.41664236  0.19206446  1
  Se  Se226  1  0.25487210  0.41177281  0.68541049  1
  Se  Se227  1  0.24856701  0.74929617  0.19878689  1
  Se  Se228  1  0.24398398  0.75845126  0.69628623  1
  Se  Se229  1  0.57783455  0.09561570  0.19483647  1
  Se  Se230  1  0.57092686  0.09565070  0.68449842  1
  Se  Se231  1  0.58829876  0.41161850  0.19626136  1
  Se  Se232  1  0.58539136  0.40637960  0.68950191  1
  Se  Se233  1  0.57255854  0.75865875  0.19995867  1
  Se  Se234  1  0.57807752  0.76398071  0.69016581  1
  Se  Se235  1  0.91422993  0.08679496  0.20391279  1
  Se  Se236  1  0.90984039  0.09398995  0.68360448  1
  Se  Se237  1  0.91787913  0.41440446  0.20332337  1
  Se  Se238  1  0.90911152  0.41309836  0.68637852  1
  Se  Se239  1  0.91422424  0.75460593  0.18974535  1
  Se  Se240  1  0.91650187  0.75097235  0.69043914  1
  Se  Se241  1  0.08295332  0.25413859  0.20133834  1
  Se  Se242  1  0.08826109  0.24380299  0.69016371  1
  Se  Se243  1  0.09411208  0.57409686  0.19217489  1
  Se  Se244  1  0.08517207  0.57874215  0.68932342  1
  Se  Se245  1  0.08160454  0.91996298  0.19611225  1
  Se  Se246  1  0.09643266  0.90835034  0.69061505  1
  Se  Se247  1  0.41946244  0.24772485  0.18522904  1
  Se  Se248  1  0.41047039  0.25380359  0.68878774  1
  Se  Se249  1  0.42232082  0.57640392  0.20152951  1
  Se  Se250  1  0.41809574  0.56880938  0.68306713  1
  Se  Se251  1  0.42072261  0.91493201  0.20551022  1
  Se  Se252  1  0.41402464  0.92510439  0.69468651  1
  Se  Se253  1  0.74733396  0.25330952  0.20536722  1
  Se  Se254  1  0.74177412  0.25385504  0.69006728  1
  Se  Se255  1  0.75501035  0.57715411  0.19501845  1
  Se  Se256  1  0.74731770  0.57138391  0.68173015  1
  Se  Se257  1  0.75135552  0.91215029  0.19397810  1
  Se  Se258  1  0.76262849  0.91996722  0.68630258  1
