# generated using pymatgen
data_In86Cu29Se144
_symmetry_space_group_name_H-M   'P 1'
_cell_length_a   17.72367111
_cell_length_b   17.72231703
_cell_length_c   23.59619439
_cell_angle_alpha   89.96351938
_cell_angle_beta   89.98380391
_cell_angle_gamma   90.03186468
_symmetry_Int_Tables_number   1
_chemical_formula_structural   In86Cu29Se144
_chemical_formula_sum   'In86 Cu29 Se144'
_cell_volume   7411.66832522
_cell_formula_units_Z   1
loop_
 _symmetry_equiv_pos_site_id
 _symmetry_equiv_pos_as_xyz
  1  'x, y, z'
loop_
 _atom_site_type_symbol
 _atom_site_label
 _atom_site_symmetry_multiplicity
 _atom_site_fract_x
 _atom_site_fract_y
 _atom_site_fract_z
 _atom_site_occupancy
  In  In0  1  -0.00046893  0.16785655  0.12630301  1
  In  In1  1  0.00860459  0.16711906  0.62390735  1
  In  In2  1  -0.01044619  0.48766575  0.11788539  1
  In  In3  1  -0.04778894  0.48648221  0.63633355  1
  In  In4  1  0.00985400  0.83873956  0.11810599  1
  In  In5  1  0.00131722  0.84095104  0.62607493  1
  In  In6  1  0.33021974  0.16863204  0.12158064  1
  In  In7  1  0.33141728  0.16903908  0.61094789  1
  In  In8  1  0.33749783  0.49770422  0.12858603  1
  In  In9  1  0.33713722  0.49934732  0.62332751  1
  In  In10  1  0.32683347  0.84418013  0.13585943  1
  In  In11  1  0.33377326  0.82736036  0.62123408  1
  In  In12  1  0.67875394  0.17897117  0.11766570  1
  In  In13  1  0.67221398  0.16675923  0.61370023  1
  In  In14  1  0.65187197  0.47693663  0.10955284  1
  In  In15  1  0.70933570  0.44966165  0.67947519  1
  In  In16  1  0.67122318  0.83728911  0.12405033  1
  In  In17  1  0.67916308  0.81609874  0.63272974  1
  In  In18  1  0.17859735  0.01449245  0.36503991  1
  In  In19  1  0.09223776  0.04535606  0.93381406  1
  In  In20  1  0.16126219  0.32732037  0.36211918  1
  In  In21  1  0.16331482  0.34515287  0.88380296  1
  In  In22  1  0.16634804  0.65488690  0.36771440  1
  In  In23  1  0.16365714  0.66835147  0.88775191  1
  In  In24  1  0.49946986  0.01254908  0.37439133  1
  In  In25  1  0.49990678  0.01466364  0.87982046  1
  In  In26  1  0.49418009  0.32930119  0.36267123  1
  In  In27  1  0.49882372  0.33383192  0.87948519  1
  In  In28  1  0.49383614  0.66481994  0.37135744  1
  In  In29  1  0.50273687  0.65390542  0.87692854  1
  In  In30  1  0.84029501  0.00155160  0.38402059  1
  In  In31  1  0.85030989  0.00639879  0.86541913  1
  In  In32  1  0.83364589  0.33076817  0.37677638  1
  In  In33  1  0.83020048  0.34174281  0.87039018  1
  In  In34  1  0.83694681  0.66543412  0.38951602  1
  In  In35  1  0.82200236  0.66039043  0.86285320  1
  In  In36  1  0.00547592  0.17298670  0.37376875  1
  In  In37  1  -0.00787404  0.18328372  0.86227081  1
  In  In38  1  -0.00375294  0.48942995  0.37254872  1
  In  In39  1  0.00401006  0.49243446  0.87721874  1
  In  In40  1  -0.01387057  0.84141127  0.38064754  1
  In  In41  1  -0.00287068  0.84957059  0.87513351  1
  In  In42  1  0.33484897  0.17036084  0.36934769  1
  In  In43  1  0.32016575  0.16676883  0.89372185  1
  In  In44  1  0.33359714  0.49377961  0.34957130  1
  In  In45  1  0.33530540  0.49879964  0.88905340  1
  In  In46  1  0.32880773  0.83274058  0.36323898  1
  In  In47  1  0.31332837  0.83741901  0.88038032  1
  In  In48  1  0.66174318  0.17716940  0.38679464  1
  In  In49  1  0.65984130  0.18222882  0.87396155  1
  In  In50  1  0.68097049  0.49428681  0.37846589  1
  In  In51  1  0.66286719  0.50050868  0.87125361  1
  In  In52  1  0.67621226  0.83837689  0.38152763  1
  In  In53  1  0.67699780  0.83090773  0.86818486  1
  In  In54  1  0.16414176  0.00318947  0.12398602  1
  In  In55  1  0.14574333  0.00432562  0.63327091  1
  In  In56  1  0.16395215  0.32830850  0.12136240  1
  In  In57  1  0.16342597  0.32199979  0.61907294  1
  In  In58  1  0.17239254  0.67344822  0.11820818  1
  In  In59  1  0.16670975  0.66224080  0.62653684  1
  In  In60  1  0.48789839  0.00613583  0.12841161  1
  In  In61  1  0.49153486  0.00401631  0.61862991  1
  In  In62  1  0.50494397  0.33224493  0.12684779  1
  In  In63  1  0.52400584  0.32960629  0.62911782  1
  In  In64  1  0.50104704  0.64352879  0.12467939  1
  In  In65  1  0.51069310  0.66032378  0.62948806  1
  In  In66  1  0.83574682  0.01514740  0.12411167  1
  In  In67  1  0.85344179  0.01650783  0.61600696  1
  In  In68  1  0.83430446  0.33303987  0.12494311  1
  In  In69  1  0.83312198  0.30770936  0.62550144  1
  In  In70  1  0.84340414  0.66000014  0.12467187  1
  In  In71  1  0.81841755  0.63999552  0.61390300  1
  In  In72  1  0.66795897  0.66099918  0.25135450  1
  In  In73  1  0.83843494  0.83465672  -0.01396173  1
  In  In74  1  0.32528809  -0.00407216  0.75345506  1
  In  In75  1  0.66961838  0.00421823  0.74604251  1
  In  In76  1  0.16872084  0.84015404  0.50577051  1
  In  In77  1  0.32758842  0.67564026  0.75229478  1
  In  In78  1  0.33595951  0.33705530  0.75699797  1
  In  In79  1  0.66777704  0.00692118  0.26200107  1
  In  In80  1  0.00122761  0.66905818  0.24962092  1
  In  In81  1  0.15400977  0.48245482  0.48942812  1
  In  In82  1  0.50610901  0.49980713  0.50015708  1
  In  In83  1  0.50289433  0.83566189  0.50203493  1
  In  In84  1  -0.00535931  0.66116747  0.74373722  1
  In  In85  1  0.50175025  0.83474515  0.00699461  1
  Cu  Cu86  1  0.16773330  0.49960491  0.75458914  1
  Cu  Cu87  1  0.67606774  -0.00657667  0.50053760  1
  Cu  Cu88  1  0.83781161  0.84141511  0.25750297  1
  Cu  Cu89  1  0.15061858  0.84401890  0.75719776  1
  Cu  Cu90  1  0.50082060  0.16471858  0.24889395  1
  Cu  Cu91  1  0.16440353  0.49901136  0.24139834  1
  Cu  Cu92  1  0.16066107  0.83897339  0.24534802  1
  Cu  Cu93  1  0.33310956  0.33335344  0.00803685  1
  Cu  Cu94  1  0.82933797  0.49362899  0.24880058  1
  Cu  Cu95  1  0.33093704  0.00846533  0.49376758  1
  Cu  Cu96  1  0.66792689  0.66071373  0.50525591  1
  Cu  Cu97  1  0.34026934  0.33337666  0.49004595  1
  Cu  Cu98  1  0.49526626  0.17131713  0.75202777  1
  Cu  Cu99  1  0.01075403  0.00921308  0.49916126  1
  Cu  Cu100  1  0.67620092  0.66404094  -0.00535630  1
  Cu  Cu101  1  0.32631140  0.65870871  0.49329175  1
  Cu  Cu102  1  0.66792883  0.01644110  -0.00396948  1
  Cu  Cu103  1  -0.00567448  0.33117820  -0.00053051  1
  Cu  Cu104  1  0.83947759  0.17269885  0.24859478  1
  Cu  Cu105  1  -0.00335298  0.65566654  -0.00084353  1
  Cu  Cu106  1  0.16977405  0.16870305  0.24381365  1
  Cu  Cu107  1  0.49819297  0.82559614  0.24983864  1
  Cu  Cu108  1  0.33845167  0.66306849  0.00615806  1
  Cu  Cu109  1  0.50186052  0.83021089  0.75371491  1
  Cu  Cu110  1  0.67420962  0.33617526  0.50995461  1
  Cu  Cu111  1  0.32798289  -0.00147552  0.00971307  1
  Cu  Cu112  1  -0.00702321  0.33420447  0.49806747  1
  Cu  Cu113  1  0.16275010  0.16109117  0.75845944  1
  Cu  Cu114  1  0.67095891  0.33251088  -0.00391450  1
  Se  Se115  1  0.08210926  0.08633381  0.05568225  1
  Se  Se116  1  0.09586512  0.08850085  0.55283499  1
  Se  Se117  1  0.08021127  0.41180863  0.05292314  1
  Se  Se118  1  0.06807277  0.41338769  0.56384713  1
  Se  Se119  1  0.07552724  0.74241145  0.05226802  1
  Se  Se120  1  0.08165708  0.74334799  0.55884545  1
  Se  Se121  1  0.41559804  0.08371648  0.05369764  1
  Se  Se122  1  0.41926898  0.08702061  0.54663735  1
  Se  Se123  1  0.41906571  0.41457341  0.05906745  1
  Se  Se124  1  0.41491753  0.40596858  0.55798005  1
  Se  Se125  1  0.41448798  0.74602361  0.06766701  1
  Se  Se126  1  0.41117217  0.73346541  0.55392357  1
  Se  Se127  1  0.75645699  0.08969702  0.05094177  1
  Se  Se128  1  0.75591253  0.08288444  0.54934008  1
  Se  Se129  1  0.75630127  0.41316356  0.05054051  1
  Se  Se130  1  0.74921366  0.41183631  0.57457468  1
  Se  Se131  1  0.75077753  0.74790235  0.05534072  1
  Se  Se132  1  0.75226735  0.74670648  0.55349041  1
  Se  Se133  1  0.24551710  0.24573786  0.05118360  1
  Se  Se134  1  0.25227962  0.25740990  0.54605184  1
  Se  Se135  1  0.25443573  0.58088124  0.05862386  1
  Se  Se136  1  0.24794414  0.57776757  0.55221771  1
  Se  Se137  1  0.24691979  0.91200779  0.05953441  1
  Se  Se138  1  0.25987842  0.93224088  0.56381269  1
  Se  Se139  1  0.58674408  0.25364670  0.05308326  1
  Se  Se140  1  0.58178022  0.24812544  0.54958606  1
  Se  Se141  1  0.59111795  0.58556944  0.05002464  1
  Se  Se142  1  0.59623931  0.57685876  0.56560122  1
  Se  Se143  1  0.59432754  0.93329182  0.05869816  1
  Se  Se144  1  0.59464264  0.91861608  0.56408189  1
  Se  Se145  1  0.91599654  0.24874268  0.05701973  1
  Se  Se146  1  0.92225735  0.24158417  0.55241546  1
  Se  Se147  1  0.91027683  0.57666898  0.05093945  1
  Se  Se148  1  0.92880401  0.58082852  0.55744991  1
  Se  Se149  1  0.91589704  0.92260596  0.05560949  1
  Se  Se150  1  0.92970013  0.92294301  0.55134917  1
  Se  Se151  1  0.08396341  0.26182462  0.44226660  1
  Se  Se152  1  0.07477425  0.25454432  0.93979457  1
  Se  Se153  1  0.07335773  0.58876192  0.43877492  1
  Se  Se154  1  0.08409204  0.57533108  0.94788620  1
  Se  Se155  1  0.08811137  0.92720830  0.43813623  1
  Se  Se156  1  0.08709514  0.89946962  0.95002534  1
  Se  Se157  1  0.42232277  0.24968714  0.43794996  1
  Se  Se158  1  0.41255145  0.25416410  0.94777332  1
  Se  Se159  1  0.40553523  0.57706546  0.43605067  1
  Se  Se160  1  0.42212339  0.58377289  0.95174419  1
  Se  Se161  1  0.40779277  0.91831853  0.43974520  1
  Se  Se162  1  0.41247563  0.92250273  0.94424078  1
  Se  Se163  1  0.75276800  0.25373202  0.45132585  1
  Se  Se164  1  0.75386613  0.25313533  0.93985550  1
  Se  Se165  1  0.75104471  0.57878929  0.45095894  1
  Se  Se166  1  0.75256806  0.58038177  0.93893218  1
  Se  Se167  1  0.76137452  0.91141110  0.45055659  1
  Se  Se168  1  0.74382398  0.93215573  0.93580628  1
  Se  Se169  1  0.25019731  0.09217937  0.44123422  1
  Se  Se170  1  0.24559655  0.06166910  0.94309249  1
  Se  Se171  1  0.26007995  0.41261848  0.43025624  1
  Se  Se172  1  0.25034319  0.41768727  0.95397731  1
  Se  Se173  1  0.25042970  0.74548392  0.43867104  1
  Se  Se174  1  0.25465559  0.74533318  0.95317784  1
  Se  Se175  1  0.59049146  0.07352705  0.44658792  1
  Se  Se176  1  0.58154195  0.09704138  0.94528537  1
  Se  Se177  1  0.59163306  0.40529250  0.44219577  1
  Se  Se178  1  0.58664528  0.41616192  0.94345356  1
  Se  Se179  1  0.58951957  0.73908195  0.44237431  1
  Se  Se180  1  0.59289543  0.75108213  0.94254143  1
  Se  Se181  1  0.92591953  0.08925177  0.44485950  1
  Se  Se182  1  0.93429889  0.07987494  0.93626852  1
  Se  Se183  1  0.91227375  0.41919156  0.44558280  1
  Se  Se184  1  0.91485766  0.41551778  0.94361455  1
  Se  Se185  1  0.92375421  0.74916920  0.44905456  1
  Se  Se186  1  0.92321917  0.73482673  0.93278463  1
  Se  Se187  1  0.25351906  0.25108439  0.29856647  1
  Se  Se188  1  0.24507455  0.24486721  0.81369733  1
  Se  Se189  1  0.24602212  0.58515695  0.29316522  1
  Se  Se190  1  0.24483771  0.58064546  0.81351588  1
  Se  Se191  1  0.24801971  0.91882921  0.29891072  1
  Se  Se192  1  0.22994020  0.92274163  0.81621146  1
  Se  Se193  1  0.58579111  0.24123942  0.30563701  1
  Se  Se194  1  0.57481349  0.25742048  0.80319797  1
  Se  Se195  1  0.58201666  0.57285099  0.31323447  1
  Se  Se196  1  0.59370055  0.59831362  0.80548761  1
  Se  Se197  1  0.57621212  0.90475033  0.31238531  1
  Se  Se198  1  0.57472327  0.91829981  0.81101140  1
  Se  Se199  1  0.91931331  0.25440990  0.30669218  1
  Se  Se200  1  0.91235863  0.26701896  0.79561946  1
  Se  Se201  1  0.90556234  0.58117825  0.30689387  1
  Se  Se202  1  0.91249667  0.56743716  0.80475218  1
  Se  Se203  1  0.91843543  0.92690954  0.30734974  1
  Se  Se204  1  0.89612628  0.89542559  0.80456666  1
  Se  Se205  1  0.08613858  0.09147621  0.30246109  1
  Se  Se206  1  0.08943668  0.08455911  0.82277964  1
  Se  Se207  1  0.08257207  0.42169438  0.30037411  1
  Se  Se208  1  0.08655780  0.41433742  0.80552905  1
  Se  Se209  1  0.08650057  0.76117737  0.31152142  1
  Se  Se210  1  0.08308144  0.74663789  0.81051788  1
  Se  Se211  1  0.41651366  0.08248990  0.30193232  1
  Se  Se212  1  0.41189214  0.09454389  0.81020413  1
  Se  Se213  1  0.42957689  0.41934425  0.29204065  1
  Se  Se214  1  0.42164955  0.43240746  0.81189832  1
  Se  Se215  1  0.41356284  0.74436122  0.30188337  1
  Se  Se216  1  0.41678119  0.76147718  0.81671396  1
  Se  Se217  1  0.76074409  0.09771033  0.31549497  1
  Se  Se218  1  0.75161230  0.09311670  0.80960748  1
  Se  Se219  1  0.75055259  0.41107390  0.30511666  1
  Se  Se220  1  0.74195991  0.41710606  0.80043221  1
  Se  Se221  1  0.75886510  0.75417824  0.31050618  1
  Se  Se222  1  0.76496166  0.76460157  0.79869517  1
  Se  Se223  1  0.25093964  0.08355101  0.19107048  1
  Se  Se224  1  0.24622174  0.09323181  0.69086084  1
  Se  Se225  1  0.24556890  0.41363394  0.18960460  1
  Se  Se226  1  0.24512293  0.42093480  0.69084554  1
  Se  Se227  1  0.24285315  0.75203503  0.19550430  1
  Se  Se228  1  0.23253230  0.76779725  0.69500499  1
  Se  Se229  1  0.58650216  0.08798077  0.19020776  1
  Se  Se230  1  0.56935867  0.08907213  0.69007915  1
  Se  Se231  1  0.58894359  0.41464032  0.19395789  1
  Se  Se232  1  0.56477324  0.43535361  0.69423630  1
  Se  Se233  1  0.58147979  0.75410723  0.18873389  1
  Se  Se234  1  0.58194372  0.74964032  0.69842494  1
  Se  Se235  1  0.91799121  0.08444082  0.19782687  1
  Se  Se236  1  0.92475888  0.08828084  0.69315544  1
  Se  Se237  1  0.91633381  0.41476784  0.19613502  1
  Se  Se238  1  0.92644544  0.37386042  0.70000065  1
  Se  Se239  1  0.91020565  0.76192515  0.19147592  1
  Se  Se240  1  0.91192183  0.74479585  0.67816485  1
  Se  Se241  1  0.08265386  0.25086017  0.19416926  1
  Se  Se242  1  0.09323344  0.24544685  0.69621310  1
  Se  Se243  1  0.08225794  0.58007427  0.18394884  1
  Se  Se244  1  0.08671444  0.56721577  0.68730090  1
  Se  Se245  1  0.07806259  0.92093979  0.19272660  1
  Se  Se246  1  0.06786369  0.92397074  0.70347485  1
  Se  Se247  1  0.42040990  0.24313327  0.19002628  1
  Se  Se248  1  0.41485194  0.24630286  0.68808223  1
  Se  Se249  1  0.41787234  0.58017494  0.19845269  1
  Se  Se250  1  0.41581528  0.58193779  0.69624807  1
  Se  Se251  1  0.42175977  0.91726766  0.20015688  1
  Se  Se252  1  0.42220072  0.90709913  0.69232685  1
  Se  Se253  1  0.75244884  0.25075057  0.19560005  1
  Se  Se254  1  0.73290273  0.24465297  0.69236508  1
  Se  Se255  1  0.75392081  0.57529304  0.18760301  1
  Se  Se256  1  0.75882373  0.58390847  0.70300259  1
  Se  Se257  1  0.75434103  0.91658556  0.19671407  1
  Se  Se258  1  0.75832445  0.92414650  0.68146053  1
