# generated using pymatgen
data_In86Cu29Se144
_symmetry_space_group_name_H-M   'P 1'
_cell_length_a   17.60061350
_cell_length_b   17.60104940
_cell_length_c   23.46328718
_cell_angle_alpha   90.01816834
_cell_angle_beta   89.99498412
_cell_angle_gamma   89.99438057
_symmetry_Int_Tables_number   1
_chemical_formula_structural   In86Cu29Se144
_chemical_formula_sum   'In86 Cu29 Se144'
_cell_volume   7268.67412410
_cell_formula_units_Z   1
loop_
 _symmetry_equiv_pos_site_id
 _symmetry_equiv_pos_as_xyz
  1  'x, y, z'
loop_
 _atom_site_type_symbol
 _atom_site_label
 _atom_site_symmetry_multiplicity
 _atom_site_fract_x
 _atom_site_fract_y
 _atom_site_fract_z
 _atom_site_occupancy
  In  In0  1  0.00499327  0.15915183  0.13277318  1
  In  In1  1  0.00755485  0.18009415  0.61044120  1
  In  In2  1  0.00363733  0.51390072  0.12267876  1
  In  In3  1  0.00684227  0.48652524  0.63073023  1
  In  In4  1  0.00556000  0.84012960  0.13789003  1
  In  In5  1  0.00637609  0.84172660  0.60903590  1
  In  In6  1  0.34705510  0.15009589  0.12990934  1
  In  In7  1  0.33486545  0.17088001  0.62266872  1
  In  In8  1  0.34370429  0.50181490  0.12644740  1
  In  In9  1  0.32114159  0.49586896  0.62609858  1
  In  In10  1  0.32872384  0.83983299  0.13928266  1
  In  In11  1  0.33261730  0.83505406  0.60882337  1
  In  In12  1  0.65795157  0.17866095  0.13076368  1
  In  In13  1  0.66520957  0.16486935  0.62331709  1
  In  In14  1  0.66301146  0.49960355  0.12284203  1
  In  In15  1  0.65818650  0.49672269  0.62936229  1
  In  In16  1  0.66779660  0.83501864  0.13759894  1
  In  In17  1  0.67791402  0.84752159  0.61093226  1
  In  In18  1  0.16902479  -0.00593713  0.36324040  1
  In  In19  1  0.16035492  -0.01412011  0.87858040  1
  In  In20  1  0.17386056  0.33097261  0.38726696  1
  In  In21  1  0.16601801  0.33695861  0.84914033  1
  In  In22  1  0.16490760  0.67096756  0.36929636  1
  In  In23  1  0.18538962  0.67414734  0.88108361  1
  In  In24  1  0.49803913  0.00245582  0.37229946  1
  In  In25  1  0.51474234  -0.00579416  0.87500062  1
  In  In26  1  0.50061199  0.31694476  0.37937725  1
  In  In27  1  0.50039336  0.33110717  0.87565967  1
  In  In28  1  0.51452244  0.67572013  0.36522413  1
  In  In29  1  0.48624919  0.64507658  0.88628201  1
  In  In30  1  0.83204230  0.00211451  0.37497950  1
  In  In31  1  0.83855436  0.01208779  0.87587938  1
  In  In32  1  0.82128324  0.33265780  0.37786320  1
  In  In33  1  0.83715320  0.33244507  0.87070216  1
  In  In34  1  0.84589345  0.67896051  0.36582081  1
  In  In35  1  0.81890917  0.66724515  0.88192519  1
  In  In36  1  0.01449045  0.14968414  0.38275802  1
  In  In37  1  -0.00531645  0.16980745  0.87092199  1
  In  In38  1  0.00395602  0.51580181  0.37130091  1
  In  In39  1  0.00455355  0.48592707  0.87888449  1
  In  In40  1  0.00258350  0.83290249  0.37063404  1
  In  In41  1  0.01683548  0.84444526  0.87859356  1
  In  In42  1  0.33814323  0.16023046  0.37779977  1
  In  In43  1  0.33179740  0.17872253  0.87502342  1
  In  In44  1  0.31791899  0.49908505  0.37534463  1
  In  In45  1  0.34082651  0.49199933  0.87709197  1
  In  In46  1  0.33441944  0.83687316  0.36912614  1
  In  In47  1  0.32448356  0.81737425  0.87955242  1
  In  In48  1  0.66459637  0.16652436  0.37548242  1
  In  In49  1  0.66541844  0.16199949  0.87099043  1
  In  In50  1  0.67050363  0.49776341  0.36565191  1
  In  In51  1  0.67877981  0.47733399  0.89732922  1
  In  In52  1  0.66615512  0.83839089  0.37366662  1
  In  In53  1  0.66195029  0.83729071  0.87250950  1
  In  In54  1  0.17809033  -0.00640110  0.14604154  1
  In  In55  1  0.17071898  0.00457940  0.61246239  1
  In  In56  1  0.15916774  0.33155652  0.12370093  1
  In  In57  1  0.16506735  0.33032054  0.63075310  1
  In  In58  1  0.15374112  0.68891966  0.15079815  1
  In  In59  1  0.16684527  0.66760668  0.61366290  1
  In  In60  1  0.50318700  0.00521130  0.12889366  1
  In  In61  1  0.50684428  0.01131822  0.61410157  1
  In  In62  1  0.51742670  0.34687593  0.10619927  1
  In  In63  1  0.51154230  0.32100851  0.63710644  1
  In  In64  1  0.50292731  0.66400082  0.13619827  1
  In  In65  1  0.48976179  0.66953104  0.61966838  1
  In  In66  1  0.83744587  -0.00328068  0.13697280  1
  In  In67  1  0.82957403  0.00034010  0.61394858  1
  In  In68  1  0.81220764  0.33299316  0.11693204  1
  In  In69  1  0.84037723  0.32321892  0.63097976  1
  In  In70  1  0.83935746  0.65912444  0.12988212  1
  In  In71  1  0.83056971  0.67370558  0.61622623  1
  In  In72  1  -0.00385985  0.33045473  0.24788279  1
  In  In73  1  -0.00297888  0.65955700  0.74528081  1
  In  In74  1  0.65686377  0.66422324  0.75343237  1
  In  In75  1  0.18085897  0.51109322  -0.00035459  1
  In  In76  1  0.83872084  0.50118563  0.50266902  1
  In  In77  1  0.49554183  0.50207817  0.50261627  1
  In  In78  1  0.83793221  0.16603989  -0.00224692  1
  In  In79  1  0.17069831  0.16470941  0.00059057  1
  In  In80  1  0.33780696  0.00304534  0.73804438  1
  In  In81  1  0.34147100  0.33006590  0.25338749  1
  In  In82  1  0.00155520  0.00820653  0.74753395  1
  In  In83  1  0.84038931  0.82735065  0.01366696  1
  In  In84  1  0.33468185  0.65835114  0.75713358  1
  In  In85  1  0.49259518  0.83050065  0.00930482  1
  Cu  Cu86  1  0.50126653  0.48799944  0.75649319  1
  Cu  Cu87  1  0.50552819  0.83356658  0.74751672  1
  Cu  Cu88  1  0.17015935  0.82807046  0.74582080  1
  Cu  Cu89  1  0.00162077  0.33313164  0.50405444  1
  Cu  Cu90  1  0.83130756  0.16775828  0.25370619  1
  Cu  Cu91  1  0.50200823  0.49748366  0.24585607  1
  Cu  Cu92  1  0.50609742  0.16788797  0.25075051  1
  Cu  Cu93  1  0.33023585  0.33066154  0.50463125  1
  Cu  Cu94  1  0.33738097  0.32958187  -0.00180363  1
  Cu  Cu95  1  0.66116712  0.00440213  0.49292068  1
  Cu  Cu96  1  0.82659638  0.49864233  0.75650275  1
  Cu  Cu97  1  0.32648964  -0.00306882  0.49127677  1
  Cu  Cu98  1  0.50136519  0.16401690  0.74885621  1
  Cu  Cu99  1  0.67188227  0.67441137  0.49059780  1
  Cu  Cu100  1  0.33388545  0.67116316  0.49188417  1
  Cu  Cu101  1  0.82744405  0.83586544  0.25514321  1
  Cu  Cu102  1  0.82751730  0.16592997  0.74742547  1
  Cu  Cu103  1  0.33541512  -0.00429640  0.00966843  1
  Cu  Cu104  1  -0.00223615  0.33116938  -0.00598689  1
  Cu  Cu105  1  0.83261372  0.84341522  0.73993017  1
  Cu  Cu106  1  0.00132228  0.66995928  0.00828530  1
  Cu  Cu107  1  0.16524427  0.50096361  0.25042156  1
  Cu  Cu108  1  0.67614005  0.00402853  -0.00158958  1
  Cu  Cu109  1  0.65404548  0.65901323  0.00435380  1
  Cu  Cu110  1  0.82706848  0.49530475  0.24556351  1
  Cu  Cu111  1  0.00734661  0.67101526  0.49088326  1
  Cu  Cu112  1  0.49996808  0.83822372  0.25269473  1
  Cu  Cu113  1  0.66133621  0.32668410  0.50347185  1
  Cu  Cu114  1  -0.00402750  -0.00138247  0.48994861  1
  Se  Se115  1  0.09000270  0.07598616  0.06564504  1
  Se  Se116  1  0.07770594  0.07983362  0.54820059  1
  Se  Se117  1  0.07912747  0.41506981  0.05185296  1
  Se  Se118  1  0.08672293  0.41512373  0.55617772  1
  Se  Se119  1  0.07833661  0.75035305  0.06697265  1
  Se  Se120  1  0.09060531  0.75485874  0.54582014  1
  Se  Se121  1  0.42582425  0.08064999  0.05193723  1
  Se  Se122  1  0.40425562  0.07822621  0.55250999  1
  Se  Se123  1  0.41262780  0.42109162  0.05011277  1
  Se  Se124  1  0.41613175  0.40676660  0.56486094  1
  Se  Se125  1  0.40491983  0.74428370  0.07017492  1
  Se  Se126  1  0.42079411  0.75144145  0.54486473  1
  Se  Se127  1  0.75204977  0.07951871  0.06367899  1
  Se  Se128  1  0.74453776  0.08581350  0.54973305  1
  Se  Se129  1  0.74062597  0.41985387  0.04866168  1
  Se  Se130  1  0.74289563  0.41243090  0.56001096  1
  Se  Se131  1  0.73614149  0.74125422  0.06226260  1
  Se  Se132  1  0.75605266  0.75613598  0.54510050  1
  Se  Se133  1  0.26066352  0.25383763  0.06324716  1
  Se  Se134  1  0.24419679  0.24828670  0.55663350  1
  Se  Se135  1  0.24080126  0.59328816  0.07966803  1
  Se  Se136  1  0.25984247  0.58685611  0.55206280  1
  Se  Se137  1  0.25111995  0.92026136  0.06571954  1
  Se  Se138  1  0.24246949  0.91281433  0.54453777  1
  Se  Se139  1  0.58635865  0.24324256  0.04842154  1
  Se  Se140  1  0.57555679  0.24533711  0.55534690  1
  Se  Se141  1  0.56894051  0.58112509  0.05866134  1
  Se  Se142  1  0.59567251  0.59487111  0.55522168  1
  Se  Se143  1  0.59635077  0.91971579  0.05743748  1
  Se  Se144  1  0.57973910  0.91781939  0.54729068  1
  Se  Se145  1  0.92717273  0.25488439  0.06287388  1
  Se  Se146  1  0.90733628  0.25235267  0.54793289  1
  Se  Se147  1  0.91353726  0.58270112  0.05164281  1
  Se  Se148  1  0.93380996  0.59187487  0.55968440  1
  Se  Se149  1  0.92705043  0.92810527  0.06148202  1
  Se  Se150  1  0.91270035  0.91655419  0.54618866  1
  Se  Se151  1  0.08293549  0.24869287  0.44864427  1
  Se  Se152  1  0.08476129  0.25695723  0.93626177  1
  Se  Se153  1  0.09112731  0.58272569  0.44403629  1
  Se  Se154  1  0.07840162  0.59322691  0.94095329  1
  Se  Se155  1  0.08338682  0.91928156  0.43781007  1
  Se  Se156  1  0.09336307  0.90988428  0.95660319  1
  Se  Se157  1  0.41259101  0.24759730  0.45011895  1
  Se  Se158  1  0.42062602  0.24516700  0.94676286  1
  Se  Se159  1  0.41552315  0.58896546  0.43413356  1
  Se  Se160  1  0.37419157  0.60074484  0.94730082  1
  Se  Se161  1  0.41548308  0.91706051  0.44040919  1
  Se  Se162  1  0.41066111  0.91949515  0.94026209  1
  Se  Se163  1  0.74646697  0.24798446  0.44842037  1
  Se  Se164  1  0.74498286  0.25359120  0.94116206  1
  Se  Se165  1  0.75130271  0.58677642  0.43707064  1
  Se  Se166  1  0.74803486  0.58383849  0.95444772  1
  Se  Se167  1  0.74782822  0.91960096  0.44433283  1
  Se  Se168  1  0.75425621  0.91661775  0.94265464  1
  Se  Se169  1  0.24389947  0.07885969  0.43724363  1
  Se  Se170  1  0.26072685  0.07184275  0.94034614  1
  Se  Se171  1  0.25093208  0.42052750  0.45429113  1
  Se  Se172  1  0.24642475  0.40057817  0.93895078  1
  Se  Se173  1  0.25065172  0.75199459  0.43756995  1
  Se  Se174  1  0.24054773  0.76115809  0.95818225  1
  Se  Se175  1  0.57540371  0.08881297  0.44348110  1
  Se  Se176  1  0.58831541  0.08083933  0.94518418  1
  Se  Se177  1  0.58991184  0.41477441  0.44312941  1
  Se  Se178  1  0.55139670  0.44011499  0.94116660  1
  Se  Se179  1  0.58147648  0.75521807  0.44348715  1
  Se  Se180  1  0.58317806  0.74345457  0.94133768  1
  Se  Se181  1  0.90989280  0.08818538  0.44618952  1
  Se  Se182  1  0.93743007  0.07301864  0.94720661  1
  Se  Se183  1  0.92655155  0.41357233  0.43847128  1
  Se  Se184  1  0.91115591  0.41529510  0.94589249  1
  Se  Se185  1  0.91764951  0.75295635  0.44431507  1
  Se  Se186  1  0.92549736  0.74650003  0.93990026  1
  Se  Se187  1  0.24582026  0.24657364  0.31124055  1
  Se  Se188  1  0.24970756  0.23991057  0.79849433  1
  Se  Se189  1  0.25036080  0.58415513  0.30148204  1
  Se  Se190  1  0.23822191  0.56984745  0.81089755  1
  Se  Se191  1  0.23816784  0.89652022  0.29681906  1
  Se  Se192  1  0.25199637  0.90932658  0.80412909  1
  Se  Se193  1  0.58685047  0.25422524  0.30394626  1
  Se  Se194  1  0.58215613  0.24749395  0.80554606  1
  Se  Se195  1  0.58680296  0.58067136  0.29963474  1
  Se  Se196  1  0.57878361  0.57082844  0.81702014  1
  Se  Se197  1  0.58448943  0.92184361  0.30435225  1
  Se  Se198  1  0.58965201  0.91792991  0.79794941  1
  Se  Se199  1  0.91382175  0.24445109  0.31530857  1
  Se  Se200  1  0.91454872  0.24781946  0.79995073  1
  Se  Se201  1  0.91024670  0.57755936  0.29995446  1
  Se  Se202  1  0.90583736  0.58133384  0.81406540  1
  Se  Se203  1  0.91343067  0.91786684  0.30645680  1
  Se  Se204  1  0.91518290  0.91058424  0.80782839  1
  Se  Se205  1  0.07871326  0.07859837  0.30093141  1
  Se  Se206  1  0.09629733  0.08798326  0.81093766  1
  Se  Se207  1  0.09005552  0.41617576  0.31091800  1
  Se  Se208  1  0.06950068  0.41998913  0.79583660  1
  Se  Se209  1  0.05941826  0.72821007  0.30497949  1
  Se  Se210  1  0.09021799  0.75016297  0.80648047  1
  Se  Se211  1  0.41731141  0.08722643  0.30147885  1
  Se  Se212  1  0.42319270  0.08189161  0.80969514  1
  Se  Se213  1  0.42712803  0.42352662  0.31570484  1
  Se  Se214  1  0.41086051  0.40712831  0.80382863  1
  Se  Se215  1  0.41835195  0.74995056  0.30232903  1
  Se  Se216  1  0.43066937  0.75358657  0.81126386  1
  Se  Se217  1  0.74708300  0.08443628  0.30611097  1
  Se  Se218  1  0.75164829  0.07889470  0.80346346  1
  Se  Se219  1  0.74952141  0.40875077  0.29969079  1
  Se  Se220  1  0.74361388  0.41588736  0.80930083  1
  Se  Se221  1  0.74432057  0.74844119  0.30470958  1
  Se  Se222  1  0.75822589  0.75976831  0.80248729  1
  Se  Se223  1  0.25761980  0.09184994  0.20268383  1
  Se  Se224  1  0.23655839  0.09048470  0.69023833  1
  Se  Se225  1  0.24445767  0.41765201  0.19193748  1
  Se  Se226  1  0.25174780  0.41260553  0.69734230  1
  Se  Se227  1  0.23675151  0.77549193  0.21311196  1
  Se  Se228  1  0.25431864  0.75086740  0.68812762  1
  Se  Se229  1  0.58995752  0.08298540  0.19815763  1
  Se  Se230  1  0.58251285  0.08067526  0.69350006  1
  Se  Se231  1  0.58248427  0.41246936  0.19230559  1
  Se  Se232  1  0.59016495  0.41202786  0.70266435  1
  Se  Se233  1  0.58358137  0.75089990  0.20223273  1
  Se  Se234  1  0.58276287  0.75508710  0.68352104  1
  Se  Se235  1  0.91732950  0.08633030  0.20219675  1
  Se  Se236  1  0.91100363  0.09124436  0.68476208  1
  Se  Se237  1  0.91114494  0.41984673  0.18345533  1
  Se  Se238  1  0.90845718  0.42171804  0.69649798  1
  Se  Se239  1  0.90790584  0.75680881  0.19465918  1
  Se  Se240  1  0.91546213  0.76092111  0.68608313  1
  Se  Se241  1  0.09831861  0.24049597  0.19906292  1
  Se  Se242  1  0.07018588  0.25055095  0.69266557  1
  Se  Se243  1  0.07602663  0.58283407  0.20251223  1
  Se  Se244  1  0.09876504  0.57917936  0.69099650  1
  Se  Se245  1  0.06892425  0.93639462  0.20678887  1
  Se  Se246  1  0.09132785  0.91196182  0.68878108  1
  Se  Se247  1  0.43243178  0.25172801  0.18685610  1
  Se  Se248  1  0.41380237  0.24566911  0.69844113  1
  Se  Se249  1  0.41288861  0.58305872  0.20254969  1
  Se  Se250  1  0.42826594  0.57277282  0.69402339  1
  Se  Se251  1  0.42114186  0.92409036  0.19823593  1
  Se  Se252  1  0.42556235  0.90598068  0.68328553  1
  Se  Se253  1  0.75250697  0.25197766  0.19726714  1
  Se  Se254  1  0.74402090  0.25024107  0.69481125  1
  Se  Se255  1  0.74592100  0.58167073  0.19319159  1
  Se  Se256  1  0.75696038  0.58255256  0.69141377  1
  Se  Se257  1  0.74562096  0.92316303  0.20388695  1
  Se  Se258  1  0.74808798  0.92490245  0.68954442  1
