# generated using pymatgen
data_In86Cu29Se144
_symmetry_space_group_name_H-M   'P 1'
_cell_length_a   17.58517517
_cell_length_b   17.58159825
_cell_length_c   23.44817664
_cell_angle_alpha   89.98759778
_cell_angle_beta   89.99721199
_cell_angle_gamma   89.99654032
_symmetry_Int_Tables_number   1
_chemical_formula_structural   In86Cu29Se144
_chemical_formula_sum   'In86 Cu29 Se144'
_cell_volume   7249.60119355
_cell_formula_units_Z   1
loop_
 _symmetry_equiv_pos_site_id
 _symmetry_equiv_pos_as_xyz
  1  'x, y, z'
loop_
 _atom_site_type_symbol
 _atom_site_label
 _atom_site_symmetry_multiplicity
 _atom_site_fract_x
 _atom_site_fract_y
 _atom_site_fract_z
 _atom_site_occupancy
  In  In0  1  -0.00697259  0.15423123  0.11731080  1
  In  In1  1  0.00993749  0.16186543  0.62841278  1
  In  In2  1  -0.00480812  0.52624467  0.11720673  1
  In  In3  1  0.00026900  0.50388489  0.62435504  1
  In  In4  1  0.00988830  0.82087235  0.12592306  1
  In  In5  1  -0.00109633  0.83479840  0.61403924  1
  In  In6  1  0.31736984  0.16104072  0.11824892  1
  In  In7  1  0.34041569  0.14382088  0.63340762  1
  In  In8  1  0.34856368  0.50224079  0.12377773  1
  In  In9  1  0.35896119  0.50200036  0.61904527  1
  In  In10  1  0.33536997  0.83404476  0.12943507  1
  In  In11  1  0.34321302  0.82736625  0.61973992  1
  In  In12  1  0.67843057  0.16950258  0.12526566  1
  In  In13  1  0.66058846  0.17457377  0.63570933  1
  In  In14  1  0.66393572  0.50402969  0.12675968  1
  In  In15  1  0.64062498  0.52087578  0.64279165  1
  In  In16  1  0.64936331  0.83118369  0.12383228  1
  In  In17  1  0.66742859  0.83283641  0.62531809  1
  In  In18  1  0.16119414  -0.01166031  0.36682785  1
  In  In19  1  0.17088294  -0.00731263  0.88432956  1
  In  In20  1  0.17070639  0.32595078  0.37165289  1
  In  In21  1  0.15266019  0.33118950  0.87778096  1
  In  In22  1  0.18482931  0.68885705  0.35989082  1
  In  In23  1  0.18025825  0.67238539  0.87147418  1
  In  In24  1  0.49830240  0.00624831  0.37774943  1
  In  In25  1  0.48588734  -0.01676034  0.86398289  1
  In  In26  1  0.51061062  0.32616817  0.37795462  1
  In  In27  1  0.51475799  0.33404502  0.87378130  1
  In  In28  1  0.49645350  0.66434917  0.38530922  1
  In  In29  1  0.50005831  0.67035038  0.87656555  1
  In  In30  1  0.83162345  -0.01733218  0.37248117  1
  In  In31  1  0.83607808  0.00618996  0.87740537  1
  In  In32  1  0.82736655  0.35303339  0.37146898  1
  In  In33  1  0.82575416  0.33170804  0.88372232  1
  In  In34  1  0.83170287  0.67435186  0.36770365  1
  In  In35  1  0.81488283  0.67532461  0.87709262  1
  In  In36  1  0.01797150  0.16144997  0.37133641  1
  In  In37  1  0.00284630  0.14609434  0.89992683  1
  In  In38  1  -0.01763854  0.50949622  0.36935586  1
  In  In39  1  -0.00328666  0.48707962  0.88097824  1
  In  In40  1  0.00063308  0.83266422  0.36902015  1
  In  In41  1  0.00639737  0.84333720  0.88021751  1
  In  In42  1  0.34906781  0.16242584  0.37596733  1
  In  In43  1  0.32934238  0.14706376  0.86936281  1
  In  In44  1  0.34482980  0.52499209  0.37398385  1
  In  In45  1  0.32949993  0.52526596  0.87573057  1
  In  In46  1  0.33043620  0.82985103  0.38098285  1
  In  In47  1  0.33158648  0.83459593  0.87451537  1
  In  In48  1  0.65301719  0.16391007  0.37237248  1
  In  In49  1  0.67254749  0.16988654  0.86977024  1
  In  In50  1  0.66496907  0.50192631  0.37097386  1
  In  In51  1  0.66407269  0.50111495  0.87789816  1
  In  In52  1  0.66559070  0.81892497  0.39505455  1
  In  In53  1  0.65778540  0.81670898  0.85764387  1
  In  In54  1  0.16583993  -0.00577321  0.12236769  1
  In  In55  1  0.20458376  -0.02597671  0.65089882  1
  In  In56  1  0.17281658  0.32304897  0.11964192  1
  In  In57  1  0.16379801  0.32616164  0.63078838  1
  In  In58  1  0.16040700  0.68209129  0.12932559  1
  In  In59  1  0.17666842  0.68732661  0.61734262  1
  In  In60  1  0.49969567  -0.01855639  0.12514032  1
  In  In61  1  0.50053831  -0.00049389  0.62459433  1
  In  In62  1  0.49737211  0.35101699  0.12447825  1
  In  In63  1  0.51556124  0.34305169  0.61957048  1
  In  In64  1  0.50118362  0.66798472  0.12977682  1
  In  In65  1  0.50346199  0.66951151  0.62000092  1
  In  In66  1  0.83334370  0.01254228  0.11811743  1
  In  In67  1  0.83349144  -0.02247018  0.62678299  1
  In  In68  1  0.82485247  0.33111085  0.12313708  1
  In  In69  1  0.82377751  0.31883463  0.62685271  1
  In  In70  1  0.83986761  0.65871993  0.12406242  1
  In  In71  1  0.81542888  0.67574392  0.63025112  1
  In  In72  1  0.33390672  0.33489785  0.24495157  1
  In  In73  1  0.33987818  0.33532993  0.75203744  1
  In  In74  1  0.17748795  0.51342820  0.48720308  1
  In  In75  1  0.17590485  0.14847712  0.51864332  1
  In  In76  1  0.82475461  0.50878141  0.50043615  1
  In  In77  1  0.82763557  0.15985336  0.49607042  1
  In  In78  1  0.50162612  0.16464072  -0.00969143  1
  In  In79  1  0.66581137  -0.00435205  0.24902649  1
  In  In80  1  0.83644942  0.83219396  -0.00371191  1
  In  In81  1  -0.00976665  0.32984142  0.75384166  1
  In  In82  1  -0.00190582  -0.00021966  0.75850058  1
  In  In83  1  -0.00534960  0.33413851  0.24773844  1
  In  In84  1  0.16621346  0.50202427  0.00362882  1
  In  In85  1  -0.00097414  0.66844257  0.75791086  1
  Cu  Cu86  1  0.66448008  0.33735932  0.00081600  1
  Cu  Cu87  1  0.83182402  0.16676364  0.75598969  1
  Cu  Cu88  1  0.50364285  0.50630245  0.25254487  1
  Cu  Cu89  1  -0.00131966  0.67464667  0.49202444  1
  Cu  Cu90  1  0.66636563  0.33819217  0.50335079  1
  Cu  Cu91  1  0.49719313  0.82957269  0.74390767  1
  Cu  Cu92  1  0.16503352  0.14731135  0.24394412  1
  Cu  Cu93  1  0.33293126  -0.00593324  -0.00171806  1
  Cu  Cu94  1  0.66248010  -0.00600549  -0.00476172  1
  Cu  Cu95  1  0.50088661  0.16313932  0.75279676  1
  Cu  Cu96  1  0.17607821  0.50890277  0.74532508  1
  Cu  Cu97  1  0.00993498  0.33154333  0.50400650  1
  Cu  Cu98  1  0.49801506  0.82808041  0.25693750  1
  Cu  Cu99  1  0.34225120  0.32934499  0.49823061  1
  Cu  Cu100  1  0.16073410  0.50894745  0.24791057  1
  Cu  Cu101  1  0.33927982  0.67789566  0.00137736  1
  Cu  Cu102  1  0.82604644  0.50956753  0.24605778  1
  Cu  Cu103  1  0.66257916  0.00250628  0.50246422  1
  Cu  Cu104  1  0.50307353  0.50836569  0.75095408  1
  Cu  Cu105  1  0.49794318  0.16698069  0.24951588  1
  Cu  Cu106  1  0.33676574  0.33518360  -0.00387209  1
  Cu  Cu107  1  0.65958584  0.66391209  -0.00118479  1
  Cu  Cu108  1  0.82342997  0.49354571  0.75739132  1
  Cu  Cu109  1  0.00119609  -0.01035046  0.49731163  1
  Cu  Cu110  1  0.83151696  0.83205247  0.25006486  1
  Cu  Cu111  1  0.33276942  -0.00327456  0.50534557  1
  Cu  Cu112  1  -0.00908673  0.32967623  0.00368491  1
  Cu  Cu113  1  0.83808266  0.16833586  0.24595383  1
  Cu  Cu114  1  0.17000365  0.83474190  0.24737917  1
  Se  Se115  1  0.10393509  0.10023812  0.05993410  1
  Se  Se116  1  0.07836478  0.05696818  0.56801007  1
  Se  Se117  1  0.07272724  0.41039751  0.06355310  1
  Se  Se118  1  0.08966079  0.41784530  0.55756068  1
  Se  Se119  1  0.08142964  0.74315936  0.04914107  1
  Se  Se120  1  0.08466566  0.75359803  0.54677823  1
  Se  Se121  1  0.41626214  0.07637856  0.05677405  1
  Se  Se122  1  0.41847019  0.08353186  0.55237771  1
  Se  Se123  1  0.41747397  0.41978267  0.04756237  1
  Se  Se124  1  0.42750174  0.41422030  0.54733316  1
  Se  Se125  1  0.42255322  0.75470718  0.06011293  1
  Se  Se126  1  0.43562802  0.76215802  0.54717722  1
  Se  Se127  1  0.73917313  0.08071320  0.04964474  1
  Se  Se128  1  0.74487688  0.07881942  0.56549000  1
  Se  Se129  1  0.74568394  0.41955755  0.05699147  1
  Se  Se130  1  0.74427770  0.41632236  0.56556724  1
  Se  Se131  1  0.74089484  0.74708310  0.05785991  1
  Se  Se132  1  0.74779570  0.75091074  0.55292752  1
  Se  Se133  1  0.25214166  0.25039053  0.04447068  1
  Se  Se134  1  0.26429405  0.25526227  0.56458283  1
  Se  Se135  1  0.25877329  0.59224136  0.06035905  1
  Se  Se136  1  0.26346992  0.58973133  0.55733726  1
  Se  Se137  1  0.25288587  0.91117841  0.05568256  1
  Se  Se138  1  0.24876029  0.91331617  0.55672551  1
  Se  Se139  1  0.58250426  0.25389295  0.05940525  1
  Se  Se140  1  0.58888994  0.24639337  0.55455868  1
  Se  Se141  1  0.57814089  0.58340484  0.05704628  1
  Se  Se142  1  0.58059264  0.57647874  0.55406455  1
  Se  Se143  1  0.57844757  0.91222557  0.04789526  1
  Se  Se144  1  0.58370766  0.91741131  0.55637335  1
  Se  Se145  1  0.90889278  0.24655504  0.05714949  1
  Se  Se146  1  0.92531592  0.24965451  0.55773011  1
  Se  Se147  1  0.90826944  0.58672648  0.04268867  1
  Se  Se148  1  0.92270648  0.59663585  0.55806224  1
  Se  Se149  1  0.92206148  0.91786875  0.06155408  1
  Se  Se150  1  0.90852227  0.91082972  0.54594470  1
  Se  Se151  1  0.09098060  0.24723172  0.44945938  1
  Se  Se152  1  0.08124145  0.25144879  0.95265022  1
  Se  Se153  1  0.07536710  0.59291228  0.43164967  1
  Se  Se154  1  0.08358323  0.58693055  0.93559062  1
  Se  Se155  1  0.08565182  0.91090389  0.44174500  1
  Se  Se156  1  0.07066252  0.93185843  0.95157871  1
  Se  Se157  1  0.42544519  0.24448652  0.44667234  1
  Se  Se158  1  0.40867304  0.25389910  0.93089334  1
  Se  Se159  1  0.42795527  0.57014259  0.45560529  1
  Se  Se160  1  0.41797076  0.58880498  0.94956346  1
  Se  Se161  1  0.41267641  0.92292079  0.44326482  1
  Se  Se162  1  0.41851369  0.91260822  0.94623126  1
  Se  Se163  1  0.74513550  0.26087467  0.43819687  1
  Se  Se164  1  0.74163354  0.24561379  0.94998812  1
  Se  Se165  1  0.73874066  0.59894218  0.44013152  1
  Se  Se166  1  0.74745094  0.58365375  0.94758557  1
  Se  Se167  1  0.74705127  0.92075159  0.44892990  1
  Se  Se168  1  0.73975512  0.91246940  0.93399696  1
  Se  Se169  1  0.25343231  0.07644510  0.43907890  1
  Se  Se170  1  0.25193792  0.08459061  0.94994389  1
  Se  Se171  1  0.26364177  0.40762537  0.43486333  1
  Se  Se172  1  0.25482183  0.41539756  0.93612317  1
  Se  Se173  1  0.24864130  0.74307849  0.44792991  1
  Se  Se174  1  0.24944519  0.75323527  0.94791692  1
  Se  Se175  1  0.58185144  0.08726361  0.44879695  1
  Se  Se176  1  0.58433221  0.07038517  0.93019027  1
  Se  Se177  1  0.58845943  0.41760782  0.44269250  1
  Se  Se178  1  0.57941816  0.41920072  0.94878572  1
  Se  Se179  1  0.55323838  0.76742851  0.45628867  1
  Se  Se180  1  0.58652748  0.75426415  0.94336201  1
  Se  Se181  1  0.92790412  0.07682316  0.43803606  1
  Se  Se182  1  0.90212408  0.07707561  0.95957541  1
  Se  Se183  1  0.92566192  0.41219192  0.44723124  1
  Se  Se184  1  0.90987902  0.41533370  0.95136787  1
  Se  Se185  1  0.91276449  0.75472997  0.43881161  1
  Se  Se186  1  0.92529802  0.73870095  0.93788270  1
  Se  Se187  1  0.24546291  0.23393815  0.30208045  1
  Se  Se188  1  0.24555843  0.25071693  0.81167713  1
  Se  Se189  1  0.25239826  0.58338103  0.30025095  1
  Se  Se190  1  0.25733419  0.59575186  0.79551184  1
  Se  Se191  1  0.25536527  0.91233152  0.30418604  1
  Se  Se192  1  0.25084184  0.92367737  0.80881560  1
  Se  Se193  1  0.58411050  0.25016847  0.29886997  1
  Se  Se194  1  0.58494908  0.24894260  0.80146168  1
  Se  Se195  1  0.58115658  0.59199658  0.30894992  1
  Se  Se196  1  0.58546462  0.58737005  0.80839259  1
  Se  Se197  1  0.58231906  0.90923700  0.31464741  1
  Se  Se198  1  0.58115513  0.91425096  0.79643182  1
  Se  Se199  1  0.91064826  0.24528452  0.31560459  1
  Se  Se200  1  0.91616527  0.23683883  0.82079198  1
  Se  Se201  1  0.91301540  0.59261370  0.29561939  1
  Se  Se202  1  0.90941923  0.57173584  0.81387405  1
  Se  Se203  1  0.91733291  0.91660992  0.29853505  1
  Se  Se204  1  0.90497393  0.90403134  0.80932672  1
  Se  Se205  1  0.07685655  0.07099212  0.29741874  1
  Se  Se206  1  0.08632118  0.09066760  0.81673788  1
  Se  Se207  1  0.08866617  0.42353498  0.30960212  1
  Se  Se208  1  0.09136798  0.42780529  0.80164798  1
  Se  Se209  1  0.08084403  0.75074297  0.29712364  1
  Se  Se210  1  0.09319946  0.76388745  0.80718797  1
  Se  Se211  1  0.41804879  0.08006413  0.30038517  1
  Se  Se212  1  0.41270959  0.07671194  0.79606577  1
  Se  Se213  1  0.42138290  0.41935504  0.30993718  1
  Se  Se214  1  0.42203212  0.43084102  0.81396236  1
  Se  Se215  1  0.41580987  0.74642644  0.31276505  1
  Se  Se216  1  0.41768828  0.75218437  0.80651433  1
  Se  Se217  1  0.75728226  0.08900273  0.30922210  1
  Se  Se218  1  0.74999562  0.07781723  0.80448734  1
  Se  Se219  1  0.74509258  0.42138638  0.29706364  1
  Se  Se220  1  0.74437205  0.40949954  0.81123429  1
  Se  Se221  1  0.74089262  0.76128947  0.30775502  1
  Se  Se222  1  0.75423415  0.74495298  0.79360265  1
  Se  Se223  1  0.25672804  0.07259801  0.19299194  1
  Se  Se224  1  0.23551299  0.09951919  0.70106464  1
  Se  Se225  1  0.23901630  0.42642664  0.18755706  1
  Se  Se226  1  0.25108269  0.42439375  0.68632426  1
  Se  Se227  1  0.25512924  0.74790886  0.19856929  1
  Se  Se228  1  0.25603321  0.75442117  0.69243133  1
  Se  Se229  1  0.57725941  0.08733901  0.18697672  1
  Se  Se230  1  0.58270720  0.08026414  0.69730725  1
  Se  Se231  1  0.58216415  0.41947113  0.19818130  1
  Se  Se232  1  0.58129150  0.41239896  0.70411202  1
  Se  Se233  1  0.58365505  0.74997442  0.20136197  1
  Se  Se234  1  0.58443152  0.74695570  0.69387735  1
  Se  Se235  1  0.91624255  0.08048928  0.19505704  1
  Se  Se236  1  0.90897335  0.08929015  0.69187471  1
  Se  Se237  1  0.91166196  0.42896991  0.18740587  1
  Se  Se238  1  0.90503018  0.42333400  0.69094761  1
  Se  Se239  1  0.91197233  0.75124428  0.19190448  1
  Se  Se240  1  0.91729891  0.75516889  0.69004823  1
  Se  Se241  1  0.08802074  0.24286387  0.19221865  1
  Se  Se242  1  0.09132876  0.23894931  0.70500363  1
  Se  Se243  1  0.07836341  0.59067531  0.19417044  1
  Se  Se244  1  0.09020846  0.58666429  0.68792951  1
  Se  Se245  1  0.08326665  0.91358878  0.19340523  1
  Se  Se246  1  0.08240065  0.90749524  0.69353782  1
  Se  Se247  1  0.42056834  0.24213250  0.18272050  1
  Se  Se248  1  0.42653518  0.24732086  0.68833837  1
  Se  Se249  1  0.41606378  0.58484997  0.19942614  1
  Se  Se250  1  0.42081321  0.58830314  0.69428260  1
  Se  Se251  1  0.41935690  0.91426834  0.20188015  1
  Se  Se252  1  0.41538715  0.91736692  0.69236244  1
  Se  Se253  1  0.75024472  0.25203760  0.19991055  1
  Se  Se254  1  0.74774235  0.25291976  0.70594379  1
  Se  Se255  1  0.74374445  0.59323841  0.19354867  1
  Se  Se256  1  0.75021664  0.58236829  0.70084429  1
  Se  Se257  1  0.75549699  0.91114099  0.18463419  1
  Se  Se258  1  0.74539492  0.91524544  0.69876615  1
