# generated using pymatgen
data_In86Cu29Se144
_symmetry_space_group_name_H-M   'P 1'
_cell_length_a   17.69953832
_cell_length_b   17.68097379
_cell_length_c   23.54568700
_cell_angle_alpha   90.01150167
_cell_angle_beta   89.97580207
_cell_angle_gamma   89.99111191
_symmetry_Int_Tables_number   1
_chemical_formula_structural   In86Cu29Se144
_chemical_formula_sum   'In86 Cu29 Se144'
_cell_volume   7368.50584644
_cell_formula_units_Z   1
loop_
 _symmetry_equiv_pos_site_id
 _symmetry_equiv_pos_as_xyz
  1  'x, y, z'
loop_
 _atom_site_type_symbol
 _atom_site_label
 _atom_site_symmetry_multiplicity
 _atom_site_fract_x
 _atom_site_fract_y
 _atom_site_fract_z
 _atom_site_occupancy
  In  In0  1  -0.01557267  0.14328105  0.10232706  1
  In  In1  1  -0.00078687  0.16475147  0.62615249  1
  In  In2  1  0.01079402  0.49146398  0.12383193  1
  In  In3  1  -0.00250403  0.49833784  0.62075621  1
  In  In4  1  0.01352951  0.85133526  0.10832112  1
  In  In5  1  0.01174522  0.84094465  0.62462540  1
  In  In6  1  0.32573700  0.17225494  0.13060874  1
  In  In7  1  0.32604456  0.18292560  0.62908430  1
  In  In8  1  0.33962489  0.48720095  0.13808692  1
  In  In9  1  0.31445671  0.49319347  0.62596279  1
  In  In10  1  0.33285386  0.84386445  0.13786748  1
  In  In11  1  0.32537742  0.84646118  0.62111787  1
  In  In12  1  0.67401127  0.16601279  0.13069648  1
  In  In13  1  0.67741486  0.16261119  0.63489326  1
  In  In14  1  0.66879222  0.49784201  0.13368718  1
  In  In15  1  0.67660278  0.49512686  0.62605576  1
  In  In16  1  0.66627560  0.83417929  0.12900027  1
  In  In17  1  0.67625625  0.83041757  0.63100212  1
  In  In18  1  0.16136042  0.00241083  0.37449300  1
  In  In19  1  0.12244877  0.03295708  0.92967600  1
  In  In20  1  0.16884531  0.32862535  0.38347777  1
  In  In21  1  0.11379760  0.29409048  0.81244335  1
  In  In22  1  0.17516451  0.66068295  0.38163681  1
  In  In23  1  0.16325692  0.66894886  0.87560501  1
  In  In24  1  0.50041673  0.01203586  0.36316060  1
  In  In25  1  0.50301066  -0.00028906  0.87656329  1
  In  In26  1  0.49907268  0.31893756  0.36314662  1
  In  In27  1  0.50464308  0.32713280  0.87405456  1
  In  In28  1  0.50432172  0.66872072  0.36994643  1
  In  In29  1  0.50063322  0.65593257  0.87571484  1
  In  In30  1  0.84509779  0.00585127  0.36714074  1
  In  In31  1  0.83324972  0.00612604  0.87649008  1
  In  In32  1  0.82892729  0.33798911  0.38264680  1
  In  In33  1  0.82499369  0.31713780  0.85855514  1
  In  In34  1  0.81877914  0.66245185  0.37664898  1
  In  In35  1  0.83801434  0.68165792  0.87500422  1
  In  In36  1  0.00494738  0.16258841  0.38180704  1
  In  In37  1  -0.00688245  0.16148095  0.87284396  1
  In  In38  1  -0.00078181  0.49942640  0.38996183  1
  In  In39  1  0.00843761  0.48552878  0.86483236  1
  In  In40  1  -0.00050618  0.84998504  0.37252447  1
  In  In41  1  -0.02479827  0.86263655  0.90893051  1
  In  In42  1  0.31874511  0.15762440  0.36367880  1
  In  In43  1  0.29330120  0.17136260  0.86678921  1
  In  In44  1  0.32832405  0.48914293  0.37147505  1
  In  In45  1  0.33122023  0.48857920  0.87040593  1
  In  In46  1  0.32804295  0.83206609  0.36859667  1
  In  In47  1  0.31536855  0.83212777  0.88078053  1
  In  In48  1  0.67803618  0.17248547  0.36723362  1
  In  In49  1  0.68957053  0.17713914  0.85983462  1
  In  In50  1  0.67220318  0.49886503  0.37245002  1
  In  In51  1  0.66303943  0.49652296  0.86558919  1
  In  In52  1  0.66628795  0.83254696  0.36849699  1
  In  In53  1  0.67799042  0.84745410  0.86743612  1
  In  In54  1  0.16658810  -0.00227213  0.12379844  1
  In  In55  1  0.15820039  0.00316686  0.62267152  1
  In  In56  1  0.17573573  0.32311765  0.12493026  1
  In  In57  1  0.16726988  0.33562278  0.62767394  1
  In  In58  1  0.16980668  0.67887569  0.13171912  1
  In  In59  1  0.16443991  0.67194857  0.61615350  1
  In  In60  1  0.51266697  0.00885368  0.14309823  1
  In  In61  1  0.50221371  0.01359825  0.62309567  1
  In  In62  1  0.50319695  0.32194311  0.13607004  1
  In  In63  1  0.50533616  0.33100559  0.63019042  1
  In  In64  1  0.50320947  0.66066026  0.13773870  1
  In  In65  1  0.50774046  0.66843944  0.62269202  1
  In  In66  1  0.83435721  -0.00671091  0.12158470  1
  In  In67  1  0.82883598  0.01363320  0.64092667  1
  In  In68  1  0.83986983  0.31984538  0.11747988  1
  In  In69  1  0.83366645  0.33192932  0.62799422  1
  In  In70  1  0.81654234  0.67162685  0.12854924  1
  In  In71  1  0.83488236  0.66010378  0.62287597  1
  In  In72  1  0.49650255  0.16481240  0.49095461  1
  In  In73  1  0.16992164  0.49448433  -0.00630658  1
  In  In74  1  0.00503749  0.32805944  0.24943082  1
  In  In75  1  0.50067835  0.83834243  0.48587551  1
  In  In76  1  0.49903224  0.16685328  0.00625872  1
  In  In77  1  0.34120721  0.66867226  0.74865836  1
  In  In78  1  0.83457765  0.50143811  -0.00218544  1
  In  In79  1  -0.01124545  0.67760116  0.25301568  1
  In  In80  1  0.00066961  0.66862003  0.74647797  1
  In  In81  1  0.33528964  0.00028747  0.75323091  1
  In  In82  1  0.50290591  0.49559650  0.49686710  1
  In  In83  1  0.50328156  0.82885788  0.00972386  1
  In  In84  1  0.50266437  0.49206348  -0.00378285  1
  In  In85  1  0.83915064  0.83159702  0.49957472  1
  Cu  Cu86  1  0.67386030  -0.00274269  0.50398362  1
  Cu  Cu87  1  0.16764742  0.83827999  0.24947841  1
  Cu  Cu88  1  0.83367966  0.50136731  0.74354762  1
  Cu  Cu89  1  -0.00320127  0.66818606  0.00493836  1
  Cu  Cu90  1  0.33434586  -0.00661853  0.00889593  1
  Cu  Cu91  1  0.33124208  0.32692177  -0.00066640  1
  Cu  Cu92  1  0.50764542  0.83116664  0.75090880  1
  Cu  Cu93  1  0.50049029  0.49708835  0.25539942  1
  Cu  Cu94  1  0.82864597  0.83793679  0.24674076  1
  Cu  Cu95  1  0.15337452  0.16031859  0.24822141  1
  Cu  Cu96  1  0.00300470  0.32296111  -0.01711667  1
  Cu  Cu97  1  0.66957937  0.32748161  0.50093686  1
  Cu  Cu98  1  0.66566502  0.67025346  0.00081959  1
  Cu  Cu99  1  0.67242028  0.00952157  -0.00052979  1
  Cu  Cu100  1  -0.00113707  0.00409610  0.49937820  1
  Cu  Cu101  1  0.32755522  0.66118107  0.01067642  1
  Cu  Cu102  1  0.16535327  0.50498584  0.25539747  1
  Cu  Cu103  1  0.31836517  0.00557261  0.49588662  1
  Cu  Cu104  1  0.51034143  0.50282101  0.74816191  1
  Cu  Cu105  1  0.82876559  0.49327093  0.25406837  1
  Cu  Cu106  1  0.33521837  0.67178322  0.49836990  1
  Cu  Cu107  1  0.50500024  0.83414671  0.25260781  1
  Cu  Cu108  1  0.00279518  0.67081795  0.50273260  1
  Cu  Cu109  1  0.50470943  0.16233708  0.75275392  1
  Cu  Cu110  1  0.16093258  0.83707448  0.75434983  1
  Cu  Cu111  1  0.84006827  0.16430092  0.24330538  1
  Cu  Cu112  1  0.00026918  0.33025566  0.50887160  1
  Cu  Cu113  1  0.32372312  0.33515935  0.49964468  1
  Cu  Cu114  1  0.83556285  0.83859264  0.75681626  1
  Se  Se115  1  0.09595240  0.08316911  0.04787434  1
  Se  Se116  1  0.08240393  0.08768742  0.55202277  1
  Se  Se117  1  0.07735514  0.39893834  0.05114121  1
  Se  Se118  1  0.08585343  0.41665714  0.55671128  1
  Se  Se119  1  0.08727233  0.74386532  0.05579057  1
  Se  Se120  1  0.08452340  0.75899768  0.55069430  1
  Se  Se121  1  0.41456092  0.07271851  0.06749854  1
  Se  Se122  1  0.40293879  0.08140568  0.55607844  1
  Se  Se123  1  0.41163773  0.40567440  0.05780658  1
  Se  Se124  1  0.41136188  0.40885631  0.55855379  1
  Se  Se125  1  0.41115844  0.73865162  0.06725924  1
  Se  Se126  1  0.41401751  0.75283661  0.55733598  1
  Se  Se127  1  0.75224053  0.08690286  0.05901150  1
  Se  Se128  1  0.75088405  0.08006685  0.56072988  1
  Se  Se129  1  0.74692397  0.41410640  0.05960159  1
  Se  Se130  1  0.75055375  0.41093853  0.55485260  1
  Se  Se131  1  0.74448207  0.75453777  0.05528463  1
  Se  Se132  1  0.74411898  0.74304168  0.55453125  1
  Se  Se133  1  0.24829909  0.24212462  0.05074247  1
  Se  Se134  1  0.24411518  0.25090078  0.55390924  1
  Se  Se135  1  0.25167137  0.57614811  0.06790667  1
  Se  Se136  1  0.25553797  0.58931241  0.55525057  1
  Se  Se137  1  0.25187751  0.90800494  0.05980682  1
  Se  Se138  1  0.24157257  0.92064864  0.55199428  1
  Se  Se139  1  0.59221868  0.25834944  0.05960192  1
  Se  Se140  1  0.58637948  0.24683106  0.55734989  1
  Se  Se141  1  0.58843068  0.58679308  0.05892647  1
  Se  Se142  1  0.59231254  0.58544022  0.55493785  1
  Se  Se143  1  0.58818788  0.93285387  0.05996087  1
  Se  Se144  1  0.58664444  0.91966780  0.55850283  1
  Se  Se145  1  0.91765625  0.24750614  0.04155364  1
  Se  Se146  1  0.91456933  0.24745932  0.55879201  1
  Se  Se147  1  0.92179909  0.58635408  0.06638026  1
  Se  Se148  1  0.91907381  0.58634799  0.55244071  1
  Se  Se149  1  0.91669137  0.92078485  0.04642841  1
  Se  Se150  1  0.91867015  0.92573528  0.56132130  1
  Se  Se151  1  0.08051025  0.25078191  0.44930258  1
  Se  Se152  1  0.09153383  0.25877341  0.92064424  1
  Se  Se153  1  0.08627765  0.58636561  0.45012258  1
  Se  Se154  1  0.06948675  0.58530114  0.94212604  1
  Se  Se155  1  0.08123924  0.91963227  0.44677424  1
  Se  Se156  1  0.10783698  0.88948137  0.94688075  1
  Se  Se157  1  0.40177131  0.25549634  0.43747739  1
  Se  Se158  1  0.40885898  0.24573734  0.93775267  1
  Se  Se159  1  0.41226559  0.58901116  0.43974460  1
  Se  Se160  1  0.40412641  0.58535281  0.94571248  1
  Se  Se161  1  0.40732578  0.93403200  0.43661179  1
  Se  Se162  1  0.41300136  0.91588492  0.94576393  1
  Se  Se163  1  0.75130856  0.24387987  0.44646365  1
  Se  Se164  1  0.75376532  0.25173256  0.94028875  1
  Se  Se165  1  0.75600168  0.56946433  0.44512221  1
  Se  Se166  1  0.74162743  0.58971769  0.93814796  1
  Se  Se167  1  0.74903160  0.92023188  0.43903813  1
  Se  Se168  1  0.74839000  0.92051864  0.94578135  1
  Se  Se169  1  0.23999496  0.09150670  0.44260834  1
  Se  Se170  1  0.26277082  0.07869948  0.94818315  1
  Se  Se171  1  0.24489902  0.42313257  0.44770467  1
  Se  Se172  1  0.25093607  0.40035647  0.93550189  1
  Se  Se173  1  0.25308397  0.75509285  0.44471072  1
  Se  Se174  1  0.24970096  0.73742154  0.94931311  1
  Se  Se175  1  0.59475582  0.07459136  0.44024841  1
  Se  Se176  1  0.58927582  0.08565057  0.94066035  1
  Se  Se177  1  0.58551229  0.39863188  0.43766312  1
  Se  Se178  1  0.59874129  0.40534674  0.94257519  1
  Se  Se179  1  0.59623633  0.74060191  0.44295224  1
  Se  Se180  1  0.58673529  0.74805349  0.93866318  1
  Se  Se181  1  0.91235526  0.08360250  0.44599977  1
  Se  Se182  1  0.91840227  0.08222367  0.94632370  1
  Se  Se183  1  0.91732520  0.41116659  0.45209055  1
  Se  Se184  1  0.91940518  0.41127667  0.93472522  1
  Se  Se185  1  0.92583866  0.74322107  0.43469684  1
  Se  Se186  1  0.90714843  0.74845462  0.95709620  1
  Se  Se187  1  0.23127424  0.24757681  0.30367052  1
  Se  Se188  1  0.26134469  0.27174777  0.79226193  1
  Se  Se189  1  0.25236865  0.58416211  0.30701063  1
  Se  Se190  1  0.24758494  0.58287786  0.80669181  1
  Se  Se191  1  0.24720230  0.92185900  0.30529877  1
  Se  Se192  1  0.24055981  0.91840222  0.81215448  1
  Se  Se193  1  0.57774527  0.23060702  0.29897492  1
  Se  Se194  1  0.58626470  0.24983115  0.80273784  1
  Se  Se195  1  0.58547110  0.57985964  0.30643692  1
  Se  Se196  1  0.58651501  0.59060082  0.80175231  1
  Se  Se197  1  0.58646471  0.92073656  0.30405345  1
  Se  Se198  1  0.58137573  0.92104520  0.80461194  1
  Se  Se199  1  0.91181798  0.24505421  0.31022678  1
  Se  Se200  1  0.93757949  0.26280644  0.80253967  1
  Se  Se201  1  0.91356879  0.57258423  0.31070525  1
  Se  Se202  1  0.91035400  0.57863581  0.80921983  1
  Se  Se203  1  0.91776291  0.91712175  0.29694072  1
  Se  Se204  1  0.91986013  0.91344829  0.81499355  1
  Se  Se205  1  0.07296563  0.08047147  0.30550697  1
  Se  Se206  1  0.09976001  0.07721744  0.82641769  1
  Se  Se207  1  0.08357827  0.42446551  0.31258946  1
  Se  Se208  1  0.10011287  0.43869420  0.79030868  1
  Se  Se209  1  0.08985457  0.75605681  0.31122188  1
  Se  Se210  1  0.07915744  0.75805958  0.81278784  1
  Se  Se211  1  0.41074845  0.08622561  0.29852285  1
  Se  Se212  1  0.41704600  0.09576091  0.81629815  1
  Se  Se213  1  0.41569166  0.41197187  0.30433837  1
  Se  Se214  1  0.43247365  0.42306666  0.80846332  1
  Se  Se215  1  0.42006464  0.75264732  0.30540600  1
  Se  Se216  1  0.42281642  0.76089601  0.81412860  1
  Se  Se217  1  0.75695258  0.08412400  0.30064798  1
  Se  Se218  1  0.74929315  0.07172010  0.80025383  1
  Se  Se219  1  0.74821740  0.40744390  0.30574407  1
  Se  Se220  1  0.75169911  0.41936553  0.79972501  1
  Se  Se221  1  0.75361492  0.75089895  0.30299401  1
  Se  Se222  1  0.75083685  0.75031491  0.80340893  1
  Se  Se223  1  0.24323357  0.08309116  0.19432366  1
  Se  Se224  1  0.24583950  0.08814995  0.69255759  1
  Se  Se225  1  0.23695630  0.41645288  0.19695345  1
  Se  Se226  1  0.26525009  0.39764567  0.69894205  1
  Se  Se227  1  0.25394281  0.75176009  0.20255779  1
  Se  Se228  1  0.24433094  0.76031597  0.69352271  1
  Se  Se229  1  0.57329668  0.11508569  0.20234172  1
  Se  Se230  1  0.58494400  0.07978880  0.69738677  1
  Se  Se231  1  0.58180391  0.41631386  0.19766168  1
  Se  Se232  1  0.58846022  0.41740490  0.69347880  1
  Se  Se233  1  0.58681989  0.75008312  0.19824548  1
  Se  Se234  1  0.58512642  0.74855285  0.69398368  1
  Se  Se235  1  0.92020019  0.07911511  0.18842448  1
  Se  Se236  1  0.93851919  0.06951347  0.69773946  1
  Se  Se237  1  0.91263593  0.42158738  0.19109896  1
  Se  Se238  1  0.91904966  0.41976065  0.69286619  1
  Se  Se239  1  0.91145128  0.76354553  0.18343946  1
  Se  Se240  1  0.91000059  0.76225708  0.68854869  1
  Se  Se241  1  0.07700829  0.23508113  0.18099319  1
  Se  Se242  1  0.08462539  0.24922263  0.69346549  1
  Se  Se243  1  0.08302929  0.58219426  0.19624887  1
  Se  Se244  1  0.09275338  0.58228479  0.68778360  1
  Se  Se245  1  0.08217971  0.91491683  0.19293699  1
  Se  Se246  1  0.08421876  0.92208553  0.69831640  1
  Se  Se247  1  0.39259539  0.27082797  0.19438165  1
  Se  Se248  1  0.42482266  0.24441283  0.69584993  1
  Se  Se249  1  0.41559687  0.57965653  0.20212679  1
  Se  Se250  1  0.42422521  0.57409649  0.68647004  1
  Se  Se251  1  0.42411500  0.92086283  0.20174575  1
  Se  Se252  1  0.42693274  0.91026619  0.69042237  1
  Se  Se253  1  0.75945708  0.25405579  0.19489024  1
  Se  Se254  1  0.74798459  0.25658278  0.69810622  1
  Se  Se255  1  0.75104125  0.58184185  0.20048967  1
  Se  Se256  1  0.75056910  0.58738383  0.69444210  1
  Se  Se257  1  0.74596516  0.92251757  0.19439370  1
  Se  Se258  1  0.75021122  0.91649609  0.69999928  1
