# generated using pymatgen
data_In86Cu29Se144
_symmetry_space_group_name_H-M   'P 1'
_cell_length_a   17.59089980
_cell_length_b   17.58748855
_cell_length_c   23.44059602
_cell_angle_alpha   90.00223160
_cell_angle_beta   89.98367839
_cell_angle_gamma   90.01993884
_symmetry_Int_Tables_number   1
_chemical_formula_structural   In86Cu29Se144
_chemical_formula_sum   'In86 Cu29 Se144'
_cell_volume   7252.04497458
_cell_formula_units_Z   1
loop_
 _symmetry_equiv_pos_site_id
 _symmetry_equiv_pos_as_xyz
  1  'x, y, z'
loop_
 _atom_site_type_symbol
 _atom_site_label
 _atom_site_symmetry_multiplicity
 _atom_site_fract_x
 _atom_site_fract_y
 _atom_site_fract_z
 _atom_site_occupancy
  In  In0  1  -0.00478132  0.17599485  0.11943260  1
  In  In1  1  0.01223782  0.18857566  0.61808889  1
  In  In2  1  0.00536880  0.50065162  0.12279990  1
  In  In3  1  -0.01272933  0.48452152  0.61623381  1
  In  In4  1  0.01072951  0.82685351  0.13508142  1
  In  In5  1  0.00316663  0.83652738  0.62088470  1
  In  In6  1  0.33172475  0.18598380  0.10773381  1
  In  In7  1  0.31592093  0.18250326  0.62971257  1
  In  In8  1  0.33211528  0.49897646  0.12056978  1
  In  In9  1  0.34350249  0.49909561  0.62311460  1
  In  In10  1  0.33263124  0.83017276  0.12725662  1
  In  In11  1  0.32049737  0.81978370  0.63027543  1
  In  In12  1  0.67664125  0.18441294  0.10785469  1
  In  In13  1  0.68632133  0.17024047  0.62437308  1
  In  In14  1  0.67553147  0.50252242  0.11529265  1
  In  In15  1  0.65978607  0.49385128  0.62260051  1
  In  In16  1  0.64951250  0.82663264  0.12793515  1
  In  In17  1  0.65207718  0.83618395  0.62132157  1
  In  In18  1  0.16501505  0.01769531  0.37312379  1
  In  In19  1  0.15970104  0.00133163  0.88498465  1
  In  In20  1  0.16531172  0.33857193  0.36980311  1
  In  In21  1  0.17532870  0.33857793  0.88806575  1
  In  In22  1  0.15902057  0.65345567  0.36287996  1
  In  In23  1  0.17905951  0.65442617  0.88448741  1
  In  In24  1  0.49558213  0.00264292  0.36915193  1
  In  In25  1  0.49212250  0.00259491  0.88461187  1
  In  In26  1  0.50545453  0.34457578  0.36997028  1
  In  In27  1  0.50662684  0.33278069  0.89056855  1
  In  In28  1  0.47978040  0.65124717  0.34931538  1
  In  In29  1  0.49743596  0.66527700  0.88360929  1
  In  In30  1  0.83761423  0.00264619  0.37106121  1
  In  In31  1  0.83954549  0.01677342  0.87354753  1
  In  In32  1  0.84141494  0.32491661  0.37731400  1
  In  In33  1  0.83638883  0.33326530  0.88009741  1
  In  In34  1  0.82655469  0.65347578  0.36435982  1
  In  In35  1  0.82060240  0.65563871  0.87630037  1
  In  In36  1  0.00239902  0.17121570  0.36749370  1
  In  In37  1  -0.00226974  0.18439320  0.89117275  1
  In  In38  1  0.00389282  0.49525418  0.36983085  1
  In  In39  1  0.02336725  0.46616911  0.91185054  1
  In  In40  1  -0.00111777  0.83685894  0.36344280  1
  In  In41  1  0.00432945  0.84442605  0.88223593  1
  In  In42  1  0.31800999  0.16841437  0.37404756  1
  In  In43  1  0.32797108  0.17939204  0.89340972  1
  In  In44  1  0.33053362  0.49596965  0.36850778  1
  In  In45  1  0.32688592  0.50679386  0.88431451  1
  In  In46  1  0.34440731  0.81598985  0.37177988  1
  In  In47  1  0.34223448  0.82339897  0.88612324  1
  In  In48  1  0.66572393  0.17969743  0.37584157  1
  In  In49  1  0.65701013  0.19265888  0.89873675  1
  In  In50  1  0.65990157  0.50600801  0.37997122  1
  In  In51  1  0.68884636  0.47307294  0.90424556  1
  In  In52  1  0.67261107  0.82711571  0.36821444  1
  In  In53  1  0.66054792  0.82012264  0.87898088  1
  In  In54  1  0.16366818  -0.00281627  0.12502728  1
  In  In55  1  0.15524949  0.00975213  0.62620421  1
  In  In56  1  0.15870294  0.34122187  0.11432237  1
  In  In57  1  0.15626701  0.32255256  0.61181638  1
  In  In58  1  0.16693592  0.66723496  0.12768613  1
  In  In59  1  0.18173654  0.66016567  0.63113435  1
  In  In60  1  0.50236069  0.00275514  0.11907017  1
  In  In61  1  0.50329596  -0.00118729  0.62613282  1
  In  In62  1  0.49205071  0.32845099  0.10639636  1
  In  In63  1  0.49527490  0.35101294  0.63119309  1
  In  In64  1  0.49993314  0.66799500  0.13093047  1
  In  In65  1  0.49895149  0.64849745  0.62656506  1
  In  In66  1  0.83770072  0.01499759  0.12671714  1
  In  In67  1  0.83132502  0.03289835  0.61936545  1
  In  In68  1  0.85524369  0.36015928  0.09054151  1
  In  In69  1  0.83757811  0.33385404  0.62694905  1
  In  In70  1  0.83966118  0.65850367  0.13635338  1
  In  In71  1  0.84637968  0.66065892  0.62077584  1
  In  In72  1  0.32385789  -0.00079664  0.24410302  1
  In  In73  1  0.66737897  0.00056499  0.24530776  1
  In  In74  1  0.33573254  0.00381471  0.74864477  1
  In  In75  1  0.49948049  0.17382709  0.49946142  1
  In  In76  1  0.66820224  0.33771547  0.24119256  1
  In  In77  1  0.32652589  0.33977424  0.75641471  1
  In  In78  1  0.00681237  0.00670963  0.75523831  1
  In  In79  1  0.83239825  0.83148121  -0.00346321  1
  In  In80  1  0.66890396  0.00184307  0.74697942  1
  In  In81  1  0.50192789  0.83137781  0.49734457  1
  In  In82  1  0.00566636  0.65126814  0.76119697  1
  In  In83  1  0.83373134  0.83327772  0.48981863  1
  In  In84  1  0.66360414  0.65025609  0.75236675  1
  In  In85  1  0.16555148  0.83456645  0.50092205  1
  Cu  Cu86  1  0.49073490  0.16943711  0.23338239  1
  Cu  Cu87  1  0.66454001  -0.00583098  0.00413995  1
  Cu  Cu88  1  0.33568319  0.65702442  0.49390147  1
  Cu  Cu89  1  0.00598883  -0.00728285  0.00627924  1
  Cu  Cu90  1  0.66525437  0.66654890  0.49622189  1
  Cu  Cu91  1  0.83213008  0.83499605  0.74139560  1
  Cu  Cu92  1  0.00053487  0.66481081  0.00901060  1
  Cu  Cu93  1  0.83551990  0.83152935  0.24907635  1
  Cu  Cu94  1  0.33238252  0.00962821  0.50080794  1
  Cu  Cu95  1  0.65984829  0.66918494  0.00534347  1
  Cu  Cu96  1  0.50122468  0.50311097  0.75554553  1
  Cu  Cu97  1  0.16896449  0.49562056  0.24433381  1
  Cu  Cu98  1  0.16850730  0.83321848  0.24857291  1
  Cu  Cu99  1  0.49348850  0.82461733  0.76126543  1
  Cu  Cu100  1  0.50660150  0.17610513  0.76204408  1
  Cu  Cu101  1  0.00043986  0.33414747  0.49269634  1
  Cu  Cu102  1  0.32890500  0.66973724  0.00826513  1
  Cu  Cu103  1  0.16049971  0.18008812  0.24442459  1
  Cu  Cu104  1  -0.00530776  0.01407017  0.49592267  1
  Cu  Cu105  1  0.83686619  0.49093819  0.24542300  1
  Cu  Cu106  1  0.16452394  0.49250871  0.75649090  1
  Cu  Cu107  1  0.17897825  0.82661975  0.75902256  1
  Cu  Cu108  1  0.49464712  0.49660011  0.24337646  1
  Cu  Cu109  1  0.33290591  -0.00643997  0.00616109  1
  Cu  Cu110  1  0.83507178  0.18231677  0.75613377  1
  Cu  Cu111  1  0.84072584  0.17607965  0.24587331  1
  Cu  Cu112  1  0.67336157  0.33628139  0.50052598  1
  Cu  Cu113  1  0.83525470  0.48714087  0.75676072  1
  Cu  Cu114  1  0.00286956  0.65435599  0.49368764  1
  Se  Se115  1  0.08127561  0.08270434  0.05878812  1
  Se  Se116  1  0.08279420  0.08876370  0.55241014  1
  Se  Se117  1  0.06870783  0.41543231  0.04436837  1
  Se  Se118  1  0.08272514  0.41841534  0.54781688  1
  Se  Se119  1  0.08359340  0.75168927  0.05739201  1
  Se  Se120  1  0.07790468  0.73546107  0.55795259  1
  Se  Se121  1  0.41435200  0.08378633  0.05477988  1
  Se  Se122  1  0.41043966  0.08358849  0.56492816  1
  Se  Se123  1  0.39210669  0.40380280  0.04598195  1
  Se  Se124  1  0.41874543  0.41436060  0.55237949  1
  Se  Se125  1  0.41796278  0.75030438  0.05892078  1
  Se  Se126  1  0.40885249  0.74225351  0.55744825  1
  Se  Se127  1  0.75004434  0.07770333  0.05283088  1
  Se  Se128  1  0.74137623  0.08576441  0.54426866  1
  Se  Se129  1  0.72348308  0.39351126  0.05111696  1
  Se  Se130  1  0.75317338  0.41782653  0.55833986  1
  Se  Se131  1  0.74868193  0.74590345  0.06351122  1
  Se  Se132  1  0.74388165  0.74572774  0.55906697  1
  Se  Se133  1  0.21973828  0.23650556  0.04607855  1
  Se  Se134  1  0.25857933  0.25714542  0.54850331  1
  Se  Se135  1  0.24333825  0.58321014  0.05570806  1
  Se  Se136  1  0.25462297  0.58196926  0.55593039  1
  Se  Se137  1  0.24837687  0.91243038  0.05953854  1
  Se  Se138  1  0.25693514  0.92590788  0.56330064  1
  Se  Se139  1  0.57776120  0.24459265  0.04118670  1
  Se  Se140  1  0.58904167  0.25986828  0.56349789  1
  Se  Se141  1  0.57842593  0.58480058  0.05810225  1
  Se  Se142  1  0.58395305  0.58256888  0.55238455  1
  Se  Se143  1  0.58029750  0.91064323  0.05370792  1
  Se  Se144  1  0.59168892  0.93355788  0.54861404  1
  Se  Se145  1  0.89822164  0.23295366  0.04527045  1
  Se  Se146  1  0.91570329  0.25461021  0.55089510  1
  Se  Se147  1  0.91248933  0.58370144  0.05813782  1
  Se  Se148  1  0.91376186  0.57716393  0.54690157  1
  Se  Se149  1  0.91915093  0.91479151  0.06346173  1
  Se  Se150  1  0.91926791  0.92766016  0.55611605  1
  Se  Se151  1  0.08377152  0.25127491  0.43884212  1
  Se  Se152  1  0.10090900  0.24590460  0.95661614  1
  Se  Se153  1  0.08973253  0.57567283  0.44099235  1
  Se  Se154  1  0.08750373  0.58538972  0.95500160  1
  Se  Se155  1  0.07399305  0.92474640  0.44083678  1
  Se  Se156  1  0.09122323  0.90859246  0.95589613  1
  Se  Se157  1  0.41333550  0.25666379  0.43398548  1
  Se  Se158  1  0.43557777  0.23428495  0.95366227  1
  Se  Se159  1  0.41934711  0.58209277  0.43530482  1
  Se  Se160  1  0.41151108  0.58837188  0.95266184  1
  Se  Se161  1  0.40536910  0.92534247  0.44106053  1
  Se  Se162  1  0.42031049  0.91240095  0.95302641  1
  Se  Se163  1  0.75186273  0.24981928  0.44704371  1
  Se  Se164  1  0.78177736  0.22785729  0.94980385  1
  Se  Se165  1  0.75219069  0.58425745  0.44525520  1
  Se  Se166  1  0.75172382  0.58722663  0.95820393  1
  Se  Se167  1  0.73925746  0.92621416  0.43724752  1
  Se  Se168  1  0.74454787  0.92458402  0.93468809  1
  Se  Se169  1  0.24486654  0.08847967  0.44959958  1
  Se  Se170  1  0.25283397  0.07641494  0.95012297  1
  Se  Se171  1  0.24014255  0.42715986  0.43871765  1
  Se  Se172  1  0.27620264  0.40286631  0.95443947  1
  Se  Se173  1  0.25146219  0.74089221  0.44017932  1
  Se  Se174  1  0.24636680  0.75197953  0.95126503  1
  Se  Se175  1  0.58523783  0.07985544  0.43701542  1
  Se  Se176  1  0.58707453  0.07885828  0.94664296  1
  Se  Se177  1  0.58579234  0.41317048  0.44651658  1
  Se  Se178  1  0.56313486  0.44031049  0.95323451  1
  Se  Se179  1  0.58456799  0.74145748  0.43400725  1
  Se  Se180  1  0.57752675  0.75290241  0.95298414  1
  Se  Se181  1  0.91397067  0.09163341  0.43782305  1
  Se  Se182  1  0.92800807  0.07518183  0.94806784  1
  Se  Se183  1  0.91673863  0.41910996  0.44144798  1
  Se  Se184  1  0.89460859  0.42834142  0.95439292  1
  Se  Se185  1  0.92626194  0.74084609  0.43483944  1
  Se  Se186  1  0.92397980  0.73801131  0.93876542  1
  Se  Se187  1  0.24949787  0.25295141  0.30050483  1
  Se  Se188  1  0.24307054  0.24227319  0.81282127  1
  Se  Se189  1  0.25289881  0.58186758  0.29638183  1
  Se  Se190  1  0.24927159  0.57844305  0.80567915  1
  Se  Se191  1  0.24472525  0.90974435  0.31569887  1
  Se  Se192  1  0.25211372  0.91566534  0.81587903  1
  Se  Se193  1  0.57435048  0.24293778  0.29856871  1
  Se  Se194  1  0.58869921  0.25945802  0.81424840  1
  Se  Se195  1  0.58511142  0.57262277  0.29835166  1
  Se  Se196  1  0.58439502  0.56932357  0.82304118  1
  Se  Se197  1  0.57623393  0.91130193  0.30392083  1
  Se  Se198  1  0.57841288  0.91087255  0.81013403  1
  Se  Se199  1  0.92228242  0.25943288  0.29914187  1
  Se  Se200  1  0.92543108  0.25648472  0.81043596  1
  Se  Se201  1  0.91822132  0.57677907  0.29944465  1
  Se  Se202  1  0.91267988  0.56629554  0.81891360  1
  Se  Se203  1  0.91410350  0.92234773  0.29891270  1
  Se  Se204  1  0.90852534  0.91100812  0.80655632  1
  Se  Se205  1  0.08529783  0.08696004  0.29706713  1
  Se  Se206  1  0.08770817  0.09730362  0.81761961  1
  Se  Se207  1  0.08172631  0.41464914  0.29643774  1
  Se  Se208  1  0.08631959  0.41515032  0.81835922  1
  Se  Se209  1  0.08267306  0.74966256  0.30068431  1
  Se  Se210  1  0.08926890  0.75324605  0.81646774  1
  Se  Se211  1  0.41848898  0.09417498  0.30089731  1
  Se  Se212  1  0.41907611  0.09545119  0.81369264  1
  Se  Se213  1  0.41592822  0.41271012  0.29929656  1
  Se  Se214  1  0.42202849  0.42167648  0.81652538  1
  Se  Se215  1  0.41976054  0.75813205  0.29006747  1
  Se  Se216  1  0.41179702  0.73958954  0.81048904  1
  Se  Se217  1  0.75330117  0.09860796  0.30278573  1
  Se  Se218  1  0.74894723  0.09759065  0.80866347  1
  Se  Se219  1  0.75329608  0.41900754  0.31070771  1
  Se  Se220  1  0.74595955  0.41314517  0.81231837  1
  Se  Se221  1  0.75049353  0.74580841  0.29800777  1
  Se  Se222  1  0.75494232  0.75479102  0.80304239  1
  Se  Se223  1  0.24550613  0.09945298  0.18591302  1
  Se  Se224  1  0.23542721  0.09334645  0.69980728  1
  Se  Se225  1  0.24752332  0.41239056  0.18683638  1
  Se  Se226  1  0.24183575  0.42115271  0.68813235  1
  Se  Se227  1  0.25165922  0.74896685  0.19780311  1
  Se  Se228  1  0.25685458  0.73801569  0.70761913  1
  Se  Se229  1  0.58689081  0.09807578  0.18281602  1
  Se  Se230  1  0.57556942  0.09772154  0.69260916  1
  Se  Se231  1  0.57250106  0.41864068  0.18018623  1
  Se  Se232  1  0.58548602  0.42101013  0.70195366  1
  Se  Se233  1  0.58861671  0.74039614  0.20239200  1
  Se  Se234  1  0.57548534  0.75056951  0.69580991  1
  Se  Se235  1  0.92366683  0.08878606  0.19603089  1
  Se  Se236  1  0.91681158  0.09958752  0.69623518  1
  Se  Se237  1  0.91353027  0.41207191  0.18376024  1
  Se  Se238  1  0.92255214  0.41236200  0.69928689  1
  Se  Se239  1  0.92169212  0.74673401  0.20066518  1
  Se  Se240  1  0.92107391  0.75175524  0.69391596  1
  Se  Se241  1  0.07854405  0.25940872  0.18765836  1
  Se  Se242  1  0.09103603  0.25396542  0.69543655  1
  Se  Se243  1  0.08320624  0.58213434  0.19526473  1
  Se  Se244  1  0.08699129  0.56950523  0.68992729  1
  Se  Se245  1  0.08494561  0.92124783  0.20120976  1
  Se  Se246  1  0.09649052  0.90398158  0.69728208  1
  Se  Se247  1  0.41104423  0.25778723  0.18469178  1
  Se  Se248  1  0.42164777  0.24691305  0.69729204  1
  Se  Se249  1  0.41067603  0.58102535  0.19256960  1
  Se  Se250  1  0.41426236  0.58094986  0.70107812  1
  Se  Se251  1  0.42652877  0.91639800  0.19237500  1
  Se  Se252  1  0.42352738  0.90247751  0.69262932  1
  Se  Se253  1  0.76291373  0.25393309  0.18317379  1
  Se  Se254  1  0.74913899  0.25799207  0.69890100  1
  Se  Se255  1  0.74764039  0.57374819  0.19656808  1
  Se  Se256  1  0.76510122  0.57320779  0.69234853  1
  Se  Se257  1  0.75717982  0.90946091  0.18528412  1
  Se  Se258  1  0.75723167  0.91490227  0.68013833  1
