# generated using pymatgen
data_In86Cu29Se144
_symmetry_space_group_name_H-M   'P 1'
_cell_length_a   17.56312175
_cell_length_b   17.56816560
_cell_length_c   23.42929739
_cell_angle_alpha   89.99927825
_cell_angle_beta   89.95630066
_cell_angle_gamma   89.99523740
_symmetry_Int_Tables_number   1
_chemical_formula_structural   In86Cu29Se144
_chemical_formula_sum   'In86 Cu29 Se144'
_cell_volume   7229.15048704
_cell_formula_units_Z   1
loop_
 _symmetry_equiv_pos_site_id
 _symmetry_equiv_pos_as_xyz
  1  'x, y, z'
loop_
 _atom_site_type_symbol
 _atom_site_label
 _atom_site_symmetry_multiplicity
 _atom_site_fract_x
 _atom_site_fract_y
 _atom_site_fract_z
 _atom_site_occupancy
  In  In0  1  -0.00508315  0.16900602  0.12158608  1
  In  In1  1  0.00724461  0.16423162  0.62396673  1
  In  In2  1  -0.00705983  0.50747396  0.12405205  1
  In  In3  1  -0.00708538  0.49424263  0.61975128  1
  In  In4  1  -0.02184446  0.83878439  0.12734565  1
  In  In5  1  -0.01096010  0.84233273  0.61420412  1
  In  In6  1  0.35270038  0.16572897  0.12656004  1
  In  In7  1  0.32979795  0.16186577  0.61634939  1
  In  In8  1  0.34437239  0.49109063  0.13687406  1
  In  In9  1  0.33244435  0.52220628  0.61555163  1
  In  In10  1  0.33799167  0.81981059  0.13401858  1
  In  In11  1  0.34866183  0.83304366  0.61331577  1
  In  In12  1  0.66519852  0.16779690  0.12450738  1
  In  In13  1  0.66215689  0.17733837  0.63509074  1
  In  In14  1  0.66003692  0.49732502  0.12141422  1
  In  In15  1  0.67048953  0.48829054  0.63553556  1
  In  In16  1  0.66506375  0.83049873  0.12306582  1
  In  In17  1  0.66417607  0.82739421  0.62586523  1
  In  In18  1  0.16805298  -0.00186713  0.39036361  1
  In  In19  1  0.16200896  -0.00121554  0.86908604  1
  In  In20  1  0.17744312  0.32694117  0.38172977  1
  In  In21  1  0.15988456  0.34343563  0.87004673  1
  In  In22  1  0.18473068  0.65146854  0.39407715  1
  In  In23  1  0.16784391  0.67264712  0.87286652  1
  In  In24  1  0.51247841  -0.01189947  0.38040961  1
  In  In25  1  0.52336817  -0.01808269  0.88839802  1
  In  In26  1  0.49645792  0.33141222  0.37127049  1
  In  In27  1  0.50856917  0.32746972  0.87998387  1
  In  In28  1  0.50913907  0.67476162  0.36791360  1
  In  In29  1  0.52780091  0.65152556  0.89744488  1
  In  In30  1  0.81796750  -0.00484648  0.37189728  1
  In  In31  1  0.81360925  0.02371073  0.88771603  1
  In  In32  1  0.83426292  0.34164828  0.37380105  1
  In  In33  1  0.82604454  0.33638278  0.87257180  1
  In  In34  1  0.82956941  0.67093906  0.37852358  1
  In  In35  1  0.79580524  0.69616536  0.90137056  1
  In  In36  1  0.00369902  0.17500053  0.37923056  1
  In  In37  1  -0.05876098  0.16611547  0.86480907  1
  In  In38  1  -0.00850613  0.50436431  0.38400387  1
  In  In39  1  -0.01760714  0.48214385  0.86062613  1
  In  In40  1  -0.00062651  0.83804469  0.38877944  1
  In  In41  1  -0.00408567  0.82491118  0.87143988  1
  In  In42  1  0.33298115  0.17482817  0.38132433  1
  In  In43  1  0.33929622  0.17535768  0.87656572  1
  In  In44  1  0.33552577  0.49317743  0.37008695  1
  In  In45  1  0.34168356  0.51089586  0.87686158  1
  In  In46  1  0.34425646  0.81987308  0.38963546  1
  In  In47  1  0.34981676  0.84034618  0.87164145  1
  In  In48  1  0.66131787  0.15942638  0.37055888  1
  In  In49  1  0.66735633  0.16562027  0.87177154  1
  In  In50  1  0.67213501  0.50565150  0.37030529  1
  In  In51  1  0.66212990  0.50567777  0.87823662  1
  In  In52  1  0.66590619  0.82912554  0.37479798  1
  In  In53  1  0.65632992  0.83764421  0.86701942  1
  In  In54  1  0.16124685  -0.00380664  0.13038216  1
  In  In55  1  0.15750020  0.00343808  0.60541328  1
  In  In56  1  0.16865584  0.34718949  0.12948795  1
  In  In57  1  0.16014917  0.32469735  0.61780863  1
  In  In58  1  0.17496172  0.67680248  0.13201730  1
  In  In59  1  0.18163180  0.67348560  0.60521461  1
  In  In60  1  0.51191525  0.01597851  0.11671315  1
  In  In61  1  0.50545786  -0.00308211  0.62344704  1
  In  In62  1  0.50336957  0.33442292  0.12633206  1
  In  In63  1  0.51787997  0.33113034  0.62786541  1
  In  In64  1  0.50607697  0.66487127  0.12354264  1
  In  In65  1  0.50284110  0.67471483  0.62791049  1
  In  In66  1  0.81252539  -0.02824853  0.10339347  1
  In  In67  1  0.83287736  -0.00947802  0.62537420  1
  In  In68  1  0.82323736  0.31670695  0.11233239  1
  In  In69  1  0.82274557  0.34470953  0.64070257  1
  In  In70  1  0.79355156  0.64009983  0.09160602  1
  In  In71  1  0.82442701  0.66415699  0.62208657  1
  In  In72  1  -0.01153899  0.65054182  0.74202156  1
  In  In73  1  0.35028175  0.66529090  0.74972760  1
  In  In74  1  0.16151853  0.16947354  -0.00094834  1
  In  In75  1  -0.00251803  0.67207442  0.24934024  1
  In  In76  1  0.16483903  0.82901468  0.00296098  1
  In  In77  1  0.16508134  0.50141582  -0.00287671  1
  In  In78  1  0.34264305  0.00154502  0.73500872  1
  In  In79  1  -0.00575543  0.00036594  0.25426432  1
  In  In80  1  0.33776669  0.33662314  0.75274816  1
  In  In81  1  -0.00039558  0.33279910  0.25515068  1
  In  In82  1  0.34239307  -0.00153451  0.26123982  1
  In  In83  1  0.50416085  0.49850242  0.49974530  1
  In  In84  1  -0.01312117  0.00229314  0.74725548  1
  In  In85  1  0.83866921  0.16134105  0.50441546  1
  Cu  Cu86  1  0.82164080  0.15832447  0.24272818  1
  Cu  Cu87  1  0.82083265  0.82237416  0.24583730  1
  Cu  Cu88  1  0.82336528  0.49606625  0.24331754  1
  Cu  Cu89  1  0.50411671  0.83523119  0.25077839  1
  Cu  Cu90  1  0.82190053  0.83629274  0.75172089  1
  Cu  Cu91  1  0.33713297  0.33391507  0.49914775  1
  Cu  Cu92  1  0.34589916  0.33398774  0.00559808  1
  Cu  Cu93  1  0.67033337  0.66798922  0.49818480  1
  Cu  Cu94  1  0.17815509  0.50134714  0.25821192  1
  Cu  Cu95  1  0.17930066  0.17071250  0.25684519  1
  Cu  Cu96  1  -0.00481053  0.66773357  0.50333338  1
  Cu  Cu97  1  0.34080625  -0.00138066  0.00099882  1
  Cu  Cu98  1  0.50554835  0.17666854  0.24949945  1
  Cu  Cu99  1  0.16900392  0.83418686  0.73973243  1
  Cu  Cu100  1  0.34102559  0.00349600  0.49907737  1
  Cu  Cu101  1  0.49864774  0.15901971  0.75191981  1
  Cu  Cu102  1  0.66484913  -0.00706461  0.49989042  1
  Cu  Cu103  1  0.66528478  0.00334709  -0.00080952  1
  Cu  Cu104  1  0.16628317  0.49673277  0.73779395  1
  Cu  Cu105  1  -0.00978902  0.32573997  -0.00993080  1
  Cu  Cu106  1  -0.00329764  0.33758383  0.50090786  1
  Cu  Cu107  1  0.16813699  0.82312102  0.26164457  1
  Cu  Cu108  1  0.50498829  0.50578651  0.24912201  1
  Cu  Cu109  1  0.66470191  0.33329300  -0.00277213  1
  Cu  Cu110  1  -0.00849660  0.66207678  -0.00307353  1
  Cu  Cu111  1  0.15148926  0.16748321  0.74550196  1
  Cu  Cu112  1  0.34582050  0.66478577  0.00690470  1
  Cu  Cu113  1  0.82841471  0.51091751  0.75736988  1
  Cu  Cu114  1  0.67438828  0.32957698  0.50666409  1
  Se  Se115  1  0.07751769  0.07091863  0.05724121  1
  Se  Se116  1  0.07601817  0.09327833  0.54381804  1
  Se  Se117  1  0.07134723  0.40534596  0.05355883  1
  Se  Se118  1  0.08438397  0.41877820  0.55296207  1
  Se  Se119  1  0.07104065  0.73808483  0.06255616  1
  Se  Se120  1  0.07762978  0.75362448  0.55459950  1
  Se  Se121  1  0.42121851  0.09015188  0.04759793  1
  Se  Se122  1  0.42427190  0.08373342  0.55510979  1
  Se  Se123  1  0.42219167  0.42322293  0.05788813  1
  Se  Se124  1  0.41427711  0.40954128  0.56408611  1
  Se  Se125  1  0.42195035  0.75552384  0.05791117  1
  Se  Se126  1  0.40579717  0.72402333  0.55375313  1
  Se  Se127  1  0.74879056  0.08699970  0.05311838  1
  Se  Se128  1  0.73818985  0.07968071  0.56140421  1
  Se  Se129  1  0.74743971  0.41486731  0.05288681  1
  Se  Se130  1  0.75271570  0.41734930  0.55895996  1
  Se  Se131  1  0.77249789  0.77634740  0.05664844  1
  Se  Se132  1  0.75164500  0.75374918  0.55269617  1
  Se  Se133  1  0.25444954  0.25706690  0.06181958  1
  Se  Se134  1  0.25027869  0.24953252  0.55017883  1
  Se  Se135  1  0.25524045  0.58683739  0.06267328  1
  Se  Se136  1  0.24901035  0.57946802  0.53718384  1
  Se  Se137  1  0.25849482  0.92072042  0.06300541  1
  Se  Se138  1  0.25855157  0.92009574  0.55403638  1
  Se  Se139  1  0.58301660  0.25129408  0.05519466  1
  Se  Se140  1  0.58566373  0.24554562  0.55371713  1
  Se  Se141  1  0.60141994  0.60015413  0.05406726  1
  Se  Se142  1  0.59527889  0.58460163  0.56111566  1
  Se  Se143  1  0.58428353  0.91867060  0.05422079  1
  Se  Se144  1  0.58202144  0.90902912  0.55431156  1
  Se  Se145  1  0.91326453  0.23869631  0.04585521  1
  Se  Se146  1  0.91578852  0.26226545  0.56468836  1
  Se  Se147  1  0.91292714  0.57197971  0.04659041  1
  Se  Se148  1  0.91134344  0.58276100  0.55536322  1
  Se  Se149  1  0.93310489  0.92830173  0.04943179  1
  Se  Se150  1  0.91464103  0.93091284  0.54664176  1
  Se  Se151  1  0.08326867  0.25506596  0.44895465  1
  Se  Se152  1  0.07479769  0.24980713  0.93053960  1
  Se  Se153  1  0.07861844  0.58194938  0.45140951  1
  Se  Se154  1  0.07294359  0.58559488  0.93266438  1
  Se  Se155  1  0.07858535  0.92286587  0.45535022  1
  Se  Se156  1  0.07871194  0.91916732  0.94008103  1
  Se  Se157  1  0.42434336  0.25195803  0.44792318  1
  Se  Se158  1  0.42196417  0.24688896  0.94967448  1
  Se  Se159  1  0.42020265  0.58591184  0.43495703  1
  Se  Se160  1  0.42272633  0.57601001  0.95402413  1
  Se  Se161  1  0.42313400  0.91512479  0.44965045  1
  Se  Se162  1  0.42252820  0.91058200  0.95142590  1
  Se  Se163  1  0.74931293  0.25030757  0.44098971  1
  Se  Se164  1  0.74778332  0.25087662  0.94243525  1
  Se  Se165  1  0.75132276  0.58072522  0.44575006  1
  Se  Se166  1  0.74958198  0.57645975  0.95245020  1
  Se  Se167  1  0.74901680  0.91140480  0.44623504  1
  Se  Se168  1  0.74234248  0.91770876  0.94105939  1
  Se  Se169  1  0.25464061  0.08823490  0.44953293  1
  Se  Se170  1  0.25564756  0.07506834  0.94049115  1
  Se  Se171  1  0.25549767  0.41874568  0.44579584  1
  Se  Se172  1  0.26110743  0.40706882  0.94165744  1
  Se  Se173  1  0.22803310  0.77253277  0.44615801  1
  Se  Se174  1  0.26284502  0.74210247  0.94356338  1
  Se  Se175  1  0.58690811  0.08204380  0.44681401  1
  Se  Se176  1  0.58358504  0.09095312  0.94680680  1
  Se  Se177  1  0.59552760  0.40783612  0.44136397  1
  Se  Se178  1  0.57971341  0.41944099  0.94807621  1
  Se  Se179  1  0.58315831  0.74931506  0.44655928  1
  Se  Se180  1  0.58876518  0.76407352  0.94920721  1
  Se  Se181  1  0.91933225  0.07532783  0.43424855  1
  Se  Se182  1  0.93111634  0.07098037  0.94490944  1
  Se  Se183  1  0.90860900  0.41800309  0.44984212  1
  Se  Se184  1  0.91102146  0.41864117  0.94398767  1
  Se  Se185  1  0.91134334  0.75029392  0.44901800  1
  Se  Se186  1  0.91620592  0.75692162  0.94882242  1
  Se  Se187  1  0.26072966  0.25732519  0.30557424  1
  Se  Se188  1  0.23942985  0.24175570  0.80465053  1
  Se  Se189  1  0.25656501  0.59113564  0.30852694  1
  Se  Se190  1  0.24302681  0.57592408  0.80318327  1
  Se  Se191  1  0.24509041  0.91167345  0.31676777  1
  Se  Se192  1  0.24881672  0.91256328  0.80116676  1
  Se  Se193  1  0.59023458  0.25611035  0.30529462  1
  Se  Se194  1  0.57884967  0.24652088  0.80394891  1
  Se  Se195  1  0.58982507  0.58788857  0.30163752  1
  Se  Se196  1  0.58435782  0.59127945  0.80788911  1
  Se  Se197  1  0.58952626  0.91680505  0.30297748  1
  Se  Se198  1  0.58054376  0.92597760  0.79800583  1
  Se  Se199  1  0.90356748  0.23546861  0.30578708  1
  Se  Se200  1  0.92836199  0.28036931  0.80117529  1
  Se  Se201  1  0.90754143  0.57328350  0.30413219  1
  Se  Se202  1  0.89984232  0.59598119  0.82179635  1
  Se  Se203  1  0.90611966  0.89957040  0.30637772  1
  Se  Se204  1  0.90434859  0.91278943  0.81208678  1
  Se  Se205  1  0.09338525  0.08958553  0.31065265  1
  Se  Se206  1  0.07515280  0.09272659  0.81102557  1
  Se  Se207  1  0.08782238  0.42500111  0.31493769  1
  Se  Se208  1  0.08304363  0.41796347  0.79404915  1
  Se  Se209  1  0.08338062  0.74765798  0.32060547  1
  Se  Se210  1  0.08687367  0.75117348  0.79616833  1
  Se  Se211  1  0.43198423  0.09386853  0.31500736  1
  Se  Se212  1  0.41850456  0.08044233  0.81255346  1
  Se  Se213  1  0.42252810  0.41853781  0.30034869  1
  Se  Se214  1  0.42745068  0.42507609  0.81131992  1
  Se  Se215  1  0.41632698  0.75693922  0.30465914  1
  Se  Se216  1  0.43597549  0.74614981  0.81639545  1
  Se  Se217  1  0.74203290  0.07614971  0.29984878  1
  Se  Se218  1  0.76011570  0.09516039  0.80204933  1
  Se  Se219  1  0.74700591  0.41241948  0.30215680  1
  Se  Se220  1  0.74403003  0.42369684  0.80646787  1
  Se  Se221  1  0.74376253  0.74005974  0.30465246  1
  Se  Se222  1  0.74508819  0.74755705  0.80541172  1
  Se  Se223  1  0.25121261  0.08501235  0.19423489  1
  Se  Se224  1  0.23366790  0.08627686  0.68739569  1
  Se  Se225  1  0.25437445  0.41256075  0.20409266  1
  Se  Se226  1  0.25391566  0.42033713  0.68230414  1
  Se  Se227  1  0.25639734  0.74521950  0.20830644  1
  Se  Se228  1  0.25457901  0.75198132  0.68762895  1
  Se  Se229  1  0.58331140  0.08695915  0.19701860  1
  Se  Se230  1  0.58238229  0.08022720  0.69537864  1
  Se  Se231  1  0.58481168  0.41737183  0.19652025  1
  Se  Se232  1  0.58431810  0.41028063  0.70381027  1
  Se  Se233  1  0.58437640  0.75065805  0.19516399  1
  Se  Se234  1  0.59783265  0.73513834  0.69758293  1
  Se  Se235  1  0.90829389  0.08090346  0.18599553  1
  Se  Se236  1  0.90228800  0.09735380  0.68871103  1
  Se  Se237  1  0.91040309  0.41512771  0.18766800  1
  Se  Se238  1  0.91385954  0.43201265  0.70117382  1
  Se  Se239  1  0.89828388  0.74049996  0.18499535  1
  Se  Se240  1  0.90917689  0.76090826  0.69143054  1
  Se  Se241  1  0.09234813  0.24165502  0.19331869  1
  Se  Se242  1  0.07519309  0.25808544  0.69407546  1
  Se  Se243  1  0.09359386  0.57437883  0.19493142  1
  Se  Se244  1  0.09511592  0.58594933  0.67867554  1
  Se  Se245  1  0.08712527  0.90043057  0.19911748  1
  Se  Se246  1  0.08626549  0.91766579  0.68627478  1
  Se  Se247  1  0.41641948  0.25600826  0.19840039  1
  Se  Se248  1  0.41824350  0.23876009  0.69099525  1
  Se  Se249  1  0.42006183  0.58928157  0.19638365  1
  Se  Se250  1  0.43252026  0.56595461  0.69187734  1
  Se  Se251  1  0.42649692  0.91938154  0.18962726  1
  Se  Se252  1  0.43306839  0.89685258  0.69406282  1
  Se  Se253  1  0.74722620  0.25345566  0.19419216  1
  Se  Se254  1  0.75000872  0.25015302  0.70352046  1
  Se  Se255  1  0.74749515  0.58430090  0.18828256  1
  Se  Se256  1  0.74772262  0.58713441  0.69648427  1
  Se  Se257  1  0.74780729  0.91698489  0.19311424  1
  Se  Se258  1  0.74301806  0.91886406  0.69459932  1
