# generated using pymatgen
data_In86Cu29Se144
_symmetry_space_group_name_H-M   'P 1'
_cell_length_a   17.58885719
_cell_length_b   17.58437827
_cell_length_c   23.44740697
_cell_angle_alpha   90.01196577
_cell_angle_beta   90.00075136
_cell_angle_gamma   90.02106781
_symmetry_Int_Tables_number   1
_chemical_formula_structural   In86Cu29Se144
_chemical_formula_sum   'In86 Cu29 Se144'
_cell_volume   7252.02717519
_cell_formula_units_Z   1
loop_
 _symmetry_equiv_pos_site_id
 _symmetry_equiv_pos_as_xyz
  1  'x, y, z'
loop_
 _atom_site_type_symbol
 _atom_site_label
 _atom_site_symmetry_multiplicity
 _atom_site_fract_x
 _atom_site_fract_y
 _atom_site_fract_z
 _atom_site_occupancy
  In  In0  1  0.01260518  0.17236781  0.11244146  1
  In  In1  1  -0.01021290  0.17842566  0.62540309  1
  In  In2  1  0.01417098  0.49231544  0.13654128  1
  In  In3  1  -0.00727524  0.51516157  0.62439661  1
  In  In4  1  -0.01820185  0.83029925  0.11769453  1
  In  In5  1  -0.00819955  0.82142949  0.62534280  1
  In  In6  1  0.31709525  0.19342182  0.14382564  1
  In  In7  1  0.34828580  0.15881232  0.63482883  1
  In  In8  1  0.33416449  0.50120373  0.12432455  1
  In  In9  1  0.33640436  0.49461236  0.62942161  1
  In  In10  1  0.33325744  0.82823660  0.13086971  1
  In  In11  1  0.34474629  0.82333706  0.63117876  1
  In  In12  1  0.66409741  0.15690792  0.12433767  1
  In  In13  1  0.64796080  0.14864485  0.60485659  1
  In  In14  1  0.66488766  0.52157375  0.12096652  1
  In  In15  1  0.67368337  0.50975408  0.61977880  1
  In  In16  1  0.67462640  0.81503382  0.12061598  1
  In  In17  1  0.65284358  0.83879922  0.63189745  1
  In  In18  1  0.17566343  -0.01163047  0.37461149  1
  In  In19  1  0.17702261  -0.00159923  0.87793496  1
  In  In20  1  0.17406969  0.35164708  0.35643939  1
  In  In21  1  0.17424728  0.32717613  0.88380049  1
  In  In22  1  0.16303781  0.65310094  0.35742067  1
  In  In23  1  0.16161165  0.65919724  0.87341427  1
  In  In24  1  0.49062294  0.00872960  0.39290384  1
  In  In25  1  0.50208499  -0.00269012  0.86631782  1
  In  In26  1  0.50032439  0.33426954  0.38255586  1
  In  In27  1  0.49729687  0.34994806  0.87694499  1
  In  In28  1  0.49886776  0.66661692  0.37643636  1
  In  In29  1  0.49590721  0.66095773  0.86866595  1
  In  In30  1  0.82998606  0.00674540  0.38146096  1
  In  In31  1  0.82988590  0.00184576  0.87707496  1
  In  In32  1  0.83929533  0.33170998  0.37193033  1
  In  In33  1  0.82966386  0.31965204  0.88008455  1
  In  In34  1  0.82552220  0.66606371  0.37016046  1
  In  In35  1  0.83751062  0.66949335  0.87269760  1
  In  In36  1  -0.00915489  0.17573746  0.37185501  1
  In  In37  1  0.00069821  0.16236849  0.88733311  1
  In  In38  1  -0.00421105  0.49679566  0.36479524  1
  In  In39  1  0.00452216  0.52264018  0.88244039  1
  In  In40  1  0.00331490  0.82971557  0.37098080  1
  In  In41  1  -0.00138663  0.80892922  0.88071368  1
  In  In42  1  0.34989988  0.17774530  0.36285201  1
  In  In43  1  0.32961956  0.16085845  0.87188485  1
  In  In44  1  0.34363725  0.50775895  0.36768116  1
  In  In45  1  0.33154760  0.50160175  0.87581500  1
  In  In46  1  0.33873988  0.84039963  0.36911245  1
  In  In47  1  0.33958918  0.83724728  0.86818049  1
  In  In48  1  0.66235019  0.16645456  0.38768559  1
  In  In49  1  0.67957601  0.16119433  0.87554654  1
  In  In50  1  0.65466832  0.51219954  0.38100979  1
  In  In51  1  0.65359837  0.49624890  0.87680437  1
  In  In52  1  0.66558841  0.82133531  0.37751277  1
  In  In53  1  0.67055043  0.83350847  0.86721586  1
  In  In54  1  0.16215921  0.01452651  0.11985125  1
  In  In55  1  0.17326540  0.01286732  0.62974627  1
  In  In56  1  0.17060448  0.33667227  0.12588411  1
  In  In57  1  0.17196411  0.34920091  0.62568546  1
  In  In58  1  0.17296346  0.65299276  0.13378149  1
  In  In59  1  0.16543926  0.66897809  0.63136514  1
  In  In60  1  0.49685208  -0.00404557  0.12883754  1
  In  In61  1  0.50180281  -0.00426630  0.62426697  1
  In  In62  1  0.46762393  0.34313836  0.13738432  1
  In  In63  1  0.49583449  0.32888642  0.62178651  1
  In  In64  1  0.51097643  0.65661660  0.13087254  1
  In  In65  1  0.49710585  0.66613632  0.62342961  1
  In  In66  1  0.84598787  0.00290736  0.10786527  1
  In  In67  1  0.80458141  -0.00326837  0.62118245  1
  In  In68  1  0.84624508  0.33530603  0.12734642  1
  In  In69  1  0.82199976  0.32649166  0.61511613  1
  In  In70  1  0.83141783  0.67255254  0.12808993  1
  In  In71  1  0.83846364  0.65513435  0.63017529  1
  In  In72  1  0.66052522  0.33784229  0.25963229  1
  In  In73  1  0.66403573  0.33063531  0.75086418  1
  In  In74  1  0.50243586  0.83066575  -0.00807197  1
  In  In75  1  0.00313787  -0.00717121  0.75380137  1
  In  In76  1  0.16678745  0.50180901  0.48760074  1
  In  In77  1  0.17152107  0.82690977  0.50085103  1
  In  In78  1  0.49719375  0.17162267  0.00810898  1
  In  In79  1  0.66358618  -0.00693592  0.25111433  1
  In  In80  1  0.00439435  0.33777455  0.75235221  1
  In  In81  1  0.82607402  0.83200323  0.49855187  1
  In  In82  1  0.15929593  0.82994628  -0.00216177  1
  In  In83  1  0.16900447  0.17300157  0.49362007  1
  In  In84  1  0.83923768  0.49785431  0.00298541  1
  In  In85  1  0.00505835  -0.00172348  0.24462367  1
  Cu  Cu86  1  -0.00613172  0.33903681  0.49319852  1
  Cu  Cu87  1  0.34112353  0.32698104  0.50227550  1
  Cu  Cu88  1  0.17159614  0.50378386  0.75267902  1
  Cu  Cu89  1  0.83114216  0.82408667  0.74702990  1
  Cu  Cu90  1  0.17939341  0.17186358  0.75415078  1
  Cu  Cu91  1  0.32569489  0.01252990  0.00299043  1
  Cu  Cu92  1  0.16937078  0.82828814  0.24702445  1
  Cu  Cu93  1  0.50200499  0.83119518  0.74777044  1
  Cu  Cu94  1  0.67076484  -0.00242916  -0.00240534  1
  Cu  Cu95  1  0.83321220  0.50969035  0.24595137  1
  Cu  Cu96  1  0.33985198  -0.00181733  0.50222498  1
  Cu  Cu97  1  0.66246558  0.33170887  0.00140992  1
  Cu  Cu98  1  0.49621574  0.50538513  0.74964275  1
  Cu  Cu99  1  0.67050721  0.34313887  0.49766936  1
  Cu  Cu100  1  0.49701933  0.82779639  0.25188024  1
  Cu  Cu101  1  0.50201944  0.16763910  0.74540491  1
  Cu  Cu102  1  0.00404501  0.33305144  0.00645121  1
  Cu  Cu103  1  0.32853038  0.33910649  0.00448859  1
  Cu  Cu104  1  0.82960882  0.15773190  0.74782069  1
  Cu  Cu105  1  0.16328798  0.16657001  0.24450773  1
  Cu  Cu106  1  0.66099740  0.66846699  0.50295756  1
  Cu  Cu107  1  0.33385052  0.66531915  0.49651225  1
  Cu  Cu108  1  0.83586832  0.50114051  0.75023149  1
  Cu  Cu109  1  -0.00673946  0.00578389  0.50101864  1
  Cu  Cu110  1  0.49953423  0.50260656  0.25291344  1
  Cu  Cu111  1  0.83602229  0.17191289  0.24858415  1
  Cu  Cu112  1  0.33590606  0.66159578  -0.00051399  1
  Cu  Cu113  1  0.82954246  0.83359414  0.24659358  1
  Cu  Cu114  1  0.17142013  0.83199476  0.75555312  1
  Se  Se115  1  0.07152507  0.07118545  0.04653054  1
  Se  Se116  1  0.07709499  0.08449295  0.55852089  1
  Se  Se117  1  0.08679197  0.41874516  0.05664744  1
  Se  Se118  1  0.07607852  0.41539800  0.55493741  1
  Se  Se119  1  0.08287050  0.74076686  0.06582686  1
  Se  Se120  1  0.07455928  0.73780571  0.55430083  1
  Se  Se121  1  0.40577362  0.08429548  0.06754429  1
  Se  Se122  1  0.41911314  0.08461270  0.55629504  1
  Se  Se123  1  0.41896886  0.42082650  0.05196373  1
  Se  Se124  1  0.41577108  0.41851049  0.55524514  1
  Se  Se125  1  0.41476051  0.74563699  0.05764729  1
  Se  Se126  1  0.41483188  0.74902507  0.55185287  1
  Se  Se127  1  0.74785703  0.08578552  0.05166689  1
  Se  Se128  1  0.76750028  0.10174820  0.55179226  1
  Se  Se129  1  0.74351289  0.41108006  0.06368472  1
  Se  Se130  1  0.75468039  0.42519621  0.55108930  1
  Se  Se131  1  0.75782944  0.74498351  0.04883845  1
  Se  Se132  1  0.74318154  0.74472190  0.56536120  1
  Se  Se133  1  0.24906212  0.24795668  0.05517704  1
  Se  Se134  1  0.25614617  0.25349310  0.56333187  1
  Se  Se135  1  0.25094964  0.58333418  0.05474582  1
  Se  Se136  1  0.25116624  0.58748342  0.55698199  1
  Se  Se137  1  0.25455344  0.91816769  0.05800803  1
  Se  Se138  1  0.25493762  0.92249810  0.56203568  1
  Se  Se139  1  0.58237629  0.26307217  0.07016571  1
  Se  Se140  1  0.58498196  0.25947711  0.55018432  1
  Se  Se141  1  0.57972961  0.58922383  0.04837794  1
  Se  Se142  1  0.57828313  0.58131963  0.55404998  1
  Se  Se143  1  0.58914651  0.92029873  0.05814574  1
  Se  Se144  1  0.58995142  0.92099314  0.55512414  1
  Se  Se145  1  0.91329393  0.25072719  0.05266555  1
  Se  Se146  1  0.91643722  0.25225099  0.54840275  1
  Se  Se147  1  0.92486876  0.58019539  0.06916928  1
  Se  Se148  1  0.91020330  0.58311562  0.55084079  1
  Se  Se149  1  0.91432075  0.90968871  0.04166314  1
  Se  Se150  1  0.91817125  0.92343684  0.56161626  1
  Se  Se151  1  0.08342278  0.26783894  0.43368362  1
  Se  Se152  1  0.08514488  0.24930494  0.95026963  1
  Se  Se153  1  0.07265650  0.59317636  0.43622471  1
  Se  Se154  1  0.09083017  0.59026617  0.95408651  1
  Se  Se155  1  0.07495542  0.92342673  0.44574253  1
  Se  Se156  1  0.07320698  0.92087928  0.93537911  1
  Se  Se157  1  0.42008135  0.24157295  0.44766638  1
  Se  Se158  1  0.41012332  0.25826708  0.94305279  1
  Se  Se159  1  0.41826893  0.57981835  0.44603910  1
  Se  Se160  1  0.41993727  0.58201078  0.94368181  1
  Se  Se161  1  0.41482616  0.90571758  0.45050672  1
  Se  Se162  1  0.40803715  0.93204717  0.94415285  1
  Se  Se163  1  0.75121468  0.25824317  0.44271769  1
  Se  Se164  1  0.74573050  0.24616181  0.95214822  1
  Se  Se165  1  0.74660247  0.59109591  0.44589397  1
  Se  Se166  1  0.74821764  0.57938099  0.93918557  1
  Se  Se167  1  0.73562738  0.92618932  0.44375440  1
  Se  Se168  1  0.74783366  0.91224795  0.94177096  1
  Se  Se169  1  0.25892964  0.07670538  0.44104088  1
  Se  Se170  1  0.24389582  0.09293561  0.94748500  1
  Se  Se171  1  0.26303620  0.40635371  0.43930820  1
  Se  Se172  1  0.24824379  0.42250536  0.94811833  1
  Se  Se173  1  0.25146909  0.73847516  0.43290061  1
  Se  Se174  1  0.26113949  0.74876303  0.93993251  1
  Se  Se175  1  0.58821659  0.07891846  0.45503100  1
  Se  Se176  1  0.58343317  0.07858653  0.94352303  1
  Se  Se177  1  0.57974463  0.42239559  0.44860754  1
  Se  Se178  1  0.57979528  0.41809511  0.95286936  1
  Se  Se179  1  0.57824271  0.75044564  0.44880930  1
  Se  Se180  1  0.59193449  0.73984777  0.93632773  1
  Se  Se181  1  0.91778307  0.09067233  0.44431182  1
  Se  Se182  1  0.90185994  0.09130809  0.94592361  1
  Se  Se183  1  0.91357934  0.42394082  0.43984664  1
  Se  Se184  1  0.92737743  0.40766350  0.93796931  1
  Se  Se185  1  0.92082369  0.74647048  0.44084264  1
  Se  Se186  1  0.91703134  0.73498560  0.95185002  1
  Se  Se187  1  0.24739098  0.24605835  0.30156108  1
  Se  Se188  1  0.25715307  0.25893693  0.80720334  1
  Se  Se189  1  0.24718010  0.56607413  0.29753841  1
  Se  Se190  1  0.25445058  0.58872918  0.80505172  1
  Se  Se191  1  0.25054576  0.91561283  0.29817376  1
  Se  Se192  1  0.25292153  0.92142021  0.80309531  1
  Se  Se193  1  0.57600849  0.23761213  0.31210127  1
  Se  Se194  1  0.57551497  0.24273802  0.81548410  1
  Se  Se195  1  0.58339908  0.58892679  0.30326571  1
  Se  Se196  1  0.58664985  0.58136196  0.80185148  1
  Se  Se197  1  0.57365711  0.90951022  0.31421429  1
  Se  Se198  1  0.58600303  0.91636801  0.79971217  1
  Se  Se199  1  0.92134281  0.25784319  0.29640095  1
  Se  Se200  1  0.91274724  0.23853695  0.80514230  1
  Se  Se201  1  0.91580427  0.59146625  0.30203795  1
  Se  Se202  1  0.91981471  0.58282373  0.80410942  1
  Se  Se203  1  0.90645327  0.91653396  0.30792187  1
  Se  Se204  1  0.91157731  0.90240973  0.81067118  1
  Se  Se205  1  0.08957658  0.08769887  0.31149003  1
  Se  Se206  1  0.09011522  0.09311734  0.80865466  1
  Se  Se207  1  0.08339413  0.42621734  0.29267552  1
  Se  Se208  1  0.08984002  0.42628709  0.81527413  1
  Se  Se209  1  0.08092123  0.75076100  0.29951175  1
  Se  Se210  1  0.08487620  0.74787959  0.80375721  1
  Se  Se211  1  0.40831578  0.06253793  0.31123280  1
  Se  Se212  1  0.41935164  0.08601432  0.80340870  1
  Se  Se213  1  0.42426383  0.41234292  0.30687681  1
  Se  Se214  1  0.41473039  0.42026719  0.80318181  1
  Se  Se215  1  0.41320565  0.74465919  0.30531740  1
  Se  Se216  1  0.41708830  0.74954741  0.80141783  1
  Se  Se217  1  0.75398891  0.09277771  0.30700053  1
  Se  Se218  1  0.74687660  0.07527462  0.80140607  1
  Se  Se219  1  0.75434293  0.43205199  0.31081131  1
  Se  Se220  1  0.75918432  0.41833015  0.81122337  1
  Se  Se221  1  0.74553224  0.75230438  0.30068286  1
  Se  Se222  1  0.74857736  0.74165383  0.80180687  1
  Se  Se223  1  0.24717206  0.08042206  0.19508020  1
  Se  Se224  1  0.25765200  0.08220961  0.70261169  1
  Se  Se225  1  0.27993438  0.39211628  0.18815265  1
  Se  Se226  1  0.25269646  0.41628846  0.70175456  1
  Se  Se227  1  0.25514447  0.74248508  0.19874584  1
  Se  Se228  1  0.25185314  0.74911309  0.69756717  1
  Se  Se229  1  0.57287298  0.09005767  0.19815416  1
  Se  Se230  1  0.58503014  0.08453077  0.69207930  1
  Se  Se231  1  0.58045864  0.42525744  0.18949990  1
  Se  Se232  1  0.57926021  0.42379238  0.69006405  1
  Se  Se233  1  0.58480213  0.75336668  0.19516954  1
  Se  Se234  1  0.58199827  0.74228718  0.69640387  1
  Se  Se235  1  0.91366180  0.09012263  0.18766523  1
  Se  Se236  1  0.91317361  0.07882217  0.68881255  1
  Se  Se237  1  0.91546893  0.41898945  0.20043736  1
  Se  Se238  1  0.90778313  0.41550162  0.68872224  1
  Se  Se239  1  0.91821306  0.75152889  0.19820448  1
  Se  Se240  1  0.91986049  0.74150071  0.69940262  1
  Se  Se241  1  0.08132780  0.25023263  0.19079424  1
  Se  Se242  1  0.09536569  0.24485307  0.69141087  1
  Se  Se243  1  0.09007605  0.57796308  0.20653598  1
  Se  Se244  1  0.08439951  0.57968077  0.69635843  1
  Se  Se245  1  0.09033837  0.90648193  0.18340546  1
  Se  Se246  1  0.09285791  0.90660698  0.68794294  1
  Se  Se247  1  0.42978662  0.23692667  0.20589368  1
  Se  Se248  1  0.41804485  0.25730365  0.69975691  1
  Se  Se249  1  0.41691807  0.58382183  0.19597830  1
  Se  Se250  1  0.41215949  0.58684846  0.69461869  1
  Se  Se251  1  0.41697811  0.91279411  0.19721745  1
  Se  Se252  1  0.41804275  0.91800437  0.69640394  1
  Se  Se253  1  0.74864499  0.24937311  0.19214305  1
  Se  Se254  1  0.74916654  0.23920713  0.68921128  1
  Se  Se255  1  0.74554717  0.59126255  0.19697613  1
  Se  Se256  1  0.74761943  0.58195197  0.69948792  1
  Se  Se257  1  0.75793024  0.91762574  0.18363781  1
  Se  Se258  1  0.74735758  0.91259865  0.69979749  1
