# generated using pymatgen
data_In86Cu29Se144
_symmetry_space_group_name_H-M   'P 1'
_cell_length_a   17.55708392
_cell_length_b   17.55799380
_cell_length_c   23.40445509
_cell_angle_alpha   90.00653065
_cell_angle_beta   90.00212507
_cell_angle_gamma   89.99448826
_symmetry_Int_Tables_number   1
_chemical_formula_structural   In86Cu29Se144
_chemical_formula_sum   'In86 Cu29 Se144'
_cell_volume   7214.82506641
_cell_formula_units_Z   1
loop_
 _symmetry_equiv_pos_site_id
 _symmetry_equiv_pos_as_xyz
  1  'x, y, z'
loop_
 _atom_site_type_symbol
 _atom_site_label
 _atom_site_symmetry_multiplicity
 _atom_site_fract_x
 _atom_site_fract_y
 _atom_site_fract_z
 _atom_site_occupancy
  In  In0  1  -0.03610469  0.15583699  0.13018259  1
  In  In1  1  0.00125141  0.16896934  0.62541394  1
  In  In2  1  0.00599563  0.50851653  0.12125006  1
  In  In3  1  -0.01405940  0.50439085  0.62637063  1
  In  In4  1  -0.00842945  0.82885970  0.13562650  1
  In  In5  1  0.00069098  0.83347195  0.60741813  1
  In  In6  1  0.35513189  0.15348885  0.14491852  1
  In  In7  1  0.32073944  0.18067993  0.62204699  1
  In  In8  1  0.33358413  0.49918539  0.12920958  1
  In  In9  1  0.34212493  0.48479190  0.61947786  1
  In  In10  1  0.32458010  0.84155152  0.13294697  1
  In  In11  1  0.32407597  0.84382972  0.61771716  1
  In  In12  1  0.67608019  0.17412763  0.13543191  1
  In  In13  1  0.67621780  0.17485196  0.62536949  1
  In  In14  1  0.66274791  0.49840118  0.12084373  1
  In  In15  1  0.67084990  0.49893467  0.62746581  1
  In  In16  1  0.68157114  0.83163938  0.13602365  1
  In  In17  1  0.66812646  0.81951588  0.62082704  1
  In  In18  1  0.16382091  0.00019480  0.36779645  1
  In  In19  1  0.15226840  -0.00328925  0.88495645  1
  In  In20  1  0.16099889  0.31312870  0.37975634  1
  In  In21  1  0.17415274  0.33738599  0.87765889  1
  In  In22  1  0.17940458  0.68140020  0.36853080  1
  In  In23  1  0.15749317  0.67194287  0.88845872  1
  In  In24  1  0.50011546  0.01085037  0.35654268  1
  In  In25  1  0.51650430  0.00954762  0.88942722  1
  In  In26  1  0.51720786  0.33767991  0.36107951  1
  In  In27  1  0.50770188  0.32445178  0.88951848  1
  In  In28  1  0.49770729  0.66293071  0.36542365  1
  In  In29  1  0.50287252  0.64877085  0.88390007  1
  In  In30  1  0.82097431  -0.01283267  0.35119471  1
  In  In31  1  0.81883753  0.00492625  0.90063554  1
  In  In32  1  0.83063051  0.33916858  0.36955012  1
  In  In33  1  0.83444586  0.33335910  0.87996716  1
  In  In34  1  0.85986690  0.69195900  0.33656793  1
  In  In35  1  0.82412125  0.67531013  0.88276961  1
  In  In36  1  0.01293027  0.16933377  0.37280902  1
  In  In37  1  -0.00994139  0.16370170  0.87407448  1
  In  In38  1  -0.01246249  0.49837374  0.37372586  1
  In  In39  1  0.00889928  0.49023833  0.88595868  1
  In  In40  1  -0.00107651  0.84223191  0.36546827  1
  In  In41  1  -0.00513912  0.84036651  0.88797913  1
  In  In42  1  0.32185087  0.15845170  0.35867419  1
  In  In43  1  0.33928078  0.18013412  0.88133714  1
  In  In44  1  0.34470554  0.51355123  0.36923531  1
  In  In45  1  0.33487294  0.48906700  0.89209791  1
  In  In46  1  0.32956370  0.83213903  0.36554677  1
  In  In47  1  0.32816506  0.82599552  0.88495509  1
  In  In48  1  0.67509772  0.16959096  0.34383030  1
  In  In49  1  0.65956203  0.16895356  0.88749064  1
  In  In50  1  0.66619281  0.49904403  0.36767669  1
  In  In51  1  0.66631027  0.49860781  0.88122192  1
  In  In52  1  0.68114369  0.83588590  0.35720999  1
  In  In53  1  0.68236753  0.83204590  0.88122907  1
  In  In54  1  0.17203158  -0.00916684  0.12637546  1
  In  In55  1  0.16108432  0.00444653  0.61238487  1
  In  In56  1  0.16698005  0.34512588  0.12548083  1
  In  In57  1  0.15685188  0.32257733  0.61881265  1
  In  In58  1  0.16190637  0.66695196  0.13024110  1
  In  In59  1  0.15455268  0.67500721  0.61902541  1
  In  In60  1  0.50711411  0.01213839  0.13690974  1
  In  In61  1  0.50016093  0.00032501  0.61611427  1
  In  In62  1  0.50098946  0.33060875  0.12918232  1
  In  In63  1  0.49752988  0.34451317  0.62168965  1
  In  In64  1  0.50713894  0.65336263  0.13057747  1
  In  In65  1  0.52591661  0.66215102  0.62134230  1
  In  In66  1  0.83857896  0.00131910  0.14060168  1
  In  In67  1  0.84557100  0.00072363  0.61771281  1
  In  In68  1  0.81396175  0.31797391  0.11542485  1
  In  In69  1  0.82993137  0.32847391  0.64450613  1
  In  In70  1  0.83417014  0.66897713  0.12820515  1
  In  In71  1  0.82476998  0.66223115  0.62035375  1
  In  In72  1  -0.00139748  0.33317200  0.24770236  1
  In  In73  1  0.82676391  0.49967598  0.49457246  1
  In  In74  1  0.67456078  0.00380989  0.76155302  1
  In  In75  1  0.17000120  0.16518341  0.00397514  1
  In  In76  1  0.50549137  0.83791833  0.02177170  1
  In  In77  1  0.33591262  0.65859483  0.75295116  1
  In  In78  1  0.17110305  0.50469906  0.50105873  1
  In  In79  1  0.49473132  0.82674262  0.48437884  1
  In  In80  1  -0.01129641  0.66689525  0.75042737  1
  In  In81  1  0.33554137  0.33222682  0.75409697  1
  In  In82  1  0.83964004  0.16396994  0.49454404  1
  In  In83  1  0.49509712  0.16333614  0.48383017  1
  In  In84  1  0.33399503  0.00015866  0.74092258  1
  In  In85  1  -0.00531674  0.00742861  0.75183211  1
  Cu  Cu86  1  0.16225388  0.16706405  0.24178850  1
  Cu  Cu87  1  0.67182295  -0.00822892  0.48366181  1
  Cu  Cu88  1  0.34184504  0.66780511  0.49240247  1
  Cu  Cu89  1  0.83350187  0.83913399  0.75310993  1
  Cu  Cu90  1  0.31797922  0.00428320  0.48950664  1
  Cu  Cu91  1  0.00230603  0.67855182  0.48404732  1
  Cu  Cu92  1  0.16200799  0.83892143  0.75167059  1
  Cu  Cu93  1  0.66627074  0.33546046  0.00501437  1
  Cu  Cu94  1  0.82768213  0.49794948  0.75656589  1
  Cu  Cu95  1  0.16595243  0.49712254  0.75776020  1
  Cu  Cu96  1  0.67793794  0.66193505  0.49427594  1
  Cu  Cu97  1  0.51186666  0.49831292  0.75410681  1
  Cu  Cu98  1  -0.00438995  0.33425038  0.00625988  1
  Cu  Cu99  1  0.50593607  0.16191725  0.75884679  1
  Cu  Cu100  1  0.49835728  0.83267194  0.24407892  1
  Cu  Cu101  1  0.50126977  0.49914877  0.24556179  1
  Cu  Cu102  1  0.16420652  0.83270423  0.24958723  1
  Cu  Cu103  1  0.51074998  0.82102551  0.75071308  1
  Cu  Cu104  1  0.32236182  0.66503652  0.00752405  1
  Cu  Cu105  1  0.34039506  0.00316166  0.01255062  1
  Cu  Cu106  1  -0.00417000  -0.00334947  0.48914477  1
  Cu  Cu107  1  -0.00114481  -0.00796997  0.01261220  1
  Cu  Cu108  1  -0.00483495  0.67168179  0.00692981  1
  Cu  Cu109  1  0.16851586  0.50286472  0.25103843  1
  Cu  Cu110  1  0.82654628  0.49235197  0.23952421  1
  Cu  Cu111  1  0.33453662  0.33411008  0.49361802  1
  Cu  Cu112  1  0.66516876  0.33212426  0.49310311  1
  Cu  Cu113  1  0.66609232  0.66804378  0.00661045  1
  Cu  Cu114  1  0.33844332  0.32969177  0.01198248  1
  Se  Se115  1  0.07592054  0.08244153  0.06637551  1
  Se  Se116  1  0.06838372  0.08291624  0.54954170  1
  Se  Se117  1  0.08350918  0.41853313  0.05272833  1
  Se  Se118  1  0.07260012  0.42083971  0.55707027  1
  Se  Se119  1  0.07853549  0.75256965  0.06309857  1
  Se  Se120  1  0.08938332  0.75491746  0.54038242  1
  Se  Se121  1  0.42477289  0.08674069  0.06079421  1
  Se  Se122  1  0.40115832  0.08102013  0.55273610  1
  Se  Se123  1  0.42011452  0.41950024  0.06007033  1
  Se  Se124  1  0.42284551  0.41649877  0.54258486  1
  Se  Se125  1  0.40775923  0.74216453  0.06783195  1
  Se  Se126  1  0.41708428  0.74466992  0.56238045  1
  Se  Se127  1  0.77625728  0.10206220  0.07370309  1
  Se  Se128  1  0.73984450  0.07466968  0.55216419  1
  Se  Se129  1  0.75315482  0.42267829  0.05174142  1
  Se  Se130  1  0.74873641  0.40175761  0.55814468  1
  Se  Se131  1  0.75028180  0.75143138  0.05756164  1
  Se  Se132  1  0.75566597  0.75064300  0.54772207  1
  Se  Se133  1  0.25754998  0.24684008  0.06968319  1
  Se  Se134  1  0.24655771  0.25512895  0.54525351  1
  Se  Se135  1  0.24303058  0.57907486  0.06209512  1
  Se  Se136  1  0.26343716  0.59531384  0.56179819  1
  Se  Se137  1  0.25224673  0.91448314  0.05203788  1
  Se  Se138  1  0.24076412  0.91676373  0.54503529  1
  Se  Se139  1  0.58901243  0.24968224  0.06219702  1
  Se  Se140  1  0.58375014  0.24978991  0.55247256  1
  Se  Se141  1  0.57866805  0.58092335  0.05043672  1
  Se  Se142  1  0.59686150  0.57665025  0.54876561  1
  Se  Se143  1  0.60101568  0.93111348  0.07025527  1
  Se  Se144  1  0.58799989  0.91739296  0.54730974  1
  Se  Se145  1  0.91198926  0.24483801  0.05118714  1
  Se  Se146  1  0.91113983  0.26012974  0.56155447  1
  Se  Se147  1  0.91257287  0.58440713  0.05629881  1
  Se  Se148  1  0.92586997  0.59648116  0.54771881  1
  Se  Se149  1  0.91072044  0.91401334  0.06573284  1
  Se  Se150  1  0.91097811  0.91423778  0.54317780  1
  Se  Se151  1  0.07405273  0.24830666  0.45293954  1
  Se  Se152  1  0.07785201  0.25387359  0.94427465  1
  Se  Se153  1  0.08237260  0.58810012  0.43368938  1
  Se  Se154  1  0.07895752  0.58498160  0.95425097  1
  Se  Se155  1  0.08452442  0.91537676  0.43862947  1
  Se  Se156  1  0.08508599  0.91179290  0.95906826  1
  Se  Se157  1  0.40905442  0.25701869  0.42640782  1
  Se  Se158  1  0.42129919  0.24452870  0.95834284  1
  Se  Se159  1  0.42796576  0.58383083  0.44526221  1
  Se  Se160  1  0.41035890  0.58431880  0.95484606  1
  Se  Se161  1  0.41200096  0.93248931  0.43358927  1
  Se  Se162  1  0.41734745  0.91895663  0.94780643  1
  Se  Se163  1  0.73960952  0.24737363  0.43303078  1
  Se  Se164  1  0.74939646  0.25291465  0.94992710  1
  Se  Se165  1  0.75731293  0.59223375  0.42630405  1
  Se  Se166  1  0.74760705  0.58529587  0.94932680  1
  Se  Se167  1  0.75855024  0.90979970  0.43435398  1
  Se  Se168  1  0.74429428  0.90994018  0.96096619  1
  Se  Se169  1  0.23962477  0.09247487  0.43724439  1
  Se  Se170  1  0.26185847  0.07358842  0.94231433  1
  Se  Se171  1  0.25319535  0.41665358  0.43426198  1
  Se  Se172  1  0.24877858  0.40726414  0.95765621  1
  Se  Se173  1  0.25801509  0.75495470  0.44521559  1
  Se  Se174  1  0.24257797  0.75353471  0.95589525  1
  Se  Se175  1  0.59834092  0.08183794  0.42792760  1
  Se  Se176  1  0.59403949  0.08223461  0.96287469  1
  Se  Se177  1  0.58521738  0.41816010  0.44017951  1
  Se  Se178  1  0.58120471  0.42002533  0.95248330  1
  Se  Se179  1  0.59674381  0.74320190  0.43307392  1
  Se  Se180  1  0.58224760  0.74979335  0.94687517  1
  Se  Se181  1  0.91381965  0.07144987  0.42650555  1
  Se  Se182  1  0.92740859  0.07804172  0.95123248  1
  Se  Se183  1  0.92364827  0.40185784  0.44568701  1
  Se  Se184  1  0.91367897  0.41913523  0.95133316  1
  Se  Se185  1  0.91248442  0.75259876  0.42992617  1
  Se  Se186  1  0.91129118  0.75396611  0.95116545  1
  Se  Se187  1  0.23966346  0.25356608  0.29773670  1
  Se  Se188  1  0.24255294  0.23698282  0.80698039  1
  Se  Se189  1  0.25332845  0.58807255  0.30286351  1
  Se  Se190  1  0.24418355  0.57662309  0.81868917  1
  Se  Se191  1  0.24992927  0.91965584  0.29934169  1
  Se  Se192  1  0.24674762  0.91422540  0.81073134  1
  Se  Se193  1  0.56795275  0.23714719  0.28828797  1
  Se  Se194  1  0.58313516  0.24927943  0.81210121  1
  Se  Se195  1  0.58522375  0.58319561  0.29840593  1
  Se  Se196  1  0.58913176  0.58573300  0.80811375  1
  Se  Se197  1  0.58195729  0.91519639  0.29879495  1
  Se  Se198  1  0.57751544  0.90943169  0.81418438  1
  Se  Se199  1  0.91001634  0.24089166  0.30739278  1
  Se  Se200  1  0.92375643  0.26001218  0.80979130  1
  Se  Se201  1  0.91829573  0.56884777  0.29268256  1
  Se  Se202  1  0.91067465  0.57767630  0.81770190  1
  Se  Se203  1  0.91908876  0.91449262  0.28877668  1
  Se  Se204  1  0.90667634  0.92001949  0.81615021  1
  Se  Se205  1  0.08171588  0.08471626  0.29823638  1
  Se  Se206  1  0.09482673  0.08945800  0.80932252  1
  Se  Se207  1  0.09045020  0.41993266  0.31196315  1
  Se  Se208  1  0.08403739  0.41239279  0.80932878  1
  Se  Se209  1  0.08166294  0.74773791  0.30287819  1
  Se  Se210  1  0.08081550  0.75827070  0.81078077  1
  Se  Se211  1  0.41591741  0.09183969  0.29124491  1
  Se  Se212  1  0.42080660  0.08214006  0.81364108  1
  Se  Se213  1  0.41905933  0.41957094  0.30390071  1
  Se  Se214  1  0.42591073  0.42197136  0.81469482  1
  Se  Se215  1  0.41553534  0.74977324  0.29980715  1
  Se  Se216  1  0.42300448  0.75239351  0.81336972  1
  Se  Se217  1  0.74717484  0.07432152  0.28087473  1
  Se  Se218  1  0.76264292  0.09428319  0.81931735  1
  Se  Se219  1  0.74660054  0.41273645  0.29824026  1
  Se  Se220  1  0.74639300  0.41489851  0.81115935  1
  Se  Se221  1  0.73214778  0.72884187  0.29164652  1
  Se  Se222  1  0.75099502  0.75165803  0.80360099  1
  Se  Se223  1  0.24838343  0.07819048  0.19632785  1
  Se  Se224  1  0.23624071  0.09045788  0.68931224  1
  Se  Se225  1  0.24987225  0.41649006  0.19990832  1
  Se  Se226  1  0.24398490  0.42122099  0.69102250  1
  Se  Se227  1  0.24971324  0.74820355  0.19824298  1
  Se  Se228  1  0.24355187  0.75510232  0.69378337  1
  Se  Se229  1  0.57691766  0.10758849  0.20516048  1
  Se  Se230  1  0.57874412  0.08160390  0.69199872  1
  Se  Se231  1  0.58701711  0.41599354  0.19480097  1
  Se  Se232  1  0.58571473  0.41326608  0.69368807  1
  Se  Se233  1  0.58286623  0.74940032  0.19318229  1
  Se  Se234  1  0.59649754  0.74165192  0.69839962  1
  Se  Se235  1  0.93731666  0.06336771  0.21313476  1
  Se  Se236  1  0.90007308  0.09567762  0.69389270  1
  Se  Se237  1  0.91197919  0.41526626  0.18055793  1
  Se  Se238  1  0.91648934  0.42294679  0.70117685  1
  Se  Se239  1  0.91380734  0.74197334  0.20524906  1
  Se  Se240  1  0.90996018  0.76257034  0.68638089  1
  Se  Se241  1  0.08007855  0.24197104  0.18091030  1
  Se  Se242  1  0.08196603  0.25033723  0.69450237  1
  Se  Se243  1  0.07974176  0.58243462  0.20022030  1
  Se  Se244  1  0.09048927  0.57910847  0.69442054  1
  Se  Se245  1  0.08340272  0.91621906  0.19532203  1
  Se  Se246  1  0.08189329  0.91319462  0.68764334  1
  Se  Se247  1  0.39890879  0.27261363  0.19828793  1
  Se  Se248  1  0.42657328  0.23988096  0.69245251  1
  Se  Se249  1  0.41284105  0.58519074  0.19935628  1
  Se  Se250  1  0.42791105  0.57249813  0.68979635  1
  Se  Se251  1  0.41706410  0.92206344  0.19573977  1
  Se  Se252  1  0.43137587  0.90169694  0.68903103  1
  Se  Se253  1  0.75587320  0.26000562  0.20572922  1
  Se  Se254  1  0.73583415  0.25184053  0.70572462  1
  Se  Se255  1  0.74507471  0.58138698  0.19052086  1
  Se  Se256  1  0.75330810  0.58329104  0.69623769  1
  Se  Se257  1  0.74628193  0.92451938  0.20795384  1
  Se  Se258  1  0.75391391  0.91593107  0.68773951  1
