# generated using pymatgen
data_In86Cu29Se144
_symmetry_space_group_name_H-M   'P 1'
_cell_length_a   17.69324726
_cell_length_b   17.68216301
_cell_length_c   23.55079446
_cell_angle_alpha   90.00581947
_cell_angle_beta   89.99948048
_cell_angle_gamma   90.00937261
_symmetry_Int_Tables_number   1
_chemical_formula_structural   In86Cu29Se144
_chemical_formula_sum   'In86 Cu29 Se144'
_cell_volume   7367.98088937
_cell_formula_units_Z   1
loop_
 _symmetry_equiv_pos_site_id
 _symmetry_equiv_pos_as_xyz
  1  'x, y, z'
loop_
 _atom_site_type_symbol
 _atom_site_label
 _atom_site_symmetry_multiplicity
 _atom_site_fract_x
 _atom_site_fract_y
 _atom_site_fract_z
 _atom_site_occupancy
  In  In0  1  -0.00653419  0.17354641  0.12986392  1
  In  In1  1  -0.01198919  0.16067877  0.62096662  1
  In  In2  1  -0.00704296  0.50508196  0.13701823  1
  In  In3  1  0.01407245  0.50446911  0.61673070  1
  In  In4  1  -0.00445458  0.83847752  0.13131072  1
  In  In5  1  -0.00353368  0.83771505  0.63374055  1
  In  In6  1  0.33914515  0.14476712  0.11663477  1
  In  In7  1  0.33586924  0.16362520  0.63669278  1
  In  In8  1  0.33542628  0.51079819  0.12146844  1
  In  In9  1  0.27502657  0.53395429  0.69073117  1
  In  In10  1  0.34998973  0.84183618  0.11456852  1
  In  In11  1  0.33073666  0.83457553  0.62907953  1
  In  In12  1  0.67342478  0.15555674  0.11576853  1
  In  In13  1  0.67363569  0.14895397  0.63358125  1
  In  In14  1  0.66951687  0.49399634  0.13910235  1
  In  In15  1  0.65648401  0.49522438  0.62392290  1
  In  In16  1  0.67137425  0.83703475  0.12367937  1
  In  In17  1  0.68098604  0.83797664  0.62479367  1
  In  In18  1  0.15602566  -0.00957111  0.37119210  1
  In  In19  1  0.16701201  0.00125009  0.86505326  1
  In  In20  1  0.16781398  0.34991550  0.38039512  1
  In  In21  1  0.17050236  0.32645278  0.86888896  1
  In  In22  1  0.15716496  0.68983550  0.39421581  1
  In  In23  1  0.19503704  0.72808209  0.80264111  1
  In  In24  1  0.50034633  -0.00182194  0.36340019  1
  In  In25  1  0.49455352  -0.00387024  0.88132945  1
  In  In26  1  0.50082555  0.32991746  0.36795708  1
  In  In27  1  0.49747167  0.32290993  0.87787254  1
  In  In28  1  0.50379788  0.66181836  0.36842431  1
  In  In29  1  0.50636335  0.68098177  0.87487819  1
  In  In30  1  0.83607182  -0.00287583  0.37584544  1
  In  In31  1  0.83706776  0.00178958  0.88483930  1
  In  In32  1  0.82618950  0.32114055  0.37008587  1
  In  In33  1  0.81889373  0.32724859  0.87497172  1
  In  In34  1  0.84203138  0.67976762  0.36867782  1
  In  In35  1  0.84842498  0.68622149  0.86674459  1
  In  In36  1  -0.01231286  0.15088896  0.36691648  1
  In  In37  1  -0.00076825  0.15661282  0.87685425  1
  In  In38  1  0.01281168  0.51419439  0.37378036  1
  In  In39  1  -0.00003050  0.51092674  0.86687061  1
  In  In40  1  -0.00078601  0.83449756  0.37637698  1
  In  In41  1  -0.00023911  0.83502906  0.86741235  1
  In  In42  1  0.34226629  0.16287033  0.37300899  1
  In  In43  1  0.34306888  0.16564612  0.87076396  1
  In  In44  1  0.32519936  0.50135373  0.38197835  1
  In  In45  1  0.33457886  0.50744059  0.86094559  1
  In  In46  1  0.32038804  0.83183094  0.37717739  1
  In  In47  1  0.34894082  0.84436506  0.85947484  1
  In  In48  1  0.67313729  0.17105421  0.36648215  1
  In  In49  1  0.65855494  0.15874581  0.88682769  1
  In  In50  1  0.66421535  0.49766867  0.36152490  1
  In  In51  1  0.68267304  0.49600791  0.87379824  1
  In  In52  1  0.67534699  0.84775624  0.36428869  1
  In  In53  1  0.65973736  0.85524345  0.89583374  1
  In  In54  1  0.16879966  -0.00746103  0.13240908  1
  In  In55  1  0.17247475  -0.01462999  0.63987232  1
  In  In56  1  0.16149647  0.33164270  0.12936516  1
  In  In57  1  0.17072224  0.35083770  0.62699042  1
  In  In58  1  0.16209870  0.66432180  0.12673406  1
  In  In59  1  0.15377817  0.66554404  0.62575555  1
  In  In60  1  0.50682581  -0.00185311  0.11775221  1
  In  In61  1  0.50032847  -0.00003345  0.63624072  1
  In  In62  1  0.52880146  0.32190787  0.13394669  1
  In  In63  1  0.49949302  0.33347645  0.62896702  1
  In  In64  1  0.50338217  0.68172712  0.12198298  1
  In  In65  1  0.48795715  0.64853815  0.62837689  1
  In  In66  1  0.83306326  0.00024673  0.12201971  1
  In  In67  1  0.83290486  -0.00129242  0.62773633  1
  In  In68  1  0.83735941  0.32686269  0.13244807  1
  In  In69  1  0.83295118  0.31255618  0.62145907  1
  In  In70  1  0.82914007  0.67269384  0.13092402  1
  In  In71  1  0.83735381  0.69051177  0.62530513  1
  In  In72  1  0.67114600  0.67323481  0.75048200  1
  In  In73  1  0.49575723  0.83045479  0.50470464  1
  In  In74  1  0.83760966  0.50576818  0.00013969  1
  In  In75  1  0.50337579  0.16667579  0.49487195  1
  In  In76  1  0.00045224  0.33187781  0.73818090  1
  In  In77  1  0.33278573  0.67339064  0.25120454  1
  In  In78  1  0.15538327  0.50164530  -0.01608770  1
  In  In79  1  0.49442778  0.49576360  0.49572464  1
  In  In80  1  0.17981257  0.82835793  -0.01570527  1
  In  In81  1  0.16851911  0.16176465  -0.00879839  1
  In  In82  1  0.83404144  0.49942559  0.48766610  1
  In  In83  1  0.50117669  0.49631067  0.01165902  1
  In  In84  1  0.33227272  0.33296938  0.25430494  1
  In  In85  1  0.16134963  0.16412432  0.49949123  1
  Cu  Cu86  1  0.32794117  0.66670031  -0.01430203  1
  Cu  Cu87  1  0.32853843  0.34264520  0.50825971  1
  Cu  Cu88  1  0.50567699  0.82988858  0.75166355  1
  Cu  Cu89  1  0.50596311  0.83979078  0.23950537  1
  Cu  Cu90  1  0.82608976  0.49180480  0.74405262  1
  Cu  Cu91  1  -0.00259947  0.32832724  0.50006890  1
  Cu  Cu92  1  0.00064070  0.00263705  0.00372801  1
  Cu  Cu93  1  0.16250083  0.50623513  0.25404887  1
  Cu  Cu94  1  0.16430512  0.16498596  0.24620973  1
  Cu  Cu95  1  0.67410620  0.67513900  0.00281477  1
  Cu  Cu96  1  0.66914728  0.67559760  0.49534815  1
  Cu  Cu97  1  0.49766282  0.15981671  0.24336429  1
  Cu  Cu98  1  0.82619840  0.16514318  0.75355982  1
  Cu  Cu99  1  0.50859074  0.16089027  0.75890120  1
  Cu  Cu100  1  0.67718282  -0.00116459  0.49946230  1
  Cu  Cu101  1  0.83610999  0.83338245  0.24899123  1
  Cu  Cu102  1  0.67052505  0.33004140  0.00128201  1
  Cu  Cu103  1  0.17447318  0.16543615  0.74845009  1
  Cu  Cu104  1  0.50582360  0.48982449  0.75279919  1
  Cu  Cu105  1  0.33335386  0.33242253  0.00101493  1
  Cu  Cu106  1  0.00065857  0.67934062  -0.00667410  1
  Cu  Cu107  1  0.32888437  -0.00347504  0.50611816  1
  Cu  Cu108  1  0.16664971  0.83116499  0.25486785  1
  Cu  Cu109  1  -0.00811468  0.33735718  0.00675785  1
  Cu  Cu110  1  0.83656965  0.49263300  0.25626470  1
  Cu  Cu111  1  0.00029286  -0.01055573  0.50008890  1
  Cu  Cu112  1  0.82928215  0.15917264  0.24620528  1
  Cu  Cu113  1  -0.00256901  0.67232732  0.50153935  1
  Cu  Cu114  1  0.67362170  0.32233468  0.49730954  1
  Se  Se115  1  0.08394785  0.08109257  0.06220526  1
  Se  Se116  1  0.08038523  0.07053027  0.56099255  1
  Se  Se117  1  0.07656721  0.41895524  0.05992726  1
  Se  Se118  1  0.08321179  0.41015458  0.54983494  1
  Se  Se119  1  0.08610090  0.75226954  0.05508770  1
  Se  Se120  1  0.07474359  0.75402868  0.56057925  1
  Se  Se121  1  0.43269576  0.08651294  0.04547245  1
  Se  Se122  1  0.41379607  0.07861295  0.55943284  1
  Se  Se123  1  0.41162582  0.40249346  0.06830634  1
  Se  Se124  1  0.41114147  0.41946523  0.56642738  1
  Se  Se125  1  0.40805394  0.73846588  0.04938363  1
  Se  Se126  1  0.40729797  0.73759940  0.56121555  1
  Se  Se127  1  0.74011142  0.06008748  0.04738000  1
  Se  Se128  1  0.75387319  0.08380852  0.55539673  1
  Se  Se129  1  0.74799071  0.41479459  0.06006811  1
  Se  Se130  1  0.74692917  0.41187730  0.55483110  1
  Se  Se131  1  0.75950195  0.75412541  0.05614981  1
  Se  Se132  1  0.75128270  0.75542684  0.54999198  1
  Se  Se133  1  0.25067971  0.25297993  0.05958474  1
  Se  Se134  1  0.25590171  0.24830935  0.56133923  1
  Se  Se135  1  0.24897419  0.58907059  0.04921437  1
  Se  Se136  1  0.25424971  0.57143053  0.58581851  1
  Se  Se137  1  0.25256195  0.92298815  0.05343611  1
  Se  Se138  1  0.24757150  0.91533231  0.55995479  1
  Se  Se139  1  0.58736657  0.24620612  0.05230906  1
  Se  Se140  1  0.59092102  0.24957927  0.56016090  1
  Se  Se141  1  0.59917304  0.58825175  0.06191713  1
  Se  Se142  1  0.58917647  0.59198412  0.55226807  1
  Se  Se143  1  0.56481732  0.88868498  0.05856611  1
  Se  Se144  1  0.58666366  0.92717361  0.55785123  1
  Se  Se145  1  0.91274863  0.24984960  0.05645531  1
  Se  Se146  1  0.91417330  0.24213803  0.54671072  1
  Se  Se147  1  0.93042537  0.59533007  0.05762911  1
  Se  Se148  1  0.91386108  0.58823543  0.55655383  1
  Se  Se149  1  0.92203923  0.91645453  0.05677521  1
  Se  Se150  1  0.91519243  0.91541694  0.55927145  1
  Se  Se151  1  0.07638186  0.25146676  0.43495630  1
  Se  Se152  1  0.07493800  0.26269682  0.94336616  1
  Se  Se153  1  0.08425830  0.58738852  0.45304665  1
  Se  Se154  1  0.07943803  0.60398773  0.93018897  1
  Se  Se155  1  0.08717565  0.91064956  0.44750126  1
  Se  Se156  1  0.08110087  0.92684916  0.94148239  1
  Se  Se157  1  0.40616005  0.26420303  0.44441105  1
  Se  Se158  1  0.41228276  0.24764485  0.94778346  1
  Se  Se159  1  0.40958767  0.59747619  0.44229299  1
  Se  Se160  1  0.41824415  0.58103291  0.93960767  1
  Se  Se161  1  0.41367939  0.92636621  0.44205946  1
  Se  Se162  1  0.40989796  0.90709398  0.94426642  1
  Se  Se163  1  0.75377460  0.23866305  0.44445202  1
  Se  Se164  1  0.75133860  0.24496511  0.94932668  1
  Se  Se165  1  0.74064857  0.59100008  0.43367990  1
  Se  Se166  1  0.75155264  0.59802369  0.93900221  1
  Se  Se167  1  0.75315765  0.91227585  0.44451208  1
  Se  Se168  1  0.74266310  0.94143223  0.95954820  1
  Se  Se169  1  0.25631267  0.07694928  0.44072803  1
  Se  Se170  1  0.26011087  0.07092020  0.93753438  1
  Se  Se171  1  0.24578607  0.42500767  0.45498697  1
  Se  Se172  1  0.25959078  0.41169059  0.93815296  1
  Se  Se173  1  0.26032196  0.75172184  0.45507841  1
  Se  Se174  1  0.25397213  0.73612002  0.91802232  1
  Se  Se175  1  0.59138609  0.07272457  0.43799380  1
  Se  Se176  1  0.55407325  0.09593494  0.95059862  1
  Se  Se177  1  0.59249529  0.40561982  0.43984665  1
  Se  Se178  1  0.59258317  0.41634045  0.94427938  1
  Se  Se179  1  0.58598657  0.75257024  0.43628613  1
  Se  Se180  1  0.58393607  0.75121453  0.95113761  1
  Se  Se181  1  0.92051054  0.07631295  0.44715043  1
  Se  Se182  1  0.91957881  0.08999048  0.95309372  1
  Se  Se183  1  0.92564269  0.40790279  0.43305597  1
  Se  Se184  1  0.92198600  0.41358059  0.93697291  1
  Se  Se185  1  0.91522582  0.75305779  0.44628423  1
  Se  Se186  1  0.91654737  0.76431498  0.94476121  1
  Se  Se187  1  0.23936337  0.24317362  0.31288774  1
  Se  Se188  1  0.25589744  0.24684073  0.80350078  1
  Se  Se189  1  0.24242750  0.58691805  0.31302153  1
  Se  Se190  1  0.23578476  0.57739349  0.79863026  1
  Se  Se191  1  0.25053242  0.91679263  0.30478234  1
  Se  Se192  1  0.22665355  0.89008501  0.80697268  1
  Se  Se193  1  0.57719342  0.24327978  0.30114534  1
  Se  Se194  1  0.58799108  0.24687080  0.81249144  1
  Se  Se195  1  0.58569638  0.58740886  0.29937762  1
  Se  Se196  1  0.58377669  0.57659190  0.81143659  1
  Se  Se197  1  0.58747905  0.92287127  0.29554373  1
  Se  Se198  1  0.57909816  0.91136060  0.81317910  1
  Se  Se199  1  0.91207046  0.24241595  0.30141564  1
  Se  Se200  1  0.91471133  0.24767457  0.80722356  1
  Se  Se201  1  0.91609134  0.58111930  0.30774573  1
  Se  Se202  1  0.89826840  0.57522546  0.80416601  1
  Se  Se203  1  0.91809943  0.91517526  0.30585778  1
  Se  Se204  1  0.92833918  0.93860263  0.81210839  1
  Se  Se205  1  0.08468696  0.08090217  0.30232213  1
  Se  Se206  1  0.08553207  0.09140777  0.80271495  1
  Se  Se207  1  0.08372777  0.41846138  0.30633946  1
  Se  Se208  1  0.08672767  0.41767762  0.80383678  1
  Se  Se209  1  0.08554671  0.74875015  0.30963914  1
  Se  Se210  1  0.04933634  0.72449643  0.80509257  1
  Se  Se211  1  0.41294993  0.08162380  0.29917734  1
  Se  Se212  1  0.41877264  0.07580244  0.80412997  1
  Se  Se213  1  0.41821636  0.43045324  0.30994499  1
  Se  Se214  1  0.42131396  0.41148222  0.80874238  1
  Se  Se215  1  0.42588743  0.76666761  0.30735682  1
  Se  Se216  1  0.42030446  0.74199081  0.79827882  1
  Se  Se217  1  0.75167789  0.07766008  0.30526648  1
  Se  Se218  1  0.75249716  0.08797872  0.81827027  1
  Se  Se219  1  0.74855605  0.40755684  0.30161530  1
  Se  Se220  1  0.74767523  0.40908497  0.79970268  1
  Se  Se221  1  0.74985312  0.75156777  0.30136718  1
  Se  Se222  1  0.74344855  0.76758221  0.81585737  1
  Se  Se223  1  0.25033692  0.08583891  0.19296623  1
  Se  Se224  1  0.25715801  0.07502498  0.70167388  1
  Se  Se225  1  0.24503316  0.42995194  0.19249284  1
  Se  Se226  1  0.26722744  0.38768075  0.70213681  1
  Se  Se227  1  0.24723693  0.76168494  0.18578379  1
  Se  Se228  1  0.24154845  0.75176661  0.69383588  1
  Se  Se229  1  0.58409403  0.08345388  0.18815426  1
  Se  Se230  1  0.58772339  0.07531563  0.70399660  1
  Se  Se231  1  0.57284129  0.42442105  0.20221101  1
  Se  Se232  1  0.58853731  0.41104461  0.69730420  1
  Se  Se233  1  0.58914082  0.75085473  0.19405111  1
  Se  Se234  1  0.57670118  0.75173324  0.68377604  1
  Se  Se235  1  0.91614874  0.08065125  0.19238117  1
  Se  Se236  1  0.91138230  0.08823039  0.69699691  1
  Se  Se237  1  0.91890021  0.41118148  0.19996028  1
  Se  Se238  1  0.90780069  0.42144960  0.67911810  1
  Se  Se239  1  0.92027802  0.74775589  0.19789731  1
  Se  Se240  1  0.91505293  0.75270855  0.70303100  1
  Se  Se241  1  0.08136378  0.25226319  0.19830493  1
  Se  Se242  1  0.09327231  0.23842056  0.68288294  1
  Se  Se243  1  0.08140914  0.58969560  0.19914596  1
  Se  Se244  1  0.07377552  0.58141189  0.69619665  1
  Se  Se245  1  0.08391206  0.91410557  0.19994710  1
  Se  Se246  1  0.06509513  0.93297236  0.70144312  1
  Se  Se247  1  0.41553584  0.24424257  0.18729261  1
  Se  Se248  1  0.42971224  0.24122264  0.69809857  1
  Se  Se249  1  0.42358840  0.58502941  0.19088022  1
  Se  Se250  1  0.41999249  0.57749265  0.70828891  1
  Se  Se251  1  0.41793994  0.92188805  0.19054537  1
  Se  Se252  1  0.41778695  0.91065241  0.69824837  1
  Se  Se253  1  0.74684444  0.24058204  0.19018869  1
  Se  Se254  1  0.74766376  0.24765734  0.69620346  1
  Se  Se255  1  0.76014763  0.57763473  0.19819047  1
  Se  Se256  1  0.75284693  0.58052252  0.68398872  1
  Se  Se257  1  0.75507923  0.91632296  0.19390548  1
  Se  Se258  1  0.74023994  0.92781938  0.69618736  1
