# generated using pymatgen
data_In86Cu29Se144
_symmetry_space_group_name_H-M   'P 1'
_cell_length_a   17.57742948
_cell_length_b   17.58161744
_cell_length_c   23.43783337
_cell_angle_alpha   90.00804645
_cell_angle_beta   90.00960838
_cell_angle_gamma   90.01582466
_symmetry_Int_Tables_number   1
_chemical_formula_structural   In86Cu29Se144
_chemical_formula_sum   'In86 Cu29 Se144'
_cell_volume   7243.21915522
_cell_formula_units_Z   1
loop_
 _symmetry_equiv_pos_site_id
 _symmetry_equiv_pos_as_xyz
  1  'x, y, z'
loop_
 _atom_site_type_symbol
 _atom_site_label
 _atom_site_symmetry_multiplicity
 _atom_site_fract_x
 _atom_site_fract_y
 _atom_site_fract_z
 _atom_site_occupancy
  In  In0  1  -0.00481120  0.17370068  0.12803254  1
  In  In1  1  0.02418269  0.15692999  0.65178323  1
  In  In2  1  0.00451772  0.48509912  0.12348005  1
  In  In3  1  -0.00103563  0.49706968  0.62162190  1
  In  In4  1  0.01116111  0.84461985  0.11585709  1
  In  In5  1  0.01660953  0.82747907  0.62531042  1
  In  In6  1  0.32862869  0.15282672  0.12163177  1
  In  In7  1  0.33635668  0.15923011  0.63759222  1
  In  In8  1  0.33060523  0.51136085  0.12292411  1
  In  In9  1  0.32158452  0.50610110  0.63432844  1
  In  In10  1  0.33354531  0.83316812  0.12654871  1
  In  In11  1  0.32128429  0.84683475  0.63054138  1
  In  In12  1  0.67411491  0.16982676  0.11856892  1
  In  In13  1  0.65207961  0.16709666  0.62388667  1
  In  In14  1  0.65997936  0.50270976  0.13522199  1
  In  In15  1  0.67777535  0.50380407  0.62227941  1
  In  In16  1  0.66870945  0.81881645  0.12226025  1
  In  In17  1  0.66892870  0.83376574  0.63372179  1
  In  In18  1  0.16278550  -0.00449853  0.37118979  1
  In  In19  1  0.15676024  -0.00360703  0.86536685  1
  In  In20  1  0.16536933  0.34514938  0.37821561  1
  In  In21  1  0.18719963  0.33905788  0.84662944  1
  In  In22  1  0.17459672  0.65843287  0.38016916  1
  In  In23  1  0.18518702  0.65896408  0.89486103  1
  In  In24  1  0.49322756  0.01431561  0.38008026  1
  In  In25  1  0.51213810  0.00437436  0.87137514  1
  In  In26  1  0.49847564  0.31947503  0.37691628  1
  In  In27  1  0.48634841  0.33543138  0.87273600  1
  In  In28  1  0.50377981  0.67186846  0.36835437  1
  In  In29  1  0.49777388  0.66731436  0.86648619  1
  In  In30  1  0.83931460  -0.01052781  0.37147839  1
  In  In31  1  0.83563720  0.00217957  0.87644123  1
  In  In32  1  0.84400124  0.34565862  0.36964061  1
  In  In33  1  0.83211438  0.32041893  0.87870121  1
  In  In34  1  0.82043345  0.65731738  0.37282089  1
  In  In35  1  0.83014750  0.67958167  0.88053903  1
  In  In36  1  -0.00208864  0.16496156  0.36581130  1
  In  In37  1  0.00017926  0.16144250  0.86577120  1
  In  In38  1  0.00749636  0.49083417  0.38296821  1
  In  In39  1  0.03080200  0.50453445  0.86438545  1
  In  In40  1  0.00152955  0.84489918  0.37120621  1
  In  In41  1  -0.00258432  0.84057103  0.88068489  1
  In  In42  1  0.34461449  0.16658158  0.38025021  1
  In  In43  1  0.33805083  0.17074646  0.86637194  1
  In  In44  1  0.31680067  0.49926014  0.38092231  1
  In  In45  1  0.32448664  0.50078556  0.86346506  1
  In  In46  1  0.32964530  0.82874034  0.37136836  1
  In  In47  1  0.32169058  0.82416753  0.87059754  1
  In  In48  1  0.64937736  0.16497249  0.37678844  1
  In  In49  1  0.67957796  0.15995301  0.88557826  1
  In  In50  1  0.68093580  0.51207953  0.37079563  1
  In  In51  1  0.65592911  0.50410498  0.87293089  1
  In  In52  1  0.67446710  0.82478055  0.37124405  1
  In  In53  1  0.66872815  0.83589492  0.87206535  1
  In  In54  1  0.17509727  -0.00816297  0.13012812  1
  In  In55  1  0.18182936  -0.01039476  0.64231639  1
  In  In56  1  0.15449153  0.32902590  0.12287181  1
  In  In57  1  0.16539842  0.34296332  0.63673084  1
  In  In58  1  0.18171118  0.67625920  0.10842684  1
  In  In59  1  0.17078731  0.67365841  0.62005712  1
  In  In60  1  0.48447345  -0.00280634  0.12367023  1
  In  In61  1  0.48681471  0.01378831  0.63559817  1
  In  In62  1  0.50954076  0.33826016  0.12582812  1
  In  In63  1  0.49301283  0.31707921  0.62158444  1
  In  In64  1  0.50085082  0.66764034  0.13141445  1
  In  In65  1  0.49889069  0.66698718  0.63119764  1
  In  In66  1  0.84288211  0.00651034  0.11797741  1
  In  In67  1  0.83802725  -0.00174200  0.63326036  1
  In  In68  1  0.84060082  0.32346865  0.12820118  1
  In  In69  1  0.83800067  0.34172985  0.62187913  1
  In  In70  1  0.81638813  0.66921626  0.11873932  1
  In  In71  1  0.83267101  0.65720559  0.62386629  1
  In  In72  1  0.49973077  0.83434888  0.49496778  1
  In  In73  1  0.83384805  0.17788333  0.50176163  1
  In  In74  1  0.16088871  0.16497856  -0.01053392  1
  In  In75  1  0.49962636  0.83099311  0.00092893  1
  In  In76  1  0.83711736  0.82696757  0.49407793  1
  In  In77  1  0.49917724  0.49694391  0.50618970  1
  In  In78  1  0.00119859  0.66490141  0.24207008  1
  In  In79  1  0.49610518  0.50106052  0.00266772  1
  In  In80  1  0.33133306  0.33172819  0.25809635  1
  In  In81  1  -0.00006302  0.67106886  0.75192543  1
  In  In82  1  0.66455231  0.33519174  0.74564238  1
  In  In83  1  0.83736565  0.49740892  -0.00103825  1
  In  In84  1  0.17111586  0.16737953  0.50808933  1
  In  In85  1  0.66557383  -0.00143789  0.25338518  1
  Cu  Cu86  1  0.65680520  0.00245677  0.50531656  1
  Cu  Cu87  1  0.66647139  0.32727318  0.00672831  1
  Cu  Cu88  1  0.00683725  -0.00055472  0.49964981  1
  Cu  Cu89  1  0.00281989  0.33204159  0.50659913  1
  Cu  Cu90  1  0.83631820  0.83251690  0.24847125  1
  Cu  Cu91  1  0.83176408  0.83782839  0.75766305  1
  Cu  Cu92  1  0.82919615  0.16203427  0.75401712  1
  Cu  Cu93  1  0.49699569  0.16554069  0.25087602  1
  Cu  Cu94  1  0.50217876  0.50191604  0.25152858  1
  Cu  Cu95  1  0.16416350  0.49953923  0.25349834  1
  Cu  Cu96  1  0.16305012  0.16084177  0.24691467  1
  Cu  Cu97  1  0.49475834  0.83222020  0.24844633  1
  Cu  Cu98  1  0.83030838  0.17054957  0.24467815  1
  Cu  Cu99  1  0.00078291  0.00451891  -0.00438669  1
  Cu  Cu100  1  -0.00006338  0.67010183  -0.00261330  1
  Cu  Cu101  1  0.33529073  -0.00323589  0.00005254  1
  Cu  Cu102  1  0.49612680  0.50346836  0.74754430  1
  Cu  Cu103  1  0.00603262  0.66220122  0.50069076  1
  Cu  Cu104  1  0.83103281  0.50788134  0.74888703  1
  Cu  Cu105  1  0.32804679  0.33165175  -0.01281786  1
  Cu  Cu106  1  0.66610075  0.33876539  0.50095385  1
  Cu  Cu107  1  0.49709732  0.83466106  0.75100799  1
  Cu  Cu108  1  0.16547612  0.82993502  0.75283443  1
  Cu  Cu109  1  0.83424375  0.49725213  0.24576964  1
  Cu  Cu110  1  0.33279045  0.66835680  0.50123356  1
  Cu  Cu111  1  0.00287810  0.33138394  -0.00463363  1
  Cu  Cu112  1  0.66936650  0.00091022  -0.00429206  1
  Cu  Cu113  1  0.50559429  0.16277884  0.75280584  1
  Cu  Cu114  1  0.16904552  0.83037267  0.24548428  1
  Se  Se115  1  0.08120883  0.08029743  0.06101607  1
  Se  Se116  1  0.08002198  0.07594605  0.56599883  1
  Se  Se117  1  0.08704395  0.41431589  0.04784936  1
  Se  Se118  1  0.08850320  0.41584924  0.55687784  1
  Se  Se119  1  0.08583511  0.75450236  0.04817220  1
  Se  Se120  1  0.08777388  0.75251432  0.54760951  1
  Se  Se121  1  0.41778449  0.08464831  0.04925925  1
  Se  Se122  1  0.41316758  0.08753149  0.56000197  1
  Se  Se123  1  0.40452137  0.40468320  0.05741583  1
  Se  Se124  1  0.40587818  0.41319652  0.56460301  1
  Se  Se125  1  0.41023315  0.73719278  0.05709820  1
  Se  Se126  1  0.41096905  0.75015718  0.56085579  1
  Se  Se127  1  0.75301412  0.08368095  0.05123123  1
  Se  Se128  1  0.74838455  0.07819403  0.55955047  1
  Se  Se129  1  0.74385768  0.41466816  0.06339466  1
  Se  Se130  1  0.75354000  0.41866675  0.55138857  1
  Se  Se131  1  0.75101583  0.75545458  0.04553258  1
  Se  Se132  1  0.74490518  0.74727892  0.55791153  1
  Se  Se133  1  0.25307616  0.25297409  0.05421070  1
  Se  Se134  1  0.25504499  0.25585295  0.57095539  1
  Se  Se135  1  0.24412633  0.57055823  0.04748147  1
  Se  Se136  1  0.25132242  0.58324561  0.55460418  1
  Se  Se137  1  0.25289782  0.91552818  0.05521975  1
  Se  Se138  1  0.24521126  0.92512905  0.55710736  1
  Se  Se139  1  0.57677057  0.24638536  0.05577920  1
  Se  Se140  1  0.58325170  0.25073501  0.54885511  1
  Se  Se141  1  0.59096210  0.59049205  0.05817606  1
  Se  Se142  1  0.58982016  0.59422490  0.55754129  1
  Se  Se143  1  0.59042298  0.92428255  0.06077690  1
  Se  Se144  1  0.58170113  0.92024886  0.56511502  1
  Se  Se145  1  0.92005301  0.25107437  0.05130321  1
  Se  Se146  1  0.93279130  0.24474532  0.56865605  1
  Se  Se147  1  0.92503267  0.58910206  0.06179063  1
  Se  Se148  1  0.91830770  0.58358017  0.55319596  1
  Se  Se149  1  0.91815537  0.91851862  0.04896964  1
  Se  Se150  1  0.92310180  0.91893838  0.55785487  1
  Se  Se151  1  0.07509355  0.24921804  0.44281348  1
  Se  Se152  1  0.08349177  0.26157145  0.92818959  1
  Se  Se153  1  0.08989343  0.57722083  0.44810508  1
  Se  Se154  1  0.08258189  0.58058184  0.95044761  1
  Se  Se155  1  0.08570275  0.91392888  0.44571827  1
  Se  Se156  1  0.08800815  0.92158705  0.94599486  1
  Se  Se157  1  0.40783509  0.25992767  0.44964291  1
  Se  Se158  1  0.41623015  0.24566929  0.94328240  1
  Se  Se159  1  0.41502887  0.59079661  0.44088036  1
  Se  Se160  1  0.41046624  0.58500877  0.93679117  1
  Se  Se161  1  0.40510205  0.92491322  0.44247709  1
  Se  Se162  1  0.41509431  0.91973789  0.93663033  1
  Se  Se163  1  0.74299522  0.25856439  0.43628633  1
  Se  Se164  1  0.75480059  0.24820096  0.95528976  1
  Se  Se165  1  0.75579334  0.57929991  0.45114231  1
  Se  Se166  1  0.74147302  0.58594905  0.94337976  1
  Se  Se167  1  0.73894132  0.92614193  0.44359850  1
  Se  Se168  1  0.75065070  0.91632968  0.94278806  1
  Se  Se169  1  0.25154618  0.07835011  0.44116441  1
  Se  Se170  1  0.25706522  0.07472938  0.93626305  1
  Se  Se171  1  0.25421959  0.40697327  0.45096372  1
  Se  Se172  1  0.24620504  0.41198476  0.93233723  1
  Se  Se173  1  0.25052498  0.75133725  0.44577633  1
  Se  Se174  1  0.25295706  0.76078914  0.95488588  1
  Se  Se175  1  0.57613978  0.08855780  0.45347334  1
  Se  Se176  1  0.58168295  0.08546692  0.94847531  1
  Se  Se177  1  0.58768850  0.41631324  0.43698350  1
  Se  Se178  1  0.58853746  0.40615609  0.94393147  1
  Se  Se179  1  0.59593941  0.74058281  0.44412805  1
  Se  Se180  1  0.58712045  0.74149978  0.93977944  1
  Se  Se181  1  0.92075630  0.07729663  0.44353712  1
  Se  Se182  1  0.91963149  0.08991014  0.94266307  1
  Se  Se183  1  0.91815303  0.41319570  0.45109166  1
  Se  Se184  1  0.92733195  0.41610314  0.93340777  1
  Se  Se185  1  0.92822109  0.73738925  0.43366455  1
  Se  Se186  1  0.91538068  0.75566418  0.94945497  1
  Se  Se187  1  0.23827393  0.23927570  0.31363181  1
  Se  Se188  1  0.24298765  0.22508405  0.79145900  1
  Se  Se189  1  0.25093626  0.58209248  0.30343362  1
  Se  Se190  1  0.23468273  0.58931548  0.80617059  1
  Se  Se191  1  0.24868115  0.91422163  0.30290149  1
  Se  Se192  1  0.25068504  0.91725854  0.80220495  1
  Se  Se193  1  0.58206771  0.24922871  0.30108984  1
  Se  Se194  1  0.58422741  0.24651904  0.81337069  1
  Se  Se195  1  0.58761988  0.58588127  0.30358011  1
  Se  Se196  1  0.58345637  0.58442213  0.79892207  1
  Se  Se197  1  0.57267149  0.91026103  0.31378841  1
  Se  Se198  1  0.58591682  0.91570934  0.80175023  1
  Se  Se199  1  0.91434340  0.25118570  0.30186577  1
  Se  Se200  1  0.91125102  0.24962822  0.80323097  1
  Se  Se201  1  0.91704995  0.57548503  0.30742909  1
  Se  Se202  1  0.91180146  0.57947786  0.81514433  1
  Se  Se203  1  0.92025883  0.91896263  0.29635950  1
  Se  Se204  1  0.91968499  0.91968092  0.80670912  1
  Se  Se205  1  0.07947791  0.07730980  0.30160072  1
  Se  Se206  1  0.08894567  0.08927226  0.79664789  1
  Se  Se207  1  0.08025219  0.41482655  0.30384689  1
  Se  Se208  1  0.07253395  0.40140935  0.79372033  1
  Se  Se209  1  0.08870379  0.75095282  0.30758257  1
  Se  Se210  1  0.08897948  0.75219136  0.81749030  1
  Se  Se211  1  0.41248625  0.08323148  0.30291769  1
  Se  Se212  1  0.42020353  0.07878144  0.80376177  1
  Se  Se213  1  0.42216451  0.42570061  0.31473294  1
  Se  Se214  1  0.41478800  0.41727576  0.79955112  1
  Se  Se215  1  0.41292401  0.74683401  0.30198980  1
  Se  Se216  1  0.41193235  0.75005002  0.80164713  1
  Se  Se217  1  0.75687450  0.09216755  0.31224201  1
  Se  Se218  1  0.74549079  0.08017052  0.80705555  1
  Se  Se219  1  0.75013535  0.41714635  0.30230172  1
  Se  Se220  1  0.75487450  0.42211646  0.81008380  1
  Se  Se221  1  0.75354583  0.74686877  0.29891766  1
  Se  Se222  1  0.74916928  0.74737255  0.80358585  1
  Se  Se223  1  0.25285071  0.08053913  0.19853057  1
  Se  Se224  1  0.22821505  0.10498044  0.70251214  1
  Se  Se225  1  0.24479663  0.41753146  0.19167480  1
  Se  Se226  1  0.25526096  0.41570478  0.70631678  1
  Se  Se227  1  0.25017244  0.74480473  0.19236867  1
  Se  Se228  1  0.24848806  0.75051417  0.69544399  1
  Se  Se229  1  0.57731962  0.08519147  0.18948999  1
  Se  Se230  1  0.58980934  0.08062439  0.69969762  1
  Se  Se231  1  0.58366800  0.41295967  0.20278576  1
  Se  Se232  1  0.57423813  0.42347383  0.68399496  1
  Se  Se233  1  0.58447259  0.75188998  0.19843524  1
  Se  Se234  1  0.58218260  0.75080679  0.69845202  1
  Se  Se235  1  0.91486996  0.08493278  0.19509399  1
  Se  Se236  1  0.91791222  0.07997617  0.70333732  1
  Se  Se237  1  0.91936795  0.41298246  0.19533569  1
  Se  Se238  1  0.91173081  0.42475648  0.69493594  1
  Se  Se239  1  0.91283812  0.75622546  0.18235980  1
  Se  Se240  1  0.90787507  0.75994831  0.69015225  1
  Se  Se241  1  0.08212035  0.25071440  0.19860256  1
  Se  Se242  1  0.06124048  0.28096250  0.70215604  1
  Se  Se243  1  0.09514300  0.57815221  0.18429861  1
  Se  Se244  1  0.08657978  0.58386767  0.68927298  1
  Se  Se245  1  0.08282942  0.91573407  0.19674345  1
  Se  Se246  1  0.07989061  0.91381705  0.70080654  1
  Se  Se247  1  0.41632302  0.24588825  0.18951128  1
  Se  Se248  1  0.42104874  0.24832979  0.70252278  1
  Se  Se249  1  0.41729012  0.58035088  0.19599985  1
  Se  Se250  1  0.41123302  0.58930442  0.69821583  1
  Se  Se251  1  0.41151269  0.91768480  0.19833164  1
  Se  Se252  1  0.41232086  0.91925461  0.69977433  1
  Se  Se253  1  0.74379162  0.25253517  0.19447364  1
  Se  Se254  1  0.75660793  0.24262623  0.68773646  1
  Se  Se255  1  0.75208190  0.58570089  0.19649327  1
  Se  Se256  1  0.74527450  0.58901491  0.69819927  1
  Se  Se257  1  0.75395151  0.91369826  0.18864359  1
  Se  Se258  1  0.75026435  0.91984668  0.70010070  1
