# generated using pymatgen
data_In86Cu29Se144
_symmetry_space_group_name_H-M   'P 1'
_cell_length_a   17.68818923
_cell_length_b   17.68530632
_cell_length_c   23.53556485
_cell_angle_alpha   90.00953127
_cell_angle_beta   89.98578217
_cell_angle_gamma   90.01586059
_symmetry_Int_Tables_number   1
_chemical_formula_structural   In86Cu29Se144
_chemical_formula_sum   'In86 Cu29 Se144'
_cell_volume   7362.41937341
_cell_formula_units_Z   1
loop_
 _symmetry_equiv_pos_site_id
 _symmetry_equiv_pos_as_xyz
  1  'x, y, z'
loop_
 _atom_site_type_symbol
 _atom_site_label
 _atom_site_symmetry_multiplicity
 _atom_site_fract_x
 _atom_site_fract_y
 _atom_site_fract_z
 _atom_site_occupancy
  In  In0  1  0.00017111  0.15726642  0.12605553  1
  In  In1  1  0.00591555  0.16420705  0.61570402  1
  In  In2  1  -0.00400965  0.49706176  0.11321529  1
  In  In3  1  -0.00510257  0.51292068  0.65861619  1
  In  In4  1  0.00642895  0.84101161  0.12166826  1
  In  In5  1  -0.01179135  0.81716659  0.60227384  1
  In  In6  1  0.32968065  0.18142896  0.12183403  1
  In  In7  1  0.31824075  0.17410023  0.63073603  1
  In  In8  1  0.33177588  0.49821853  0.11484902  1
  In  In9  1  0.33338520  0.49257083  0.63663271  1
  In  In10  1  0.32650966  0.84247147  0.12243439  1
  In  In11  1  0.33315227  0.83074921  0.62682701  1
  In  In12  1  0.67571024  0.18024532  0.12269551  1
  In  In13  1  0.68271914  0.16192388  0.64429048  1
  In  In14  1  0.66875030  0.50484154  0.11338067  1
  In  In15  1  0.66246973  0.49474106  0.62628447  1
  In  In16  1  0.66808502  0.82416966  0.12302945  1
  In  In17  1  0.67504593  0.83563735  0.61827248  1
  In  In18  1  0.15708500  0.00308115  0.38991923  1
  In  In19  1  0.16711251  -0.01124324  0.87967052  1
  In  In20  1  0.16375253  0.32760421  0.37624058  1
  In  In21  1  0.16458281  0.33049706  0.87740520  1
  In  In22  1  0.17306976  0.66765264  0.37703967  1
  In  In23  1  0.16659117  0.66990235  0.87391221  1
  In  In24  1  0.48959309  -0.00240413  0.38049320  1
  In  In25  1  0.50880271  0.00874765  0.86540919  1
  In  In26  1  0.49252421  0.34562183  0.37797130  1
  In  In27  1  0.51129087  0.34366918  0.86938550  1
  In  In28  1  0.50648466  0.65713108  0.38752624  1
  In  In29  1  0.49115237  0.66363920  0.87353810  1
  In  In30  1  0.84777748  -0.00949092  0.39151085  1
  In  In31  1  0.82716079  0.00529341  0.87215198  1
  In  In32  1  0.83340273  0.33199800  0.38631256  1
  In  In33  1  0.88595861  0.36811168  0.82249842  1
  In  In34  1  0.84092454  0.66306735  0.38475413  1
  In  In35  1  0.85361703  0.65382506  0.87188189  1
  In  In36  1  0.01336616  0.15157015  0.39794224  1
  In  In37  1  0.00416100  0.19006558  0.86073754  1
  In  In38  1  -0.00422448  0.49132925  0.37572639  1
  In  In39  1  0.00555426  0.50650417  0.87364168  1
  In  In40  1  -0.01239789  0.84396795  0.39235593  1
  In  In41  1  0.00625073  0.82409748  0.87625736  1
  In  In42  1  0.31785464  0.16999452  0.37778963  1
  In  In43  1  0.32520914  0.15775504  0.86752237  1
  In  In44  1  0.33961247  0.49689462  0.37533009  1
  In  In45  1  0.33115365  0.50275827  0.87500736  1
  In  In46  1  0.32786765  0.83572664  0.38825138  1
  In  In47  1  0.32630993  0.82416927  0.86575708  1
  In  In48  1  0.67559769  0.17794953  0.37935254  1
  In  In49  1  0.71216944  0.19778468  0.83939812  1
  In  In50  1  0.66487810  0.49299188  0.38368251  1
  In  In51  1  0.68921497  0.48046840  0.87287227  1
  In  In52  1  0.67278635  0.82649361  0.39021967  1
  In  In53  1  0.67543146  0.84745586  0.86832506  1
  In  In54  1  0.15922961  -0.00818785  0.11559727  1
  In  In55  1  0.16304772  0.00487880  0.61647369  1
  In  In56  1  0.16904262  0.34277413  0.10878998  1
  In  In57  1  0.16149265  0.32991274  0.63367200  1
  In  In58  1  0.16546227  0.66580366  0.11388059  1
  In  In59  1  0.15627219  0.66872442  0.64861038  1
  In  In60  1  0.49127691  -0.00626642  0.12439236  1
  In  In61  1  0.50878984  -0.00441579  0.62846797  1
  In  In62  1  0.48731155  0.33793871  0.12361700  1
  In  In63  1  0.49031784  0.33703102  0.63204753  1
  In  In64  1  0.50885781  0.66286322  0.12180305  1
  In  In65  1  0.49252442  0.65500786  0.62207116  1
  In  In66  1  0.85079170  0.00840487  0.12833654  1
  In  In67  1  0.83836092  -0.00780516  0.61634709  1
  In  In68  1  0.82977685  0.34096167  0.12090145  1
  In  In69  1  0.83193238  0.33754928  0.62771288  1
  In  In70  1  0.83352719  0.66840458  0.11637060  1
  In  In71  1  0.83877285  0.66239798  0.62683091  1
  In  In72  1  0.66634001  0.00224196  0.24916058  1
  In  In73  1  0.66800324  0.33682700  0.24710657  1
  In  In74  1  0.83635968  0.16838592  -0.00718714  1
  In  In75  1  0.49597882  0.82969926  -0.00231296  1
  In  In76  1  0.67267287  0.65711079  0.26334932  1
  In  In77  1  0.33552302  0.66792260  0.24271743  1
  In  In78  1  0.49691634  0.16430740  -0.00835534  1
  In  In79  1  -0.00237350  0.33170793  0.24567336  1
  In  In80  1  0.66777808  0.66709363  0.74684406  1
  In  In81  1  0.33082805  0.00583776  0.24774681  1
  In  In82  1  0.15636550  0.51036904  0.51210938  1
  In  In83  1  -0.00244309  -0.00304153  0.73713933  1
  In  In84  1  0.49997032  0.17290700  0.50339002  1
  In  In85  1  -0.00120984  0.66733665  0.25690155  1
  Cu  Cu86  1  0.32659227  0.66491883  -0.00904511  1
  Cu  Cu87  1  0.16638041  0.83825796  0.74968814  1
  Cu  Cu88  1  0.50045999  0.17201997  0.24497708  1
  Cu  Cu89  1  -0.00587488  0.33816676  -0.01379436  1
  Cu  Cu90  1  -0.00554607  0.34008444  0.50651283  1
  Cu  Cu91  1  0.16396156  0.16742157  0.25653815  1
  Cu  Cu92  1  0.50328328  0.82367774  0.26314242  1
  Cu  Cu93  1  0.84764921  0.16104442  0.25993879  1
  Cu  Cu94  1  0.49846740  0.83627101  0.74737059  1
  Cu  Cu95  1  0.32799201  -0.00472720  -0.00858863  1
  Cu  Cu96  1  0.33563348  -0.00295085  0.50540512  1
  Cu  Cu97  1  0.16567529  0.16083276  0.74775838  1
  Cu  Cu98  1  -0.00342003  -0.00248195  0.00039114  1
  Cu  Cu99  1  0.33231241  0.33533613  -0.00419292  1
  Cu  Cu100  1  -0.00156101  0.66700972  -0.00396905  1
  Cu  Cu101  1  0.84368382  0.84142796  0.25547033  1
  Cu  Cu102  1  0.67296738  0.66815232  -0.00652874  1
  Cu  Cu103  1  0.66661308  0.00273291  0.50696775  1
  Cu  Cu104  1  0.48769917  0.16835703  0.74747184  1
  Cu  Cu105  1  0.66546193  0.33619436  0.50997919  1
  Cu  Cu106  1  0.66576061  0.66287631  0.50622117  1
  Cu  Cu107  1  0.66695879  0.34047614  -0.00445331  1
  Cu  Cu108  1  0.83766539  0.83429583  0.74206694  1
  Cu  Cu109  1  0.67047298  0.00057821  -0.00763904  1
  Cu  Cu110  1  0.32248950  0.34132139  0.51137099  1
  Cu  Cu111  1  0.15989734  0.84556184  0.25083322  1
  Cu  Cu112  1  0.33629236  0.66446226  0.50551784  1
  Cu  Cu113  1  0.17107946  0.49750372  0.23610765  1
  Cu  Cu114  1  0.49702583  0.50562647  0.75245157  1
  Se  Se115  1  0.07986365  0.08343271  0.05203337  1
  Se  Se116  1  0.07401715  0.07381520  0.54569074  1
  Se  Se117  1  0.07773131  0.41851862  0.04363015  1
  Se  Se118  1  0.07041842  0.41779376  0.57016122  1
  Se  Se119  1  0.07850823  0.75068965  0.05290026  1
  Se  Se120  1  0.08628106  0.72225573  0.56233945  1
  Se  Se121  1  0.40581520  0.07417766  0.05520012  1
  Se  Se122  1  0.41111615  0.08390084  0.56370604  1
  Se  Se123  1  0.41884262  0.41742796  0.04732911  1
  Se  Se124  1  0.41222271  0.41966444  0.55997186  1
  Se  Se125  1  0.40452438  0.74037200  0.05923930  1
  Se  Se126  1  0.41836229  0.74963267  0.55745795  1
  Se  Se127  1  0.74612976  0.07814079  0.05951245  1
  Se  Se128  1  0.74562513  0.08535127  0.56228126  1
  Se  Se129  1  0.75397391  0.42021915  0.04874441  1
  Se  Se130  1  0.75232168  0.42157411  0.55679304  1
  Se  Se131  1  0.74987630  0.75287862  0.05021701  1
  Se  Se132  1  0.75396143  0.74204038  0.55723231  1
  Se  Se133  1  0.24893896  0.24917128  0.04631467  1
  Se  Se134  1  0.23964633  0.25326403  0.55777948  1
  Se  Se135  1  0.24756349  0.58147127  0.04888641  1
  Se  Se136  1  0.25627921  0.58992680  0.56876485  1
  Se  Se137  1  0.24706188  0.91323908  0.04802904  1
  Se  Se138  1  0.25168540  0.91458138  0.55743028  1
  Se  Se139  1  0.58738724  0.25804979  0.05452827  1
  Se  Se140  1  0.58829257  0.25270771  0.56922907  1
  Se  Se141  1  0.58582730  0.58938574  0.04682276  1
  Se  Se142  1  0.58200014  0.57791431  0.55614053  1
  Se  Se143  1  0.58980975  0.92467121  0.05576388  1
  Se  Se144  1  0.58287617  0.91578192  0.55408753  1
  Se  Se145  1  0.92533195  0.25895405  0.05793048  1
  Se  Se146  1  0.91426447  0.25402332  0.55884703  1
  Se  Se147  1  0.91369443  0.58382145  0.04901491  1
  Se  Se148  1  0.93072247  0.57317032  0.57205753  1
  Se  Se149  1  0.91338624  0.91814699  0.05630290  1
  Se  Se150  1  0.93425277  0.93047868  0.54745653  1
  Se  Se151  1  0.08162482  0.26067241  0.45181175  1
  Se  Se152  1  0.07899796  0.24540177  0.94555240  1
  Se  Se153  1  0.07341215  0.58932006  0.43800998  1
  Se  Se154  1  0.08554101  0.58655592  0.94460317  1
  Se  Se155  1  0.10991453  0.88553357  0.44273448  1
  Se  Se156  1  0.07914175  0.91264960  0.94719623  1
  Se  Se157  1  0.40146465  0.26059552  0.44758471  1
  Se  Se158  1  0.40978390  0.25588668  0.93356472  1
  Se  Se159  1  0.41234298  0.57859236  0.44869895  1
  Se  Se160  1  0.41707389  0.58270087  0.94642292  1
  Se  Se161  1  0.41910990  0.91433249  0.45271200  1
  Se  Se162  1  0.41607008  0.92193589  0.93417023  1
  Se  Se163  1  0.74742678  0.25383942  0.45522223  1
  Se  Se164  1  0.74555440  0.25762695  0.93921296  1
  Se  Se165  1  0.74566645  0.58428530  0.44537998  1
  Se  Se166  1  0.75189112  0.58637360  0.93490592  1
  Se  Se167  1  0.74991139  0.91791291  0.45369695  1
  Se  Se168  1  0.75647866  0.91706389  0.94476648  1
  Se  Se169  1  0.25433935  0.08107612  0.44991793  1
  Se  Se170  1  0.24595918  0.08275103  0.94264067  1
  Se  Se171  1  0.24530978  0.41932947  0.44602169  1
  Se  Se172  1  0.24782490  0.41696045  0.94237835  1
  Se  Se173  1  0.25082763  0.74292468  0.45110277  1
  Se  Se174  1  0.24758123  0.75608606  0.94388206  1
  Se  Se175  1  0.58965514  0.07982352  0.44166810  1
  Se  Se176  1  0.59610459  0.08558462  0.93560643  1
  Se  Se177  1  0.58051897  0.41117165  0.45078353  1
  Se  Se178  1  0.58678808  0.42521015  0.94242973  1
  Se  Se179  1  0.58224163  0.74751516  0.45304363  1
  Se  Se180  1  0.59177447  0.75011921  0.93500932  1
  Se  Se181  1  0.88761995  0.11182670  0.44319460  1
  Se  Se182  1  0.92910363  0.08035979  0.93511625  1
  Se  Se183  1  0.91420384  0.42164518  0.45011168  1
  Se  Se184  1  0.91055498  0.41364075  0.92826175  1
  Se  Se185  1  0.91480499  0.74757224  0.45294248  1
  Se  Se186  1  0.91465423  0.74950831  0.94324568  1
  Se  Se187  1  0.24835494  0.25385142  0.30388419  1
  Se  Se188  1  0.24237345  0.24670546  0.80480490  1
  Se  Se189  1  0.24375754  0.57741093  0.30170360  1
  Se  Se190  1  0.25745303  0.59408479  0.80888468  1
  Se  Se191  1  0.24812665  0.91592632  0.31091109  1
  Se  Se192  1  0.24893451  0.91997629  0.80365393  1
  Se  Se193  1  0.57871584  0.24646676  0.30873280  1
  Se  Se194  1  0.57392902  0.23769526  0.80955551  1
  Se  Se195  1  0.57245283  0.56770572  0.31032926  1
  Se  Se196  1  0.58498918  0.57751202  0.81224710  1
  Se  Se197  1  0.58219160  0.91156906  0.31510076  1
  Se  Se198  1  0.58470705  0.91644233  0.79959322  1
  Se  Se199  1  0.92167241  0.24732179  0.31765973  1
  Se  Se200  1  0.87561699  0.21847802  0.81562278  1
  Se  Se201  1  0.90565714  0.57272439  0.30680199  1
  Se  Se202  1  0.93416252  0.58665236  0.79675892  1
  Se  Se203  1  0.92355023  0.92199326  0.31160924  1
  Se  Se204  1  0.91527462  0.91117162  0.80723903  1
  Se  Se205  1  0.08633817  0.08615708  0.31503925  1
  Se  Se206  1  0.08340231  0.08115146  0.80742260  1
  Se  Se207  1  0.09220719  0.42445280  0.30265103  1
  Se  Se208  1  0.05341244  0.38560654  0.81513781  1
  Se  Se209  1  0.08989053  0.75861321  0.31128930  1
  Se  Se210  1  0.08490566  0.75114349  0.80148578  1
  Se  Se211  1  0.42326519  0.09482101  0.30899338  1
  Se  Se212  1  0.41177766  0.07820653  0.80068626  1
  Se  Se213  1  0.40775159  0.41020169  0.30434962  1
  Se  Se214  1  0.41677025  0.42000387  0.80675285  1
  Se  Se215  1  0.41677012  0.74810148  0.31771245  1
  Se  Se216  1  0.42144577  0.75037114  0.80195852  1
  Se  Se217  1  0.75534540  0.08611148  0.31235627  1
  Se  Se218  1  0.73766343  0.06397469  0.79885081  1
  Se  Se219  1  0.75712025  0.41936130  0.31100136  1
  Se  Se220  1  0.74460030  0.39907425  0.79216346  1
  Se  Se221  1  0.76207573  0.76005343  0.31216852  1
  Se  Se222  1  0.76164169  0.75416403  0.80619247  1
  Se  Se223  1  0.24030823  0.09232286  0.18790121  1
  Se  Se224  1  0.24413519  0.07646403  0.69280909  1
  Se  Se225  1  0.25131762  0.41368365  0.18393231  1
  Se  Se226  1  0.23429639  0.42325848  0.70064696  1
  Se  Se227  1  0.23695236  0.76128853  0.19152596  1
  Se  Se228  1  0.25402896  0.75263586  0.70190239  1
  Se  Se229  1  0.57670888  0.09303417  0.18419636  1
  Se  Se230  1  0.57718505  0.08816890  0.69744312  1
  Se  Se231  1  0.58101266  0.42486322  0.18571262  1
  Se  Se232  1  0.57570126  0.42119219  0.69713429  1
  Se  Se233  1  0.58224399  0.75042534  0.19938254  1
  Se  Se234  1  0.57826141  0.75548087  0.68661207  1
  Se  Se235  1  0.92818271  0.08070471  0.20407968  1
  Se  Se236  1  0.90758687  0.09180871  0.68610056  1
  Se  Se237  1  0.90869897  0.42782552  0.19150833  1
  Se  Se238  1  0.92561490  0.39708313  0.70283123  1
  Se  Se239  1  0.91221846  0.75582524  0.19203579  1
  Se  Se240  1  0.92196749  0.75382318  0.68951092  1
  Se  Se241  1  0.09292836  0.24663449  0.18782129  1
  Se  Se242  1  0.07762216  0.23908357  0.69548136  1
  Se  Se243  1  0.08397938  0.58022058  0.18676412  1
  Se  Se244  1  0.12573639  0.54455878  0.70492237  1
  Se  Se245  1  0.07962190  0.92570143  0.19476817  1
  Se  Se246  1  0.08588958  0.90433821  0.68157204  1
  Se  Se247  1  0.41396344  0.25227313  0.19446669  1
  Se  Se248  1  0.40501146  0.25367829  0.69757896  1
  Se  Se249  1  0.42569837  0.57548108  0.18818943  1
  Se  Se250  1  0.41327890  0.58667795  0.69939552  1
  Se  Se251  1  0.42461162  0.90141094  0.19966698  1
  Se  Se252  1  0.41656245  0.91826432  0.69302652  1
  Se  Se253  1  0.77005151  0.24167995  0.19780535  1
  Se  Se254  1  0.73071987  0.28048013  0.69886159  1
  Se  Se255  1  0.75471908  0.58056582  0.18907149  1
  Se  Se256  1  0.75721805  0.57158598  0.69527411  1
  Se  Se257  1  0.75709573  0.91009414  0.19139850  1
  Se  Se258  1  0.75496391  0.91588565  0.68917191  1
