# generated using pymatgen
data_In86Cu29Se144
_symmetry_space_group_name_H-M   'P 1'
_cell_length_a   17.59244821
_cell_length_b   17.59340270
_cell_length_c   23.44928795
_cell_angle_alpha   90.01770991
_cell_angle_beta   89.99247303
_cell_angle_gamma   90.01002239
_symmetry_Int_Tables_number   1
_chemical_formula_structural   In86Cu29Se144
_chemical_formula_sum   'In86 Cu29 Se144'
_cell_volume   7257.81264740
_cell_formula_units_Z   1
loop_
 _symmetry_equiv_pos_site_id
 _symmetry_equiv_pos_as_xyz
  1  'x, y, z'
loop_
 _atom_site_type_symbol
 _atom_site_label
 _atom_site_symmetry_multiplicity
 _atom_site_fract_x
 _atom_site_fract_y
 _atom_site_fract_z
 _atom_site_occupancy
  In  In0  1  0.00117405  0.17056128  0.12608434  1
  In  In1  1  -0.00169662  0.16741919  0.63220760  1
  In  In2  1  0.00548303  0.50072812  0.12416034  1
  In  In3  1  0.02692201  0.48257758  0.65148653  1
  In  In4  1  -0.00993374  0.83411804  0.13980352  1
  In  In5  1  0.01908605  0.82003348  0.63237135  1
  In  In6  1  0.31610676  0.18299906  0.13259560  1
  In  In7  1  0.33877280  0.16403139  0.62381837  1
  In  In8  1  0.30729297  0.46053480  0.08426318  1
  In  In9  1  0.29814259  0.52654777  0.66830518  1
  In  In10  1  0.34571619  0.83025761  0.12451778  1
  In  In11  1  0.30610691  0.80781181  0.58947178  1
  In  In12  1  0.68122560  0.16098868  0.13522210  1
  In  In13  1  0.65413500  0.17842874  0.62346338  1
  In  In14  1  0.65549654  0.48927399  0.11918300  1
  In  In15  1  0.67638852  0.50694758  0.62931109  1
  In  In16  1  0.66520662  0.84689831  0.13094324  1
  In  In17  1  0.66078614  0.84471132  0.62038904  1
  In  In18  1  0.15926191  -0.01345932  0.36776506  1
  In  In19  1  0.16058564  0.01190957  0.88038083  1
  In  In20  1  0.17228711  0.34118593  0.36422609  1
  In  In21  1  0.16623783  0.34364214  0.87732695  1
  In  In22  1  0.16983923  0.66954206  0.38500786  1
  In  In23  1  0.14079495  0.63272180  0.84781995  1
  In  In24  1  0.50134057  0.00403844  0.36725411  1
  In  In25  1  0.48681982  -0.01156762  0.88087787  1
  In  In26  1  0.49010655  0.32772000  0.36686634  1
  In  In27  1  0.49862456  0.34231640  0.88013280  1
  In  In28  1  0.50073915  0.67447830  0.38013836  1
  In  In29  1  0.49385009  0.67077210  0.87476991  1
  In  In30  1  0.84145018  0.00620204  0.35161737  1
  In  In31  1  0.84843662  -0.00106009  0.88208771  1
  In  In32  1  0.84561523  0.33471163  0.35317698  1
  In  In33  1  0.83720286  0.32624794  0.88669273  1
  In  In34  1  0.83689579  0.65796720  0.37344928  1
  In  In35  1  0.84350410  0.65639459  0.88310564  1
  In  In36  1  -0.00048205  0.17290286  0.36009078  1
  In  In37  1  -0.00002446  0.17146485  0.88114166  1
  In  In38  1  0.01431788  0.50828644  0.35995633  1
  In  In39  1  0.00207238  0.49166914  0.87681082  1
  In  In40  1  0.00568849  0.83817658  0.36951479  1
  In  In41  1  0.00865678  0.83434082  0.87098037  1
  In  In42  1  0.34644773  0.17816232  0.36789893  1
  In  In43  1  0.31516743  0.17453125  0.88850003  1
  In  In44  1  0.32426010  0.49396238  0.37591778  1
  In  In45  1  0.32960846  0.50003095  0.87257333  1
  In  In46  1  0.32355233  0.83656857  0.38292296  1
  In  In47  1  0.34106541  0.82500702  0.88017334  1
  In  In48  1  0.66354117  0.16079090  0.36104790  1
  In  In49  1  0.66914251  0.17934857  0.88144593  1
  In  In50  1  0.67532915  0.50005715  0.36804459  1
  In  In51  1  0.67493780  0.49639897  0.88948686  1
  In  In52  1  0.65637197  0.84277345  0.37483990  1
  In  In53  1  0.65511617  0.82567419  0.87511949  1
  In  In54  1  0.15185923  0.01229470  0.13689161  1
  In  In55  1  0.17146008  -0.00552567  0.62501032  1
  In  In56  1  0.16843792  0.33143720  0.12130074  1
  In  In57  1  0.16045343  0.33935006  0.63393268  1
  In  In58  1  0.16164798  0.64770159  0.12524652  1
  In  In59  1  0.16822171  0.66259632  0.62450797  1
  In  In60  1  0.50742113  -0.00207625  0.12973913  1
  In  In61  1  0.48516231  -0.00564910  0.60972617  1
  In  In62  1  0.49050819  0.34211060  0.13092697  1
  In  In63  1  0.49094274  0.32430678  0.61905880  1
  In  In64  1  0.49049321  0.65867979  0.11504136  1
  In  In65  1  0.47078315  0.66117813  0.61829458  1
  In  In66  1  0.82470154  0.01540062  0.14420076  1
  In  In67  1  0.83981567  0.01093160  0.62218494  1
  In  In68  1  0.83587374  0.33310692  0.12484154  1
  In  In69  1  0.84870106  0.34114904  0.62454118  1
  In  In70  1  0.85027715  0.66274376  0.12570788  1
  In  In71  1  0.84422680  0.66322647  0.63066885  1
  In  In72  1  0.48646806  0.49764791  0.49822329  1
  In  In73  1  0.16714384  0.16362879  0.49355701  1
  In  In74  1  0.83538007  0.49735912  0.50052894  1
  In  In75  1  0.66799003  0.67061798  0.25375172  1
  In  In76  1  0.67372240  0.66892366  0.74777942  1
  In  In77  1  0.82865181  0.16429737  0.48025864  1
  In  In78  1  0.83343601  0.83579755  0.49212107  1
  In  In79  1  0.50334710  0.16250939  0.00533111  1
  In  In80  1  0.17625886  0.82483104  0.00277075  1
  In  In81  1  0.67138909  0.00577967  0.74315246  1
  In  In82  1  0.82936374  0.83722834  0.01297089  1
  In  In83  1  0.33096117  0.00143993  0.74886968  1
  In  In84  1  0.67509297  0.33447074  0.75277704  1
  In  In85  1  0.32922071  0.65918302  0.25179652  1
  Cu  Cu86  1  0.65800717  0.01099308  0.49137195  1
  Cu  Cu87  1  0.65814985  0.67483395  0.50490026  1
  Cu  Cu88  1  0.66149773  0.66922053  -0.00141714  1
  Cu  Cu89  1  0.32356093  0.33919799  0.49768590  1
  Cu  Cu90  1  0.48866205  0.16553750  0.74899328  1
  Cu  Cu91  1  0.17200256  0.16918874  0.24894398  1
  Cu  Cu92  1  0.33246710  -0.00129184  0.00766606  1
  Cu  Cu93  1  0.84641517  0.83424379  0.75368135  1
  Cu  Cu94  1  0.83357852  0.49817457  0.24210716  1
  Cu  Cu95  1  0.00034787  0.33731100  0.50084961  1
  Cu  Cu96  1  0.49118953  0.49858925  0.24313579  1
  Cu  Cu97  1  0.50053234  0.16712080  0.24458629  1
  Cu  Cu98  1  0.50521609  0.49575115  0.75580570  1
  Cu  Cu99  1  0.67486130  0.32778208  0.00879213  1
  Cu  Cu100  1  0.84281668  0.16410262  0.75499464  1
  Cu  Cu101  1  0.33150657  0.65926955  -0.00799731  1
  Cu  Cu102  1  0.00304209  0.33410800  0.00160308  1
  Cu  Cu103  1  0.16927999  0.82427752  0.25482888  1
  Cu  Cu104  1  0.00509696  0.66463228  -0.00013385  1
  Cu  Cu105  1  0.00218083  0.01176395  0.00742566  1
  Cu  Cu106  1  0.15556203  0.17535009  0.75999202  1
  Cu  Cu107  1  0.49542803  0.83272598  0.74541367  1
  Cu  Cu108  1  0.00482422  -0.01108787  0.49546419  1
  Cu  Cu109  1  0.17519923  0.83751455  0.74505253  1
  Cu  Cu110  1  0.01094808  0.65726296  0.50254148  1
  Cu  Cu111  1  0.66850594  -0.00151002  0.00843069  1
  Cu  Cu112  1  0.65827691  0.32834457  0.49468593  1
  Cu  Cu113  1  0.50138234  0.83745404  0.24973246  1
  Cu  Cu114  1  0.34220399  0.00719906  0.49073995  1
  Se  Se115  1  0.09154876  0.09236230  0.05586673  1
  Se  Se116  1  0.07425072  0.07796718  0.55660598  1
  Se  Se117  1  0.08578966  0.41909115  0.05361921  1
  Se  Se118  1  0.07991185  0.41633814  0.56018354  1
  Se  Se119  1  0.07492794  0.74916399  0.06369349  1
  Se  Se120  1  0.08956543  0.74870027  0.55203462  1
  Se  Se121  1  0.40995704  0.08100660  0.06733940  1
  Se  Se122  1  0.41776198  0.09477523  0.54579354  1
  Se  Se123  1  0.44020062  0.42521510  0.04865695  1
  Se  Se124  1  0.39970767  0.41552521  0.56323616  1
  Se  Se125  1  0.40985856  0.74570062  0.04770487  1
  Se  Se126  1  0.43743583  0.77063203  0.55125878  1
  Se  Se127  1  0.75501251  0.07944886  0.05902323  1
  Se  Se128  1  0.74024136  0.08492570  0.55502412  1
  Se  Se129  1  0.75549873  0.42025265  0.05526385  1
  Se  Se130  1  0.73945415  0.40398154  0.55772992  1
  Se  Se131  1  0.73955976  0.74085237  0.06673004  1
  Se  Se132  1  0.74937783  0.74527012  0.56207765  1
  Se  Se133  1  0.25120662  0.25078486  0.04998239  1
  Se  Se134  1  0.24824356  0.25386784  0.55907958  1
  Se  Se135  1  0.24281139  0.58390198  0.04629263  1
  Se  Se136  1  0.26290163  0.57599021  0.56861733  1
  Se  Se137  1  0.24868884  0.92202648  0.06821884  1
  Se  Se138  1  0.25229434  0.93241318  0.54591821  1
  Se  Se139  1  0.59056433  0.24983648  0.06803723  1
  Se  Se140  1  0.57416779  0.24681259  0.54674240  1
  Se  Se141  1  0.58180960  0.58072639  0.05075288  1
  Se  Se142  1  0.58389205  0.58585465  0.56094750  1
  Se  Se143  1  0.58141325  0.91437898  0.05479518  1
  Se  Se144  1  0.58401603  0.92204774  0.54692499  1
  Se  Se145  1  0.91897772  0.25056951  0.05483566  1
  Se  Se146  1  0.91864934  0.24746168  0.55136739  1
  Se  Se147  1  0.92018489  0.58098774  0.05156685  1
  Se  Se148  1  0.92826108  0.57984469  0.56220445  1
  Se  Se149  1  0.92410638  0.92760209  0.06522994  1
  Se  Se150  1  0.92345680  0.91593438  0.56026592  1
  Se  Se151  1  0.07450263  0.25424113  0.43869462  1
  Se  Se152  1  0.08727707  0.25408765  0.94591211  1
  Se  Se153  1  0.08581790  0.57257580  0.44426345  1
  Se  Se154  1  0.08553802  0.58310125  0.94317871  1
  Se  Se155  1  0.09005209  0.90594402  0.44602145  1
  Se  Se156  1  0.07794300  0.92101407  0.95052350  1
  Se  Se157  1  0.41276921  0.25924181  0.44669479  1
  Se  Se158  1  0.41445034  0.25580566  0.94866032  1
  Se  Se159  1  0.40223515  0.59429892  0.44032574  1
  Se  Se160  1  0.42027817  0.57857750  0.94123635  1
  Se  Se161  1  0.42159970  0.92011162  0.43859395  1
  Se  Se162  1  0.41129866  0.91115767  0.95522485  1
  Se  Se163  1  0.74290895  0.26439581  0.42869860  1
  Se  Se164  1  0.75550923  0.24153850  0.95642770  1
  Se  Se165  1  0.73847916  0.59284641  0.44664239  1
  Se  Se166  1  0.75387850  0.58778500  0.95367179  1
  Se  Se167  1  0.74937347  0.93498567  0.43558687  1
  Se  Se168  1  0.74196662  0.91873433  0.94051720  1
  Se  Se169  1  0.25646042  0.08009259  0.42930949  1
  Se  Se170  1  0.24708794  0.07888078  0.95474218  1
  Se  Se171  1  0.23701462  0.41806107  0.44598015  1
  Se  Se172  1  0.25547340  0.41823082  0.94698767  1
  Se  Se173  1  0.25717184  0.74591841  0.45350622  1
  Se  Se174  1  0.24437391  0.73314126  0.93199583  1
  Se  Se175  1  0.57869431  0.09373719  0.43693811  1
  Se  Se176  1  0.59057800  0.07116417  0.93895743  1
  Se  Se177  1  0.58613425  0.41857773  0.43700087  1
  Se  Se178  1  0.59175984  0.40690132  0.95074556  1
  Se  Se179  1  0.58299150  0.75790684  0.44734124  1
  Se  Se180  1  0.57582739  0.75176088  0.94799701  1
  Se  Se181  1  0.92902113  0.07106476  0.43438394  1
  Se  Se182  1  0.91580980  0.08879047  0.95207854  1
  Se  Se183  1  0.91948096  0.40981279  0.43609034  1
  Se  Se184  1  0.91714250  0.41764593  0.95013578  1
  Se  Se185  1  0.92653353  0.73637955  0.44386528  1
  Se  Se186  1  0.92413126  0.75595319  0.94808903  1
  Se  Se187  1  0.25567270  0.25431591  0.30075899  1
  Se  Se188  1  0.24753334  0.25068157  0.81026605  1
  Se  Se189  1  0.23339765  0.57319796  0.30726474  1
  Se  Se190  1  0.26550911  0.59259046  0.79927643  1
  Se  Se191  1  0.25455373  0.91150407  0.30254463  1
  Se  Se192  1  0.24615521  0.91386895  0.81582731  1
  Se  Se193  1  0.58082263  0.25364593  0.29925351  1
  Se  Se194  1  0.57549726  0.24290391  0.80650005  1
  Se  Se195  1  0.56913296  0.57727735  0.30749864  1
  Se  Se196  1  0.58953319  0.57695089  0.81314530  1
  Se  Se197  1  0.58795023  0.92229523  0.29755974  1
  Se  Se198  1  0.57522130  0.91587693  0.80257376  1
  Se  Se199  1  0.89956279  0.22732018  0.29105182  1
  Se  Se200  1  0.91630643  0.25277224  0.81012845  1
  Se  Se201  1  0.91287385  0.58088778  0.29978325  1
  Se  Se202  1  0.93396378  0.59528007  0.81275546  1
  Se  Se203  1  0.91891213  0.90653320  0.29801366  1
  Se  Se204  1  0.92329549  0.92180559  0.80730831  1
  Se  Se205  1  0.09017738  0.08467543  0.30297138  1
  Se  Se206  1  0.07669246  0.08414896  0.80846339  1
  Se  Se207  1  0.05724925  0.38863527  0.30586256  1
  Se  Se208  1  0.09345626  0.42687213  0.80385507  1
  Se  Se209  1  0.08760723  0.74259177  0.31034231  1
  Se  Se210  1  0.09065866  0.75738694  0.80029172  1
  Se  Se211  1  0.41596283  0.08503458  0.29883012  1
  Se  Se212  1  0.41550062  0.09114318  0.81644572  1
  Se  Se213  1  0.41044885  0.42103950  0.30460829  1
  Se  Se214  1  0.41856151  0.41421692  0.80572975  1
  Se  Se215  1  0.42007582  0.75598066  0.30734648  1
  Se  Se216  1  0.41549229  0.75132885  0.80177582  1
  Se  Se217  1  0.75804174  0.09512337  0.29277032  1
  Se  Se218  1  0.75452328  0.08937041  0.81279075  1
  Se  Se219  1  0.74791242  0.41726553  0.29625775  1
  Se  Se220  1  0.76102047  0.42231396  0.81511110  1
  Se  Se221  1  0.75629184  0.75861941  0.31506487  1
  Se  Se222  1  0.76074267  0.75935776  0.81268954  1
  Se  Se223  1  0.25463730  0.08080406  0.19862846  1
  Se  Se224  1  0.23666519  0.09815255  0.69498517  1
  Se  Se225  1  0.25455637  0.42277017  0.18192677  1
  Se  Se226  1  0.25299041  0.39947969  0.70751616  1
  Se  Se227  1  0.24502684  0.75141858  0.18688160  1
  Se  Se228  1  0.25433213  0.75842033  0.68543998  1
  Se  Se229  1  0.58769795  0.08116165  0.19831504  1
  Se  Se230  1  0.56787543  0.08653068  0.68791276  1
  Se  Se231  1  0.58320932  0.41661357  0.19893979  1
  Se  Se232  1  0.58111690  0.42004898  0.68920072  1
  Se  Se233  1  0.57191926  0.74850109  0.18926786  1
  Se  Se234  1  0.57948183  0.75398743  0.68700982  1
  Se  Se235  1  0.94494280  0.06594627  0.19274005  1
  Se  Se236  1  0.92018640  0.07773584  0.69943451  1
  Se  Se237  1  0.92071932  0.41676338  0.19260666  1
  Se  Se238  1  0.91301400  0.41809632  0.70167241  1
  Se  Se239  1  0.91033336  0.74447377  0.20343162  1
  Se  Se240  1  0.92328895  0.74832839  0.69825587  1
  Se  Se241  1  0.08856942  0.25144911  0.19427311  1
  Se  Se242  1  0.07423430  0.25381910  0.69959595  1
  Se  Se243  1  0.06984430  0.59194987  0.19802527  1
  Se  Se244  1  0.07991624  0.60084128  0.70028725  1
  Se  Se245  1  0.08822290  0.90884388  0.20057957  1
  Se  Se246  1  0.08688078  0.92131118  0.69675553  1
  Se  Se247  1  0.41337780  0.25342604  0.19774032  1
  Se  Se248  1  0.41064584  0.25182058  0.69535481  1
  Se  Se249  1  0.40973852  0.57367893  0.18371577  1
  Se  Se250  1  0.42571944  0.58662282  0.70603020  1
  Se  Se251  1  0.41663089  0.91750648  0.19567083  1
  Se  Se252  1  0.41421898  0.91111091  0.68604933  1
  Se  Se253  1  0.74693764  0.26259881  0.19626701  1
  Se  Se254  1  0.76163090  0.23995080  0.68979979  1
  Se  Se255  1  0.74717145  0.57936482  0.18747826  1
  Se  Se256  1  0.77010180  0.57001812  0.70231804  1
  Se  Se257  1  0.75898781  0.90662849  0.19974084  1
  Se  Se258  1  0.76466946  0.90811821  0.69044942  1
