# generated using pymatgen
data_In86Cu29Se144
_symmetry_space_group_name_H-M   'P 1'
_cell_length_a   17.57874081
_cell_length_b   17.58174847
_cell_length_c   23.44378101
_cell_angle_alpha   89.97775124
_cell_angle_beta   89.99513439
_cell_angle_gamma   89.97716584
_symmetry_Int_Tables_number   1
_chemical_formula_structural   In86Cu29Se144
_chemical_formula_sum   'In86 Cu29 Se144'
_cell_volume   7245.65101713
_cell_formula_units_Z   1
loop_
 _symmetry_equiv_pos_site_id
 _symmetry_equiv_pos_as_xyz
  1  'x, y, z'
loop_
 _atom_site_type_symbol
 _atom_site_label
 _atom_site_symmetry_multiplicity
 _atom_site_fract_x
 _atom_site_fract_y
 _atom_site_fract_z
 _atom_site_occupancy
  In  In0  1  -0.01162010  0.16144376  0.11887371  1
  In  In1  1  -0.01931387  0.15953739  0.63348828  1
  In  In2  1  -0.00660004  0.50614498  0.12389037  1
  In  In3  1  0.01618289  0.50775129  0.61275992  1
  In  In4  1  0.01402437  0.83541263  0.12828660  1
  In  In5  1  -0.00283744  0.83303161  0.62620968  1
  In  In6  1  0.34929428  0.17899100  0.11506912  1
  In  In7  1  0.35519251  0.16891390  0.62281210  1
  In  In8  1  0.33511275  0.48719661  0.13645470  1
  In  In9  1  0.33482356  0.49936883  0.63099858  1
  In  In10  1  0.33239309  0.82655013  0.12959097  1
  In  In11  1  0.31618267  0.83076755  0.61954942  1
  In  In12  1  0.66566925  0.17248613  0.12704334  1
  In  In13  1  0.65828756  0.18888334  0.64521572  1
  In  In14  1  0.65213819  0.49103358  0.11886034  1
  In  In15  1  0.64685463  0.46704809  0.59826491  1
  In  In16  1  0.67792345  0.83620427  0.12965874  1
  In  In17  1  0.68091445  0.83138478  0.62075712  1
  In  In18  1  0.15431366  0.00282878  0.37640573  1
  In  In19  1  0.16708857  0.01360327  0.87376462  1
  In  In20  1  0.17542126  0.33676519  0.37521235  1
  In  In21  1  0.17136094  0.32090422  0.87685985  1
  In  In22  1  0.18051755  0.65580207  0.38490060  1
  In  In23  1  0.16835246  0.66805660  0.86867477  1
  In  In24  1  0.51881579  -0.00723792  0.37085591  1
  In  In25  1  0.51955401  0.00716512  0.87282588  1
  In  In26  1  0.50328385  0.33915723  0.37895099  1
  In  In27  1  0.49861541  0.33428507  0.87519780  1
  In  In28  1  0.47474341  0.66270275  0.37046300  1
  In  In29  1  0.48592544  0.65581921  0.86950986  1
  In  In30  1  0.82736555  0.00029522  0.37331550  1
  In  In31  1  0.84641472  0.01912651  0.86119204  1
  In  In32  1  0.82560726  0.34586145  0.38193233  1
  In  In33  1  0.82347033  0.34000812  0.87733135  1
  In  In34  1  0.84333487  0.66419681  0.38558876  1
  In  In35  1  0.82957005  0.65121824  0.86807062  1
  In  In36  1  0.00738826  0.15868771  0.37052995  1
  In  In37  1  0.00769177  0.16129968  0.87799789  1
  In  In38  1  0.00145521  0.49556411  0.39205682  1
  In  In39  1  -0.01527023  0.49804487  0.86843815  1
  In  In40  1  -0.00437984  0.84136607  0.38254196  1
  In  In41  1  0.00159401  0.83475578  0.86603700  1
  In  In42  1  0.33639610  0.18799310  0.37142783  1
  In  In43  1  0.32897525  0.17867053  0.88117828  1
  In  In44  1  0.33355982  0.50045566  0.37727344  1
  In  In45  1  0.35002676  0.51073668  0.85996475  1
  In  In46  1  0.33934302  0.80839431  0.37399405  1
  In  In47  1  0.33832530  0.82186875  0.87172628  1
  In  In48  1  0.66092804  0.16435017  0.37149616  1
  In  In49  1  0.66830478  0.16896595  0.87834440  1
  In  In50  1  0.67104803  0.48839371  0.38490593  1
  In  In51  1  0.67074241  0.48804834  0.87385974  1
  In  In52  1  0.66742264  0.84562012  0.37706506  1
  In  In53  1  0.66584836  0.85276151  0.87198712  1
  In  In54  1  0.15493167  -0.00043211  0.12804095  1
  In  In55  1  0.16450309  -0.01257777  0.62284258  1
  In  In56  1  0.18267761  0.33198982  0.12722588  1
  In  In57  1  0.16355212  0.35075473  0.62171645  1
  In  In58  1  0.17131830  0.66752898  0.13117125  1
  In  In59  1  0.16736310  0.66577018  0.62725469  1
  In  In60  1  0.50271216  0.01746060  0.12359454  1
  In  In61  1  0.50379267  0.01956318  0.62253075  1
  In  In62  1  0.50172923  0.33497404  0.12881498  1
  In  In63  1  0.50336847  0.33517702  0.63097267  1
  In  In64  1  0.49602930  0.64796484  0.12147242  1
  In  In65  1  0.49927829  0.64020157  0.62844112  1
  In  In66  1  0.82051845  0.01041528  0.13544674  1
  In  In67  1  0.83792858  0.00067993  0.63567819  1
  In  In68  1  0.82183695  0.32369468  0.11804991  1
  In  In69  1  0.81952349  0.33211842  0.62185176  1
  In  In70  1  0.83917194  0.66070043  0.12248473  1
  In  In71  1  0.83631669  0.67197917  0.62014968  1
  In  In72  1  0.82729241  0.17071425  0.50921794  1
  In  In73  1  0.33468475  0.00051152  0.24734185  1
  In  In74  1  0.66063916  0.67022811  0.25152294  1
  In  In75  1  0.16860807  0.83304158  -0.00265657  1
  In  In76  1  0.00276000  0.66784264  0.25105053  1
  In  In77  1  -0.00162232  0.33252429  0.74691389  1
  In  In78  1  -0.00152092  0.33450053  0.25850895  1
  In  In79  1  0.50063546  0.83287082  -0.00234618  1
  In  In80  1  0.83495149  0.83235405  0.00397871  1
  In  In81  1  0.16599755  0.17348105  0.49480676  1
  In  In82  1  0.16917186  0.49349326  0.00655131  1
  In  In83  1  0.66793037  0.66093581  0.74300824  1
  In  In84  1  0.50045393  0.82766530  0.49289950  1
  In  In85  1  0.33236744  -0.00278076  0.74687502  1
  Cu  Cu86  1  0.49757645  0.49521931  0.25195528  1
  Cu  Cu87  1  -0.00588262  0.00798024  0.00292841  1
  Cu  Cu88  1  0.67129939  0.00281868  0.49892482  1
  Cu  Cu89  1  -0.00304165  0.33036500  -0.00712529  1
  Cu  Cu90  1  0.16944448  0.83100882  0.25422061  1
  Cu  Cu91  1  0.49443692  0.82934402  0.74591789  1
  Cu  Cu92  1  0.82978811  0.16561677  0.24617491  1
  Cu  Cu93  1  0.16688779  0.16875008  0.24843498  1
  Cu  Cu94  1  0.67165772  0.01229835  0.00161914  1
  Cu  Cu95  1  0.00561759  0.67690904  0.50399727  1
  Cu  Cu96  1  0.33955761  0.33617687  0.00129661  1
  Cu  Cu97  1  0.16748627  0.50175395  0.74572975  1
  Cu  Cu98  1  0.16587376  0.16263549  0.75152356  1
  Cu  Cu99  1  0.33905044  0.33871644  0.50046800  1
  Cu  Cu100  1  0.50362753  0.17106220  0.75329525  1
  Cu  Cu101  1  0.66357093  0.33351883  -0.00028866  1
  Cu  Cu102  1  -0.00271666  -0.00267581  0.50529982  1
  Cu  Cu103  1  0.82625599  0.49754563  0.25355346  1
  Cu  Cu104  1  0.65913462  0.65822778  -0.00868459  1
  Cu  Cu105  1  0.33422227  0.00408644  -0.00296105  1
  Cu  Cu106  1  0.33046973  0.66127142  0.50436429  1
  Cu  Cu107  1  0.50108493  0.17201942  0.24785091  1
  Cu  Cu108  1  0.66929816  0.66264134  0.50012826  1
  Cu  Cu109  1  0.33620454  0.00236754  0.50135224  1
  Cu  Cu110  1  0.83419078  0.50379269  0.74150945  1
  Cu  Cu111  1  0.83381324  0.83329966  0.74578691  1
  Cu  Cu112  1  0.15954350  0.82946807  0.74478601  1
  Cu  Cu113  1  0.83562980  0.84310415  0.25724350  1
  Cu  Cu114  1  -0.00642890  0.65558126  -0.00468661  1
  Se  Se115  1  0.08522764  0.08491517  0.05494038  1
  Se  Se116  1  0.07742807  0.08449056  0.56049873  1
  Se  Se117  1  0.07262487  0.40352912  0.06263222  1
  Se  Se118  1  0.08692033  0.41632513  0.54383132  1
  Se  Se119  1  0.07505083  0.73614103  0.05498393  1
  Se  Se120  1  0.08924646  0.75656540  0.55972041  1
  Se  Se121  1  0.42180859  0.08576300  0.04745977  1
  Se  Se122  1  0.42331787  0.08802582  0.54525383  1
  Se  Se123  1  0.41713144  0.41867553  0.06005705  1
  Se  Se124  1  0.41795800  0.41732787  0.56136029  1
  Se  Se125  1  0.40987432  0.74305527  0.05551078  1
  Se  Se126  1  0.41564282  0.74283564  0.56168706  1
  Se  Se127  1  0.75449555  0.09173528  0.05825964  1
  Se  Se128  1  0.74040437  0.07898886  0.56805215  1
  Se  Se129  1  0.74773469  0.41868225  0.05317694  1
  Se  Se130  1  0.76545997  0.42104737  0.54376380  1
  Se  Se131  1  0.73782367  0.73625990  0.05486696  1
  Se  Se132  1  0.75298109  0.75054114  0.54684846  1
  Se  Se133  1  0.25132042  0.25131794  0.05046581  1
  Se  Se134  1  0.25856345  0.25455019  0.55972275  1
  Se  Se135  1  0.25761482  0.58594556  0.06369983  1
  Se  Se136  1  0.24905184  0.57895441  0.56031675  1
  Se  Se137  1  0.25780745  0.92435183  0.05952174  1
  Se  Se138  1  0.24775751  0.91894005  0.54683713  1
  Se  Se139  1  0.58141916  0.25236362  0.05730972  1
  Se  Se140  1  0.58219164  0.24590719  0.56315864  1
  Se  Se141  1  0.57742825  0.57682313  0.04667983  1
  Se  Se142  1  0.57971354  0.58088282  0.54754724  1
  Se  Se143  1  0.59437086  0.92213244  0.05753590  1
  Se  Se144  1  0.58584663  0.92007267  0.55709307  1
  Se  Se145  1  0.91345474  0.24992780  0.05044932  1
  Se  Se146  1  0.92839486  0.25851085  0.55997025  1
  Se  Se147  1  0.90914145  0.57552237  0.04897798  1
  Se  Se148  1  0.92144915  0.58947666  0.55252279  1
  Se  Se149  1  0.92269733  0.92313894  0.06563269  1
  Se  Se150  1  0.91133404  0.91960154  0.56042618  1
  Se  Se151  1  0.07067560  0.26052962  0.43774606  1
  Se  Se152  1  0.08624819  0.24642939  0.94795610  1
  Se  Se153  1  0.08496044  0.58746049  0.45189940  1
  Se  Se154  1  0.08101729  0.58051505  0.93827740  1
  Se  Se155  1  0.08500312  0.91951314  0.45122158  1
  Se  Se156  1  0.07336837  0.92494251  0.94312242  1
  Se  Se157  1  0.41948727  0.25217067  0.44771548  1
  Se  Se158  1  0.42155774  0.24955235  0.94888291  1
  Se  Se159  1  0.41602456  0.58091221  0.45059402  1
  Se  Se160  1  0.41519996  0.57741690  0.94468786  1
  Se  Se161  1  0.41061043  0.92190755  0.43503107  1
  Se  Se162  1  0.41143331  0.92489544  0.93525632  1
  Se  Se163  1  0.73809255  0.25389784  0.44418468  1
  Se  Se164  1  0.75070074  0.25161496  0.94821428  1
  Se  Se165  1  0.75433050  0.58012029  0.44691043  1
  Se  Se166  1  0.74988867  0.57828809  0.94200792  1
  Se  Se167  1  0.75477846  0.91748660  0.44857463  1
  Se  Se168  1  0.75258387  0.92802579  0.94447623  1
  Se  Se169  1  0.25914048  0.08271958  0.43606549  1
  Se  Se170  1  0.24798476  0.08708185  0.94637355  1
  Se  Se171  1  0.25078278  0.41769509  0.44828601  1
  Se  Se172  1  0.25748021  0.41324990  0.93940224  1
  Se  Se173  1  0.25267191  0.75163421  0.45224311  1
  Se  Se174  1  0.25921569  0.73712657  0.94544943  1
  Se  Se175  1  0.58423495  0.08024530  0.44472160  1
  Se  Se176  1  0.58145158  0.08997025  0.95079524  1
  Se  Se177  1  0.57361850  0.42557964  0.45205751  1
  Se  Se178  1  0.58186621  0.41704758  0.94506803  1
  Se  Se179  1  0.58940848  0.73667809  0.43336815  1
  Se  Se180  1  0.58920961  0.74628561  0.93171837  1
  Se  Se181  1  0.92047062  0.08188118  0.44532438  1
  Se  Se182  1  0.91283590  0.08760705  0.94558486  1
  Se  Se183  1  0.90981686  0.41712908  0.45343045  1
  Se  Se184  1  0.91466645  0.41857301  0.94466258  1
  Se  Se185  1  0.91730640  0.75645418  0.45169776  1
  Se  Se186  1  0.91981134  0.74420576  0.93751230  1
  Se  Se187  1  0.24735799  0.25563022  0.29925755  1
  Se  Se188  1  0.25060495  0.24649641  0.80138500  1
  Se  Se189  1  0.26344310  0.59454473  0.30832809  1
  Se  Se190  1  0.24972992  0.58550419  0.80021384  1
  Se  Se191  1  0.24894131  0.91358999  0.31406158  1
  Se  Se192  1  0.24035642  0.90737352  0.80941143  1
  Se  Se193  1  0.58059627  0.25374456  0.30639416  1
  Se  Se194  1  0.58755523  0.25283854  0.80804958  1
  Se  Se195  1  0.57835263  0.57588040  0.31316423  1
  Se  Se196  1  0.58069258  0.57377700  0.80574995  1
  Se  Se197  1  0.58413425  0.90482261  0.29902792  1
  Se  Se198  1  0.57653136  0.91450454  0.79720387  1
  Se  Se199  1  0.90383393  0.24242040  0.31441109  1
  Se  Se200  1  0.91528720  0.24899115  0.81459261  1
  Se  Se201  1  0.91384310  0.57315524  0.30965664  1
  Se  Se202  1  0.91839352  0.58631975  0.79418604  1
  Se  Se203  1  0.92249615  0.92392554  0.30823410  1
  Se  Se204  1  0.91642253  0.91680908  0.80041282  1
  Se  Se205  1  0.08508676  0.08066911  0.29723402  1
  Se  Se206  1  0.07949662  0.07998540  0.80033420  1
  Se  Se207  1  0.08767317  0.43047838  0.31183386  1
  Se  Se208  1  0.09101678  0.42058235  0.80981261  1
  Se  Se209  1  0.08832773  0.75345437  0.31658129  1
  Se  Se210  1  0.07962222  0.74488682  0.80097652  1
  Se  Se211  1  0.42280680  0.08994385  0.31009302  1
  Se  Se212  1  0.41848057  0.08723816  0.80994103  1
  Se  Se213  1  0.41444696  0.41423895  0.30835472  1
  Se  Se214  1  0.40255610  0.39661562  0.80461268  1
  Se  Se215  1  0.43367882  0.76456443  0.29765315  1
  Se  Se216  1  0.41397160  0.74424389  0.79744815  1
  Se  Se217  1  0.74746156  0.08348761  0.30398399  1
  Se  Se218  1  0.72264114  0.06086431  0.81359478  1
  Se  Se219  1  0.74349289  0.41350745  0.30500185  1
  Se  Se220  1  0.75550868  0.41943297  0.79822750  1
  Se  Se221  1  0.76132488  0.75123419  0.31211179  1
  Se  Se222  1  0.75131419  0.75689004  0.80843363  1
  Se  Se223  1  0.24929497  0.09289648  0.18538606  1
  Se  Se224  1  0.24665271  0.08944206  0.68454058  1
  Se  Se225  1  0.24014317  0.41806593  0.20301168  1
  Se  Se226  1  0.24892458  0.41264684  0.69781917  1
  Se  Se227  1  0.25224722  0.74800813  0.20155262  1
  Se  Se228  1  0.25127522  0.74964659  0.69740758  1
  Se  Se229  1  0.58582260  0.08657178  0.19798323  1
  Se  Se230  1  0.58406646  0.08288967  0.70129840  1
  Se  Se231  1  0.58599111  0.41583927  0.19971753  1
  Se  Se232  1  0.59618004  0.41720662  0.69278566  1
  Se  Se233  1  0.57543228  0.75184401  0.18233187  1
  Se  Se234  1  0.57675591  0.75350840  0.68303980  1
  Se  Se235  1  0.91956512  0.08342802  0.19821043  1
  Se  Se236  1  0.90573218  0.08833625  0.70919179  1
  Se  Se237  1  0.90824235  0.41873091  0.19211043  1
  Se  Se238  1  0.91789437  0.42435599  0.68216204  1
  Se  Se239  1  0.90819192  0.76053476  0.19255984  1
  Se  Se240  1  0.91599271  0.74711856  0.69534847  1
  Se  Se241  1  0.08106122  0.24698365  0.18966399  1
  Se  Se242  1  0.09056525  0.24249438  0.68604002  1
  Se  Se243  1  0.09028784  0.57130201  0.19491749  1
  Se  Se244  1  0.08048857  0.58338940  0.69518203  1
  Se  Se245  1  0.08518032  0.91566930  0.20337978  1
  Se  Se246  1  0.07886500  0.91933469  0.69644752  1
  Se  Se247  1  0.41357482  0.25352179  0.19707915  1
  Se  Se248  1  0.41724698  0.25138183  0.70046972  1
  Se  Se249  1  0.41600905  0.58145648  0.19961967  1
  Se  Se250  1  0.41383313  0.58001575  0.70357068  1
  Se  Se251  1  0.42727459  0.91479276  0.18665041  1
  Se  Se252  1  0.42092043  0.91194452  0.68127175  1
  Se  Se253  1  0.74774821  0.25469141  0.19843936  1
  Se  Se254  1  0.77245812  0.24291283  0.70083898  1
  Se  Se255  1  0.75097167  0.57894880  0.19056210  1
  Se  Se256  1  0.74958950  0.57332357  0.67734987  1
  Se  Se257  1  0.74643732  0.92000562  0.20403535  1
  Se  Se258  1  0.74531719  0.91501394  0.69707681  1
