# generated using pymatgen
data_In86Cu29Se144
_symmetry_space_group_name_H-M   'P 1'
_cell_length_a   17.57910608
_cell_length_b   17.57785202
_cell_length_c   23.43971951
_cell_angle_alpha   89.99797658
_cell_angle_beta   90.01200284
_cell_angle_gamma   89.99213951
_symmetry_Int_Tables_number   1
_chemical_formula_structural   In86Cu29Se144
_chemical_formula_sum   'In86 Cu29 Se144'
_cell_volume   7242.94166366
_cell_formula_units_Z   1
loop_
 _symmetry_equiv_pos_site_id
 _symmetry_equiv_pos_as_xyz
  1  'x, y, z'
loop_
 _atom_site_type_symbol
 _atom_site_label
 _atom_site_symmetry_multiplicity
 _atom_site_fract_x
 _atom_site_fract_y
 _atom_site_fract_z
 _atom_site_occupancy
  In  In0  1  -0.00845814  0.15825676  0.12900138  1
  In  In1  1  0.00314743  0.17551385  0.61734089  1
  In  In2  1  0.00021387  0.50601310  0.11379794  1
  In  In3  1  -0.01783141  0.49932817  0.62653489  1
  In  In4  1  0.00190521  0.83535854  0.12426888  1
  In  In5  1  0.00290869  0.84307282  0.62120294  1
  In  In6  1  0.34061135  0.15665550  0.13395389  1
  In  In7  1  0.31797903  0.15905800  0.60742716  1
  In  In8  1  0.33502691  0.49607297  0.11877655  1
  In  In9  1  0.34153419  0.50528086  0.62880636  1
  In  In10  1  0.33975530  0.83596195  0.12596007  1
  In  In11  1  0.35031223  0.82895007  0.63109108  1
  In  In12  1  0.66064638  0.17065136  0.13698703  1
  In  In13  1  0.67409895  0.17497822  0.61117022  1
  In  In14  1  0.66710856  0.49603673  0.12148835  1
  In  In15  1  0.66566632  0.48762364  0.62662166  1
  In  In16  1  0.66769284  0.82926830  0.12848855  1
  In  In17  1  0.66284557  0.83286978  0.61625597  1
  In  In18  1  0.18248232  0.01006535  0.36194562  1
  In  In19  1  0.17089489  -0.01251352  0.87832390  1
  In  In20  1  0.17016494  0.32083628  0.38212926  1
  In  In21  1  0.16717069  0.34824976  0.86880103  1
  In  In22  1  0.16964371  0.68403368  0.36952216  1
  In  In23  1  0.17689260  0.65952254  0.87935305  1
  In  In24  1  0.50124845  0.00199865  0.37266927  1
  In  In25  1  0.49411402  -0.00324989  0.87906020  1
  In  In26  1  0.48897575  0.32452146  0.36768668  1
  In  In27  1  0.51041778  0.33335309  0.87302304  1
  In  In28  1  0.51270473  0.66311966  0.37290797  1
  In  In29  1  0.49753381  0.67118858  0.88747514  1
  In  In30  1  0.82771103  -0.00150420  0.37275349  1
  In  In31  1  0.82871445  -0.00430338  0.87863904  1
  In  In32  1  0.82165601  0.34365018  0.38016672  1
  In  In33  1  0.83440722  0.33697868  0.86811815  1
  In  In34  1  0.81891882  0.67941949  0.38034352  1
  In  In35  1  0.82955407  0.65975706  0.88874261  1
  In  In36  1  0.00597117  0.15738369  0.38334930  1
  In  In37  1  -0.00989148  0.16788123  0.86584474  1
  In  In38  1  -0.00253411  0.48763737  0.37624089  1
  In  In39  1  0.00383402  0.49756559  0.87678828  1
  In  In40  1  -0.00999772  0.83159506  0.37021489  1
  In  In41  1  0.00307777  0.83320273  0.88294412  1
  In  In42  1  0.33598603  0.17125497  0.38131254  1
  In  In43  1  0.33790340  0.15745306  0.86520914  1
  In  In44  1  0.35048229  0.49964448  0.37050196  1
  In  In45  1  0.32360219  0.50763026  0.87941009  1
  In  In46  1  0.33563078  0.84409082  0.37233747  1
  In  In47  1  0.33900741  0.82954855  0.87903787  1
  In  In48  1  0.66336442  0.16857115  0.37486843  1
  In  In49  1  0.65630000  0.17152349  0.87246479  1
  In  In50  1  0.67147406  0.50794884  0.36520026  1
  In  In51  1  0.68025889  0.48503935  0.90176827  1
  In  In52  1  0.65894971  0.83689105  0.36850754  1
  In  In53  1  0.67419807  0.82120763  0.89918851  1
  In  In54  1  0.18279291  -0.02309549  0.14550788  1
  In  In55  1  0.17525002  0.02091806  0.62185772  1
  In  In56  1  0.17057375  0.34663598  0.12101678  1
  In  In57  1  0.16383867  0.30315523  0.62751144  1
  In  In58  1  0.16990510  0.66691924  0.11592971  1
  In  In59  1  0.17832019  0.67773876  0.62753869  1
  In  In60  1  0.52166046  -0.03108855  0.15916649  1
  In  In61  1  0.48898837  -0.00682967  0.61723281  1
  In  In62  1  0.50058487  0.33418466  0.12558144  1
  In  In63  1  0.51045265  0.33869258  0.62278442  1
  In  In64  1  0.52659511  0.68293815  0.10648714  1
  In  In65  1  0.48931272  0.67332113  0.62623757  1
  In  In66  1  0.84503605  -0.01168331  0.13703559  1
  In  In67  1  0.82608009  -0.00491866  0.61111325  1
  In  In68  1  0.82201578  0.33821467  0.12533431  1
  In  In69  1  0.82887591  0.33404665  0.62276128  1
  In  In70  1  0.81278927  0.65446559  0.11010452  1
  In  In71  1  0.83335217  0.66640139  0.61671317  1
  In  In72  1  0.66203496  0.66434455  0.76724730  1
  In  In73  1  0.83195412  0.16406825  -0.00159167  1
  In  In74  1  0.49800414  0.16586363  0.00815315  1
  In  In75  1  0.16817745  0.83906739  0.49410327  1
  In  In76  1  0.34488242  0.66671990  0.24294916  1
  In  In77  1  0.50380241  0.50114409  0.50177353  1
  In  In78  1  0.00904099  0.01033780  0.74133297  1
  In  In79  1  0.65961697  0.00153481  0.75310079  1
  In  In80  1  0.00113616  0.32643298  0.25141501  1
  In  In81  1  0.16387401  0.49856006  0.50543377  1
  In  In82  1  0.16250299  0.16392639  -0.00222554  1
  In  In83  1  0.33088895  0.33014415  0.74224301  1
  In  In84  1  0.00469793  0.66647772  0.75998887  1
  In  In85  1  -0.00658759  0.66861233  0.24795683  1
  Cu  Cu86  1  0.32992405  0.33248680  -0.00199181  1
  Cu  Cu87  1  -0.00905862  0.33047371  0.50110507  1
  Cu  Cu88  1  0.67124433  0.66806995  0.49430710  1
  Cu  Cu89  1  0.83050797  0.50381838  0.24733112  1
  Cu  Cu90  1  0.50194417  0.16622207  0.74470592  1
  Cu  Cu91  1  -0.00396513  0.66179215  0.49479411  1
  Cu  Cu92  1  -0.00521984  0.67145588  0.00005185  1
  Cu  Cu93  1  0.16297018  0.50076762  0.75249173  1
  Cu  Cu94  1  0.33118573  0.66419059  0.00157262  1
  Cu  Cu95  1  0.66608278  0.33526205  0.49669070  1
  Cu  Cu96  1  0.83006614  0.16518906  0.25455898  1
  Cu  Cu97  1  0.33388785  0.00216843  0.49398429  1
  Cu  Cu98  1  0.17757356  0.49807344  0.24479557  1
  Cu  Cu99  1  0.49892112  0.50317676  0.75298940  1
  Cu  Cu100  1  0.18774659  0.83928681  0.75197083  1
  Cu  Cu101  1  0.16938288  0.16778939  0.25704668  1
  Cu  Cu102  1  0.50562437  0.49588543  0.24312872  1
  Cu  Cu103  1  0.00739632  -0.00875232  0.00832707  1
  Cu  Cu104  1  0.82948001  0.17644173  0.74020801  1
  Cu  Cu105  1  0.66819826  -0.00259103  0.01411138  1
  Cu  Cu106  1  0.49890158  0.83289234  0.75693990  1
  Cu  Cu107  1  0.83888329  0.83577489  0.74939248  1
  Cu  Cu108  1  0.66192601  -0.00107865  0.49049065  1
  Cu  Cu109  1  0.33823095  -0.01077541  0.00699722  1
  Cu  Cu110  1  -0.00659695  -0.00351666  0.49670589  1
  Cu  Cu111  1  0.49657237  0.17003415  0.25793069  1
  Cu  Cu112  1  0.82428714  0.82962435  0.24946461  1
  Cu  Cu113  1  -0.00313519  0.34072175  -0.00462753  1
  Cu  Cu114  1  0.82015080  0.49405594  0.75046783  1
  Se  Se115  1  0.08502166  0.07491283  0.06615291  1
  Se  Se116  1  0.07620014  0.07907108  0.55243326  1
  Se  Se117  1  0.08456174  0.41879895  0.04941117  1
  Se  Se118  1  0.07286648  0.40852084  0.56413437  1
  Se  Se119  1  0.08065588  0.75071907  0.05408270  1
  Se  Se120  1  0.07821009  0.74154072  0.55491008  1
  Se  Se121  1  0.42058711  0.06649234  0.06702690  1
  Se  Se122  1  0.41849919  0.08526629  0.54783486  1
  Se  Se123  1  0.41737464  0.40923120  0.05210722  1
  Se  Se124  1  0.40756768  0.41135724  0.55719749  1
  Se  Se125  1  0.41269683  0.74876630  0.05500397  1
  Se  Se126  1  0.42506422  0.75958689  0.55269678  1
  Se  Se127  1  0.74915386  0.08129602  0.06922098  1
  Se  Se128  1  0.74699930  0.08151428  0.54485838  1
  Se  Se129  1  0.76048342  0.42415771  0.05162781  1
  Se  Se130  1  0.74843355  0.41936282  0.55172959  1
  Se  Se131  1  0.75374636  0.76403598  0.05285850  1
  Se  Se132  1  0.75176134  0.75246752  0.55133307  1
  Se  Se133  1  0.25685744  0.24790326  0.05957046  1
  Se  Se134  1  0.24947359  0.26023773  0.54608176  1
  Se  Se135  1  0.24742369  0.57647581  0.05113170  1
  Se  Se136  1  0.25981128  0.59313257  0.55679265  1
  Se  Se137  1  0.24635599  0.91253633  0.05823318  1
  Se  Se138  1  0.25751795  0.92162760  0.56003151  1
  Se  Se139  1  0.59746276  0.25594834  0.05627645  1
  Se  Se140  1  0.57962759  0.25377556  0.54826848  1
  Se  Se141  1  0.57600463  0.56714881  0.05138926  1
  Se  Se142  1  0.59343618  0.59356913  0.56280260  1
  Se  Se143  1  0.57870747  0.91884076  0.06454316  1
  Se  Se144  1  0.58160474  0.91826941  0.55067440  1
  Se  Se145  1  0.92474769  0.25628045  0.05784226  1
  Se  Se146  1  0.90620387  0.24643674  0.55288481  1
  Se  Se147  1  0.91163745  0.58167510  0.04689458  1
  Se  Se148  1  0.91358055  0.57991954  0.54942843  1
  Se  Se149  1  0.91293928  0.91466494  0.05561947  1
  Se  Se150  1  0.91408620  0.90871443  0.54897816  1
  Se  Se151  1  0.07986505  0.24983086  0.45079457  1
  Se  Se152  1  0.07440391  0.25639841  0.93642691  1
  Se  Se153  1  0.08236288  0.59058499  0.43470231  1
  Se  Se154  1  0.07799332  0.58923967  0.94305721  1
  Se  Se155  1  0.07804899  0.92546309  0.43317241  1
  Se  Se156  1  0.09015112  0.91220313  0.95092251  1
  Se  Se157  1  0.41731240  0.25774305  0.44799995  1
  Se  Se158  1  0.40841558  0.24894114  0.93886353  1
  Se  Se159  1  0.41331434  0.59359477  0.44375815  1
  Se  Se160  1  0.41339345  0.57896140  0.94890808  1
  Se  Se161  1  0.41896034  0.91834490  0.44425771  1
  Se  Se162  1  0.42282807  0.91071293  0.95052875  1
  Se  Se163  1  0.74922457  0.24882930  0.44548548  1
  Se  Se164  1  0.74296507  0.25456018  0.94017677  1
  Se  Se165  1  0.75044683  0.57802358  0.44398083  1
  Se  Se166  1  0.72514879  0.60589073  0.95298073  1
  Se  Se167  1  0.74588908  0.91239096  0.44073345  1
  Se  Se168  1  0.75417663  0.92195566  0.95501532  1
  Se  Se169  1  0.24528896  0.08448808  0.44486670  1
  Se  Se170  1  0.26446398  0.07519041  0.94584324  1
  Se  Se171  1  0.25610942  0.42057844  0.43923066  1
  Se  Se172  1  0.24524254  0.41626358  0.94634989  1
  Se  Se173  1  0.26271879  0.74417486  0.44379280  1
  Se  Se174  1  0.25028069  0.75042027  0.94698072  1
  Se  Se175  1  0.57825113  0.08805835  0.44403665  1
  Se  Se176  1  0.59351101  0.07482029  0.94685928  1
  Se  Se177  1  0.58733352  0.41572226  0.43454971  1
  Se  Se178  1  0.57197574  0.41142241  0.95202722  1
  Se  Se179  1  0.58522631  0.75041221  0.44366168  1
  Se  Se180  1  0.57596976  0.75202175  0.95922225  1
  Se  Se181  1  0.90950371  0.08077574  0.44475252  1
  Se  Se182  1  0.93129671  0.07223427  0.94388560  1
  Se  Se183  1  0.91262385  0.41913607  0.44933986  1
  Se  Se184  1  0.91099365  0.41937091  0.94105786  1
  Se  Se185  1  0.91609673  0.75154623  0.44470686  1
  Se  Se186  1  0.91215988  0.75530032  0.94704203  1
  Se  Se187  1  0.25297001  0.25251163  0.30745302  1
  Se  Se188  1  0.24216666  0.24419798  0.80726424  1
  Se  Se189  1  0.24829738  0.58172510  0.30814602  1
  Se  Se190  1  0.25005946  0.58372318  0.80112330  1
  Se  Se191  1  0.24255692  0.90436810  0.30128495  1
  Se  Se192  1  0.26502829  0.92261597  0.80871798  1
  Se  Se193  1  0.58708357  0.25533314  0.30303444  1
  Se  Se194  1  0.58276938  0.25109212  0.79781996  1
  Se  Se195  1  0.58385127  0.58425751  0.29620749  1
  Se  Se196  1  0.57669226  0.56949370  0.82307718  1
  Se  Se197  1  0.58037296  0.92249036  0.29998274  1
  Se  Se198  1  0.58759960  0.90271817  0.81838898  1
  Se  Se199  1  0.91022191  0.24589708  0.31593932  1
  Se  Se200  1  0.91419863  0.25357107  0.79757186  1
  Se  Se201  1  0.90959165  0.57822060  0.31225625  1
  Se  Se202  1  0.90200810  0.57780549  0.80832888  1
  Se  Se203  1  0.90849057  0.91341800  0.30172442  1
  Se  Se204  1  0.92017250  0.91806469  0.80618419  1
  Se  Se205  1  0.07947160  0.08543196  0.30421394  1
  Se  Se206  1  0.09617397  0.08818972  0.81148313  1
  Se  Se207  1  0.09600996  0.42018924  0.30665471  1
  Se  Se208  1  0.07468555  0.41750082  0.79928975  1
  Se  Se209  1  0.08861082  0.76401928  0.29788608  1
  Se  Se210  1  0.09824784  0.76347765  0.80938274  1
  Se  Se211  1  0.41131613  0.08660518  0.30900482  1
  Se  Se212  1  0.42763052  0.07873696  0.80064930  1
  Se  Se213  1  0.41812046  0.41636857  0.29591046  1
  Se  Se214  1  0.41410302  0.41874610  0.80902409  1
  Se  Se215  1  0.42663542  0.75517764  0.30859088  1
  Se  Se216  1  0.42005202  0.74435152  0.80914430  1
  Se  Se217  1  0.74402557  0.08275951  0.30542559  1
  Se  Se218  1  0.75926745  0.09371089  0.80699274  1
  Se  Se219  1  0.75053870  0.41562697  0.29955371  1
  Se  Se220  1  0.73694531  0.41992556  0.81060768  1
  Se  Se221  1  0.74098529  0.74569078  0.30186892  1
  Se  Se222  1  0.76112914  0.76088006  0.81425474  1
  Se  Se223  1  0.25125732  0.08322020  0.20275248  1
  Se  Se224  1  0.25793141  0.09185349  0.69409888  1
  Se  Se225  1  0.25921035  0.41311488  0.19388266  1
  Se  Se226  1  0.23680590  0.42224700  0.68513622  1
  Se  Se227  1  0.24218941  0.75111331  0.19100174  1
  Se  Se228  1  0.26289146  0.74877689  0.69955176  1
  Se  Se229  1  0.58324502  0.08695697  0.20700910  1
  Se  Se230  1  0.58209982  0.08716111  0.68248061  1
  Se  Se231  1  0.59063373  0.40974108  0.19378438  1
  Se  Se232  1  0.58092535  0.41823095  0.70046694  1
  Se  Se233  1  0.57879104  0.75004705  0.19527965  1
  Se  Se234  1  0.58336720  0.75525280  0.69725149  1
  Se  Se235  1  0.91740305  0.08266014  0.20472879  1
  Se  Se236  1  0.90307497  0.08505577  0.68439196  1
  Se  Se237  1  0.91900668  0.42560899  0.19182021  1
  Se  Se238  1  0.90773270  0.41537590  0.69747435  1
  Se  Se239  1  0.90122308  0.74935358  0.18510385  1
  Se  Se240  1  0.91790919  0.75386797  0.69128642  1
  Se  Se241  1  0.09437307  0.24307081  0.18788986  1
  Se  Se242  1  0.07324067  0.24253612  0.69963223  1
  Se  Se243  1  0.09018664  0.57690335  0.19093122  1
  Se  Se244  1  0.08690633  0.58231150  0.68790034  1
  Se  Se245  1  0.06342327  0.92767546  0.19672545  1
  Se  Se246  1  0.10205472  0.91070399  0.68949757  1
  Se  Se247  1  0.41923008  0.25023632  0.19560698  1
  Se  Se248  1  0.42190236  0.24325388  0.68243639  1
  Se  Se249  1  0.43146654  0.57941318  0.18050201  1
  Se  Se250  1  0.41832041  0.58771592  0.70012001  1
  Se  Se251  1  0.39610182  0.92492708  0.20340825  1
  Se  Se252  1  0.42315046  0.91967309  0.70053747  1
  Se  Se253  1  0.75393947  0.25220604  0.19886390  1
  Se  Se254  1  0.73906017  0.25507299  0.69098112  1
  Se  Se255  1  0.74576667  0.58379502  0.19291981  1
  Se  Se256  1  0.74944918  0.58591900  0.69318186  1
  Se  Se257  1  0.74395654  0.91981957  0.19898719  1
  Se  Se258  1  0.75283715  0.91137639  0.69214102  1
