# generated using pymatgen
data_In86Cu29Se144
_symmetry_space_group_name_H-M   'P 1'
_cell_length_a   17.58544214
_cell_length_b   17.58822093
_cell_length_c   23.45543914
_cell_angle_alpha   90.00029500
_cell_angle_beta   89.99766588
_cell_angle_gamma   90.01824159
_symmetry_Int_Tables_number   1
_chemical_formula_structural   In86Cu29Se144
_chemical_formula_sum   'In86 Cu29 Se144'
_cell_volume   7254.68817922
_cell_formula_units_Z   1
loop_
 _symmetry_equiv_pos_site_id
 _symmetry_equiv_pos_as_xyz
  1  'x, y, z'
loop_
 _atom_site_type_symbol
 _atom_site_label
 _atom_site_symmetry_multiplicity
 _atom_site_fract_x
 _atom_site_fract_y
 _atom_site_fract_z
 _atom_site_occupancy
  In  In0  1  0.01231472  0.17467437  0.11554614  1
  In  In1  1  0.00979790  0.14553141  0.62568197  1
  In  In2  1  -0.00045403  0.50651605  0.13348105  1
  In  In3  1  0.02306754  0.50233393  0.62318668  1
  In  In4  1  -0.00511988  0.82650334  0.12597797  1
  In  In5  1  -0.00333921  0.83527105  0.62189197  1
  In  In6  1  0.33090396  0.17514594  0.12173717  1
  In  In7  1  0.32021496  0.17594047  0.63726463  1
  In  In8  1  0.33354934  0.49965368  0.12141803  1
  In  In9  1  0.28304283  0.52682939  0.66709552  1
  In  In10  1  0.31546532  0.82418941  0.10385040  1
  In  In11  1  0.32952334  0.83499240  0.63123402  1
  In  In12  1  0.66391065  0.14731747  0.12351748  1
  In  In13  1  0.65864048  0.15898843  0.63017980  1
  In  In14  1  0.66221261  0.51893792  0.12420766  1
  In  In15  1  0.66811353  0.51526118  0.62500032  1
  In  In16  1  0.66772741  0.83930993  0.13108157  1
  In  In17  1  0.66961406  0.82789460  0.63125686  1
  In  In18  1  0.16263453  -0.00018035  0.39238385  1
  In  In19  1  0.17182992  -0.00675821  0.88319682  1
  In  In20  1  0.17083359  0.33388870  0.37021898  1
  In  In21  1  0.16414456  0.32340572  0.86950541  1
  In  In22  1  0.17007844  0.67060074  0.37895584  1
  In  In23  1  0.18969385  0.68761724  0.85508956  1
  In  In24  1  0.51005630  -0.01547452  0.37228282  1
  In  In25  1  0.47673748  -0.03062251  0.87323775  1
  In  In26  1  0.49558922  0.35055898  0.36933234  1
  In  In27  1  0.49407804  0.34687750  0.88341595  1
  In  In28  1  0.49706907  0.66624236  0.36426525  1
  In  In29  1  0.49509981  0.66463613  0.87988564  1
  In  In30  1  0.83012414  0.00104069  0.37117636  1
  In  In31  1  0.84208654  0.00750955  0.86830613  1
  In  In32  1  0.84185259  0.31572485  0.36917010  1
  In  In33  1  0.82478191  0.32620632  0.87761269  1
  In  In34  1  0.85291591  0.68427610  0.35941624  1
  In  In35  1  0.83744106  0.67730354  0.86685260  1
  In  In36  1  0.00138147  0.17438126  0.36982446  1
  In  In37  1  0.03007304  0.13366241  0.90585895  1
  In  In38  1  0.01756022  0.50954685  0.37077209  1
  In  In39  1  0.00630793  0.50853639  0.86605431  1
  In  In40  1  0.01494512  0.82468076  0.38725156  1
  In  In41  1  0.01591689  0.84750431  0.86873388  1
  In  In42  1  0.31970363  0.16730550  0.37182651  1
  In  In43  1  0.31309433  0.14496800  0.86912564  1
  In  In44  1  0.33086486  0.50078372  0.36794300  1
  In  In45  1  0.34267334  0.51235538  0.86042834  1
  In  In46  1  0.32739318  0.82525034  0.37585410  1
  In  In47  1  0.32964657  0.82976335  0.88378722  1
  In  In48  1  0.68137443  0.15686248  0.36994434  1
  In  In49  1  0.68015148  0.15838421  0.88280747  1
  In  In50  1  0.65389392  0.51501874  0.37188088  1
  In  In51  1  0.65111054  0.50257216  0.87907522  1
  In  In52  1  0.67619821  0.83659968  0.36276565  1
  In  In53  1  0.66004781  0.82344212  0.86804452  1
  In  In54  1  0.15971729  -0.00187169  0.10153037  1
  In  In55  1  0.16186322  -0.00022890  0.62412287  1
  In  In56  1  0.16734898  0.33864024  0.12634613  1
  In  In57  1  0.17838821  0.33986208  0.61581266  1
  In  In58  1  0.16916766  0.66793681  0.12786850  1
  In  In59  1  0.16285511  0.67003241  0.62983107  1
  In  In60  1  0.50765043  -0.00571846  0.12322441  1
  In  In61  1  0.50323681  -0.00767184  0.64139548  1
  In  In62  1  0.47868571  0.33140796  0.12579551  1
  In  In63  1  0.47740722  0.33290282  0.62798066  1
  In  In64  1  0.49409820  0.67579585  0.11629330  1
  In  In65  1  0.48809442  0.67226586  0.63229899  1
  In  In66  1  0.82329841  -0.00820918  0.12163299  1
  In  In67  1  0.85420302  -0.02377268  0.64174767  1
  In  In68  1  0.84546450  0.33363188  0.12804822  1
  In  In69  1  0.83770434  0.33147402  0.62406178  1
  In  In70  1  0.83467343  0.67991675  0.14129774  1
  In  In71  1  0.82355006  0.68107239  0.62674609  1
  In  In72  1  0.33559896  0.00187153  0.24449027  1
  In  In73  1  0.83401771  0.49934272  0.00624105  1
  In  In74  1  0.84441683  0.15349603  0.50153670  1
  In  In75  1  0.17283704  0.50407901  -0.00293230  1
  In  In76  1  0.48815155  0.50460083  0.49735834  1
  In  In77  1  0.65944272  0.33568232  0.75833361  1
  In  In78  1  0.83604986  0.83769820  0.00232179  1
  In  In79  1  0.49296347  0.16692054  0.50477450  1
  In  In80  1  0.49035795  0.83139046  0.50782413  1
  In  In81  1  0.49692385  0.16269660  -0.00209446  1
  In  In82  1  0.84495657  0.50915510  0.48527060  1
  In  In83  1  -0.00302315  0.32919012  0.75084943  1
  In  In84  1  0.66686282  0.33499545  0.25498233  1
  In  In85  1  0.00083272  -0.00632005  0.24787874  1
  Cu  Cu86  1  -0.00725269  0.33357511  -0.00137125  1
  Cu  Cu87  1  0.16537840  0.16826870  0.24430318  1
  Cu  Cu88  1  0.17337445  0.83134030  0.25112194  1
  Cu  Cu89  1  0.50199427  0.15910580  0.75923747  1
  Cu  Cu90  1  0.32764754  0.33696526  0.49861921  1
  Cu  Cu91  1  0.49331232  0.50350675  0.24184578  1
  Cu  Cu92  1  0.67333152  0.33662435  0.50644080  1
  Cu  Cu93  1  0.66848935  -0.00041943  -0.00401289  1
  Cu  Cu94  1  0.83559974  0.15924049  0.24630086  1
  Cu  Cu95  1  0.66545270  0.68295246  0.49777622  1
  Cu  Cu96  1  0.15881747  0.15812815  0.75425153  1
  Cu  Cu97  1  0.49313568  0.82851112  0.75629442  1
  Cu  Cu98  1  0.16513910  0.84056025  0.74913535  1
  Cu  Cu99  1  0.66608094  0.66306328  -0.00245316  1
  Cu  Cu100  1  0.49868428  0.16366868  0.24478600  1
  Cu  Cu101  1  0.83169869  0.51313304  0.74748548  1
  Cu  Cu102  1  0.83210901  0.83591268  0.75004252  1
  Cu  Cu103  1  0.49942024  0.82839008  0.24470535  1
  Cu  Cu104  1  0.33018741  0.00489229  0.50907402  1
  Cu  Cu105  1  0.01582003  0.32805439  0.49492511  1
  Cu  Cu106  1  0.32736836  0.33345318  -0.00101784  1
  Cu  Cu107  1  0.66403895  0.33000471  0.00176862  1
  Cu  Cu108  1  0.83542110  0.16432082  0.75598087  1
  Cu  Cu109  1  0.50106835  0.50217989  0.75453234  1
  Cu  Cu110  1  0.16900324  0.50279131  0.25114222  1
  Cu  Cu111  1  0.67367094  -0.00212366  0.49865311  1
  Cu  Cu112  1  0.00151284  0.66510221  0.50101029  1
  Cu  Cu113  1  0.83826501  0.49865566  0.25024046  1
  Cu  Cu114  1  0.00671403  0.67166892  0.00323599  1
  Se  Se115  1  0.08084602  0.09167873  0.04091181  1
  Se  Se116  1  0.08841346  0.08117815  0.54889914  1
  Se  Se117  1  0.07242384  0.41968860  0.05632961  1
  Se  Se118  1  0.09128111  0.41843546  0.54772423  1
  Se  Se119  1  0.08695154  0.75298433  0.05910985  1
  Se  Se120  1  0.08097179  0.74813940  0.55739467  1
  Se  Se121  1  0.40964415  0.07479321  0.06026101  1
  Se  Se122  1  0.41412740  0.07677948  0.57087256  1
  Se  Se123  1  0.41357856  0.41550651  0.05003392  1
  Se  Se124  1  0.39935259  0.42005240  0.56043805  1
  Se  Se125  1  0.43180450  0.77393686  0.04633985  1
  Se  Se126  1  0.39728454  0.73645726  0.55740981  1
  Se  Se127  1  0.75129217  0.08143588  0.04998091  1
  Se  Se128  1  0.74842189  0.07563243  0.56427572  1
  Se  Se129  1  0.74059601  0.41027139  0.06544382  1
  Se  Se130  1  0.75374805  0.42317451  0.55784748  1
  Se  Se131  1  0.74834049  0.74040908  0.05881081  1
  Se  Se132  1  0.74999174  0.76254633  0.55162621  1
  Se  Se133  1  0.24417628  0.25417623  0.05438380  1
  Se  Se134  1  0.25443549  0.24365753  0.55169654  1
  Se  Se135  1  0.26176719  0.59741240  0.05319932  1
  Se  Se136  1  0.24562775  0.57602844  0.56865924  1
  Se  Se137  1  0.24680563  0.91803814  0.03835509  1
  Se  Se138  1  0.25143380  0.91550819  0.55919361  1
  Se  Se139  1  0.58372529  0.25257553  0.06476267  1
  Se  Se140  1  0.58706655  0.26071428  0.56299587  1
  Se  Se141  1  0.57757387  0.58470973  0.04993601  1
  Se  Se142  1  0.58381475  0.59840786  0.55475702  1
  Se  Se143  1  0.59249492  0.91537761  0.05398198  1
  Se  Se144  1  0.58721029  0.92493682  0.55972012  1
  Se  Se145  1  0.91276575  0.25030261  0.05321740  1
  Se  Se146  1  0.93140432  0.25476403  0.55752995  1
  Se  Se147  1  0.91967796  0.59776366  0.06208384  1
  Se  Se148  1  0.91953245  0.58696734  0.56310525  1
  Se  Se149  1  0.93024353  0.92827142  0.05604696  1
  Se  Se150  1  0.91252980  0.91759357  0.55335858  1
  Se  Se151  1  0.09273153  0.24356130  0.43927509  1
  Se  Se152  1  0.08580292  0.25805827  0.94906074  1
  Se  Se153  1  0.08782255  0.58406780  0.44894825  1
  Se  Se154  1  0.08051431  0.59277165  0.93943191  1
  Se  Se155  1  0.08322207  0.91485877  0.45702729  1
  Se  Se156  1  0.08334390  0.91309381  0.95097488  1
  Se  Se157  1  0.41360663  0.26065312  0.43818716  1
  Se  Se158  1  0.40446771  0.24925394  0.93809804  1
  Se  Se159  1  0.40450056  0.59853782  0.43796520  1
  Se  Se160  1  0.41873521  0.56890553  0.94296473  1
  Se  Se161  1  0.40877286  0.92871744  0.44386624  1
  Se  Se162  1  0.42307843  0.89530272  0.95865518  1
  Se  Se163  1  0.74750360  0.25110974  0.44592572  1
  Se  Se164  1  0.75074588  0.24835861  0.95337675  1
  Se  Se165  1  0.74172921  0.59743126  0.43907271  1
  Se  Se166  1  0.75227820  0.58810864  0.93939318  1
  Se  Se167  1  0.74899650  0.91613406  0.43965721  1
  Se  Se168  1  0.74663410  0.91759608  0.93464897  1
  Se  Se169  1  0.25409179  0.08768980  0.44982585  1
  Se  Se170  1  0.24613653  0.08398867  0.95339409  1
  Se  Se171  1  0.25119682  0.41986204  0.43947919  1
  Se  Se172  1  0.25471983  0.41272986  0.93309529  1
  Se  Se173  1  0.24106013  0.76223091  0.44883637  1
  Se  Se174  1  0.24328791  0.74187967  0.94668952  1
  Se  Se175  1  0.59047452  0.07986717  0.44269404  1
  Se  Se176  1  0.57996399  0.07004410  0.93584089  1
  Se  Se177  1  0.59201762  0.41317648  0.44483236  1
  Se  Se178  1  0.58260208  0.41839607  0.95386165  1
  Se  Se179  1  0.57884564  0.75451605  0.43695642  1
  Se  Se180  1  0.58557623  0.74781190  0.94444473  1
  Se  Se181  1  0.93227227  0.07210942  0.43586961  1
  Se  Se182  1  0.89906017  0.09555962  0.94508271  1
  Se  Se183  1  0.92836660  0.40316482  0.43495414  1
  Se  Se184  1  0.92184821  0.41790171  0.93741878  1
  Se  Se185  1  0.91477089  0.74621718  0.44796820  1
  Se  Se186  1  0.92571255  0.74866586  0.94107574  1
  Se  Se187  1  0.25091604  0.25030332  0.29720530  1
  Se  Se188  1  0.24749455  0.24234948  0.80117529  1
  Se  Se189  1  0.24877102  0.58973439  0.30436464  1
  Se  Se190  1  0.24120148  0.57457950  0.79571572  1
  Se  Se191  1  0.24327303  0.92215864  0.31040842  1
  Se  Se192  1  0.25070150  0.91246685  0.81060023  1
  Se  Se193  1  0.57565189  0.24022069  0.31311998  1
  Se  Se194  1  0.57713190  0.24288298  0.82157110  1
  Se  Se195  1  0.57937284  0.58536160  0.29360231  1
  Se  Se196  1  0.58308766  0.58777675  0.80604316  1
  Se  Se197  1  0.58547372  0.91456804  0.29472247  1
  Se  Se198  1  0.58001406  0.91541060  0.80464050  1
  Se  Se199  1  0.92163685  0.24626407  0.29295632  1
  Se  Se200  1  0.91667671  0.24071859  0.81684473  1
  Se  Se201  1  0.92413978  0.58013917  0.30259757  1
  Se  Se202  1  0.91920042  0.58977018  0.80127054  1
  Se  Se203  1  0.92155302  0.90718029  0.31562163  1
  Se  Se204  1  0.91829826  0.91703084  0.80259616  1
  Se  Se205  1  0.09471409  0.08334884  0.30714479  1
  Se  Se206  1  0.08299466  0.07467755  0.81325803  1
  Se  Se207  1  0.08573578  0.41595501  0.30171109  1
  Se  Se208  1  0.09355071  0.42251535  0.80141206  1
  Se  Se209  1  0.08824100  0.75320769  0.30707697  1
  Se  Se210  1  0.08006062  0.75227229  0.79881448  1
  Se  Se211  1  0.42544151  0.08637889  0.31300717  1
  Se  Se212  1  0.41567247  0.07487913  0.80913485  1
  Se  Se213  1  0.41195928  0.41881593  0.29571196  1
  Se  Se214  1  0.41934722  0.41091408  0.80140823  1
  Se  Se215  1  0.41255590  0.75507983  0.30226579  1
  Se  Se216  1  0.41111895  0.74743053  0.81180452  1
  Se  Se217  1  0.74947262  0.07471166  0.29479740  1
  Se  Se218  1  0.74517216  0.08130895  0.80251305  1
  Se  Se219  1  0.75819508  0.42501401  0.31574504  1
  Se  Se220  1  0.75666227  0.42989335  0.81027569  1
  Se  Se221  1  0.73151681  0.72413002  0.30678412  1
  Se  Se222  1  0.74693664  0.74813737  0.79792780  1
  Se  Se223  1  0.23810506  0.08259438  0.18308037  1
  Se  Se224  1  0.24449191  0.07897505  0.69803357  1
  Se  Se225  1  0.25060818  0.42209658  0.19312046  1
  Se  Se226  1  0.26333912  0.38804388  0.69744685  1
  Se  Se227  1  0.25724139  0.75550432  0.19175628  1
  Se  Se228  1  0.24837060  0.75180694  0.70036367  1
  Se  Se229  1  0.58244981  0.07638893  0.19827268  1
  Se  Se230  1  0.58766049  0.07990162  0.70534566  1
  Se  Se231  1  0.57871397  0.41778872  0.18774527  1
  Se  Se232  1  0.57798072  0.42292831  0.68765348  1
  Se  Se233  1  0.58260941  0.74674040  0.18989407  1
  Se  Se234  1  0.57727026  0.75158082  0.69697492  1
  Se  Se235  1  0.91794813  0.08520473  0.18348951  1
  Se  Se236  1  0.91922519  0.08443674  0.70003165  1
  Se  Se237  1  0.92190659  0.41500216  0.19890164  1
  Se  Se238  1  0.91069299  0.42797308  0.68998458  1
  Se  Se239  1  0.92582234  0.75434722  0.20555424  1
  Se  Se240  1  0.91481755  0.75339441  0.69491043  1
  Se  Se241  1  0.08203852  0.25360227  0.19309413  1
  Se  Se242  1  0.08871363  0.24436767  0.68868853  1
  Se  Se243  1  0.08624625  0.58812953  0.19790964  1
  Se  Se244  1  0.08331999  0.58348104  0.70061651  1
  Se  Se245  1  0.09866929  0.91320526  0.18711181  1
  Se  Se246  1  0.07862471  0.91789527  0.69370465  1
  Se  Se247  1  0.40927234  0.24666930  0.19985829  1
  Se  Se248  1  0.42201355  0.24118167  0.70273150  1
  Se  Se249  1  0.41535534  0.58848319  0.18627895  1
  Se  Se250  1  0.41506083  0.58195117  0.70044769  1
  Se  Se251  1  0.41562855  0.90578570  0.18468812  1
  Se  Se252  1  0.41090664  0.91430512  0.70347074  1
  Se  Se253  1  0.75004833  0.24265361  0.19039484  1
  Se  Se254  1  0.75515828  0.24811964  0.69650077  1
  Se  Se255  1  0.75419726  0.57965982  0.19666069  1
  Se  Se256  1  0.74405533  0.59422538  0.69710032  1
  Se  Se257  1  0.77144884  0.89874192  0.19576789  1
  Se  Se258  1  0.74301863  0.91905698  0.70021000  1
