# generated using pymatgen
data_In86Cu29Se144
_symmetry_space_group_name_H-M   'P 1'
_cell_length_a   17.58561456
_cell_length_b   17.58447595
_cell_length_c   23.43221819
_cell_angle_alpha   90.01928794
_cell_angle_beta   89.98845473
_cell_angle_gamma   89.98991448
_symmetry_Int_Tables_number   1
_chemical_formula_structural   In86Cu29Se144
_chemical_formula_sum   'In86 Cu29 Se144'
_cell_volume   7246.03358405
_cell_formula_units_Z   1
loop_
 _symmetry_equiv_pos_site_id
 _symmetry_equiv_pos_as_xyz
  1  'x, y, z'
loop_
 _atom_site_type_symbol
 _atom_site_label
 _atom_site_symmetry_multiplicity
 _atom_site_fract_x
 _atom_site_fract_y
 _atom_site_fract_z
 _atom_site_occupancy
  In  In0  1  0.00116225  0.16579893  0.11221542  1
  In  In1  1  -0.01878464  0.15263859  0.62928497  1
  In  In2  1  0.00514029  0.50925118  0.11531745  1
  In  In3  1  0.00390915  0.50555066  0.63246993  1
  In  In4  1  0.00254206  0.82936591  0.12110685  1
  In  In5  1  -0.00426101  0.82955069  0.63335485  1
  In  In6  1  0.32469920  0.15212899  0.11312141  1
  In  In7  1  0.32849842  0.15838905  0.62933645  1
  In  In8  1  0.33522781  0.51310136  0.11877466  1
  In  In9  1  0.34369991  0.51643895  0.62572707  1
  In  In10  1  0.33039363  0.82859494  0.12230205  1
  In  In11  1  0.32957189  0.83684047  0.63664312  1
  In  In12  1  0.66137243  0.16118429  0.11771138  1
  In  In13  1  0.66270360  0.15825808  0.62666246  1
  In  In14  1  0.65980803  0.49161541  0.11011489  1
  In  In15  1  0.65560746  0.51128764  0.62618820  1
  In  In16  1  0.67636918  0.84640000  0.11949401  1
  In  In17  1  0.67345793  0.83716730  0.62521962  1
  In  In18  1  0.15888106  -0.02164044  0.37220559  1
  In  In19  1  0.17214832  -0.01105963  0.87188088  1
  In  In20  1  0.16408761  0.32953483  0.36524530  1
  In  In21  1  0.16869847  0.33330760  0.88606648  1
  In  In22  1  0.17448122  0.68952407  0.35886524  1
  In  In23  1  0.16674856  0.67492180  0.87150948  1
  In  In24  1  0.50253045  0.00130816  0.36638910  1
  In  In25  1  0.49919967  -0.00521611  0.87591102  1
  In  In26  1  0.51077446  0.33240040  0.36987186  1
  In  In27  1  0.50488056  0.33708338  0.89282646  1
  In  In28  1  0.48307511  0.66765243  0.37562071  1
  In  In29  1  0.49853010  0.66880449  0.88492664  1
  In  In30  1  0.82577207  -0.00110395  0.37362682  1
  In  In31  1  0.83749384  -0.00477160  0.87582547  1
  In  In32  1  0.82497669  0.35063887  0.36536225  1
  In  In33  1  0.81997225  0.34068230  0.89210454  1
  In  In34  1  0.84636186  0.67040834  0.37116694  1
  In  In35  1  0.84228751  0.66875946  0.87329774  1
  In  In36  1  -0.00575218  0.16498011  0.37279340  1
  In  In37  1  0.00751439  0.15629075  0.88440740  1
  In  In38  1  -0.01794373  0.51836733  0.37154853  1
  In  In39  1  -0.01513083  0.52555211  0.87591308  1
  In  In40  1  0.00735873  0.82856209  0.38683187  1
  In  In41  1  0.00522652  0.83431910  0.86781329  1
  In  In42  1  0.34621329  0.15918460  0.36926693  1
  In  In43  1  0.34324872  0.15485703  0.88504194  1
  In  In44  1  0.33019888  0.51592480  0.37341861  1
  In  In45  1  0.33559094  0.50215860  0.88344379  1
  In  In46  1  0.32823119  0.82819140  0.36308559  1
  In  In47  1  0.32898541  0.83419232  0.87074540  1
  In  In48  1  0.65756839  0.16405764  0.36209400  1
  In  In49  1  0.67529324  0.15995481  0.89234277  1
  In  In50  1  0.66980930  0.48964397  0.36956252  1
  In  In51  1  0.66973651  0.50297351  0.88652917  1
  In  In52  1  0.67069295  0.84776258  0.37450662  1
  In  In53  1  0.66359401  0.83580277  0.87848317  1
  In  In54  1  0.16701641  -0.00531136  0.11942557  1
  In  In55  1  0.18158171  -0.03149452  0.65022825  1
  In  In56  1  0.16313962  0.33118275  0.11431134  1
  In  In57  1  0.16123215  0.33435413  0.63398616  1
  In  In58  1  0.17010975  0.67206222  0.12140675  1
  In  In59  1  0.14154327  0.70247982  0.66172630  1
  In  In60  1  0.49797097  -0.00177760  0.11829464  1
  In  In61  1  0.50672637  -0.00719689  0.63698246  1
  In  In62  1  0.51640313  0.33844250  0.11139648  1
  In  In63  1  0.49142076  0.34353937  0.62697330  1
  In  In64  1  0.48778062  0.65981244  0.11843548  1
  In  In65  1  0.49371449  0.64988058  0.62780102  1
  In  In66  1  0.82888112  -0.00973106  0.11730792  1
  In  In67  1  0.85142230  -0.02503550  0.65374027  1
  In  In68  1  0.81002891  0.31650846  0.10094377  1
  In  In69  1  0.83461878  0.32772938  0.62896009  1
  In  In70  1  0.84599394  0.67672125  0.11355949  1
  In  In71  1  0.82656143  0.67942105  0.63488621  1
  In  In72  1  -0.00276086  0.32944910  0.75584224  1
  In  In73  1  0.66767543  0.67048299  0.75910832  1
  In  In74  1  0.66598725  0.33442031  0.76819087  1
  In  In75  1  0.50250746  0.16201035  0.49280255  1
  In  In76  1  -0.00548717  0.34394203  0.24376227  1
  In  In77  1  0.66216587  0.66664841  0.24234357  1
  In  In78  1  0.82768951  0.50590059  0.50313135  1
  In  In79  1  0.00176348  -0.00721436  0.23911562  1
  In  In80  1  0.17414674  0.51870927  0.50096664  1
  In  In81  1  0.33535954  0.33227965  0.76502759  1
  In  In82  1  0.34262244  0.33693361  0.22968541  1
  In  In83  1  0.50263082  0.83350810  0.50141200  1
  In  In84  1  0.82296206  0.15551484  0.49716069  1
  In  In85  1  0.17328478  0.15247004  0.51265242  1
  Cu  Cu86  1  0.82712304  0.49858507  0.23572244  1
  Cu  Cu87  1  0.82133874  0.17060287  0.23940768  1
  Cu  Cu88  1  0.00237196  -0.01521513  0.51192965  1
  Cu  Cu89  1  0.17377141  0.49904839  0.76270006  1
  Cu  Cu90  1  0.50137527  0.49673731  0.24071374  1
  Cu  Cu91  1  0.00879451  0.67268558  -0.00571219  1
  Cu  Cu92  1  0.00151429  -0.00400422  -0.00491258  1
  Cu  Cu93  1  0.83301154  0.83694935  0.24276254  1
  Cu  Cu94  1  0.33144949  -0.00875053  0.50349263  1
  Cu  Cu95  1  0.33624390  0.34841556  0.50245906  1
  Cu  Cu96  1  0.66826964  0.67447010  0.00207980  1
  Cu  Cu97  1  0.17278099  0.16101127  0.24217126  1
  Cu  Cu98  1  0.66337946  0.66926315  0.50388597  1
  Cu  Cu99  1  0.32753993  0.67170834  0.49972029  1
  Cu  Cu100  1  0.82658073  0.16599867  0.76642442  1
  Cu  Cu101  1  0.50507754  0.16227518  0.24038095  1
  Cu  Cu102  1  0.00579425  0.67729021  0.50619861  1
  Cu  Cu103  1  0.00865904  0.33170502  0.49816177  1
  Cu  Cu104  1  0.49800756  0.15841463  0.75816816  1
  Cu  Cu105  1  0.33024267  0.33375719  0.00504744  1
  Cu  Cu106  1  0.33125870  -0.00945886  -0.00324299  1
  Cu  Cu107  1  0.49808588  0.83980327  0.24383624  1
  Cu  Cu108  1  0.32908617  0.66858100  -0.00312411  1
  Cu  Cu109  1  0.66078772  0.33551915  0.49428491  1
  Cu  Cu110  1  0.15998444  0.51559075  0.24291509  1
  Cu  Cu111  1  0.66560019  -0.00141830  -0.00322777  1
  Cu  Cu112  1  0.00196301  0.33860010  -0.00390347  1
  Cu  Cu113  1  0.50035162  0.82882311  0.75714250  1
  Cu  Cu114  1  0.16643019  0.15110870  0.75582046  1
  Se  Se115  1  0.08556090  0.07852682  0.05034025  1
  Se  Se116  1  0.07953041  0.06861392  0.57200399  1
  Se  Se117  1  0.08630462  0.42122898  0.04889593  1
  Se  Se118  1  0.08265690  0.41575687  0.55726906  1
  Se  Se119  1  0.08938383  0.75474712  0.05041673  1
  Se  Se120  1  0.08912676  0.75372092  0.56494375  1
  Se  Se121  1  0.41598994  0.07847637  0.04577606  1
  Se  Se122  1  0.41428448  0.07444177  0.55886179  1
  Se  Se123  1  0.41366906  0.41749015  0.05728389  1
  Se  Se124  1  0.42032969  0.42888450  0.55461033  1
  Se  Se125  1  0.41511827  0.75033421  0.04991509  1
  Se  Se126  1  0.41187725  0.74674654  0.56152368  1
  Se  Se127  1  0.75115177  0.07983656  0.05121883  1
  Se  Se128  1  0.75898735  0.07077542  0.57325838  1
  Se  Se129  1  0.76661000  0.43598242  0.04710740  1
  Se  Se130  1  0.74065149  0.40746400  0.56082774  1
  Se  Se131  1  0.75434392  0.75843413  0.05140521  1
  Se  Se132  1  0.74940297  0.74871246  0.55616442  1
  Se  Se133  1  0.24460299  0.24405861  0.04952884  1
  Se  Se134  1  0.25946513  0.26323794  0.56167263  1
  Se  Se135  1  0.24472787  0.58333977  0.04928400  1
  Se  Se136  1  0.24903411  0.60569069  0.57030857  1
  Se  Se137  1  0.24705299  0.90931298  0.05068140  1
  Se  Se138  1  0.25014797  0.91181899  0.56065682  1
  Se  Se139  1  0.58762329  0.24654703  0.04515176  1
  Se  Se140  1  0.58441607  0.25695025  0.55869742  1
  Se  Se141  1  0.58235506  0.58921384  0.05082168  1
  Se  Se142  1  0.57796734  0.58246232  0.54997271  1
  Se  Se143  1  0.58272066  0.91452316  0.05020952  1
  Se  Se144  1  0.59072619  0.92872524  0.55620794  1
  Se  Se145  1  0.91914580  0.24918928  0.04540581  1
  Se  Se146  1  0.92173111  0.25228646  0.55338873  1
  Se  Se147  1  0.92136207  0.58862013  0.04470791  1
  Se  Se148  1  0.92304102  0.59179724  0.56126585  1
  Se  Se149  1  0.92096095  0.91409407  0.05298990  1
  Se  Se150  1  0.91053217  0.91094898  0.56394268  1
  Se  Se151  1  0.08649927  0.24662224  0.44199776  1
  Se  Se152  1  0.08525176  0.24689390  0.95031650  1
  Se  Se153  1  0.07637490  0.59610047  0.43908390  1
  Se  Se154  1  0.08816656  0.58512388  0.94065774  1
  Se  Se155  1  0.09063563  0.91032876  0.45562703  1
  Se  Se156  1  0.08564185  0.91205718  0.94342345  1
  Se  Se157  1  0.40887201  0.26146429  0.44120572  1
  Se  Se158  1  0.41319542  0.25094472  0.95105987  1
  Se  Se159  1  0.41163387  0.58469701  0.45035044  1
  Se  Se160  1  0.41961931  0.58139663  0.95360691  1
  Se  Se161  1  0.41360094  0.92028323  0.43832257  1
  Se  Se162  1  0.41585596  0.90954439  0.94286151  1
  Se  Se163  1  0.74343931  0.25724568  0.43430953  1
  Se  Se164  1  0.74054347  0.25704399  0.95892817  1
  Se  Se165  1  0.74129200  0.59269068  0.43676674  1
  Se  Se166  1  0.75296984  0.59705460  0.94486190  1
  Se  Se167  1  0.75713167  0.91481563  0.44694808  1
  Se  Se168  1  0.75190538  0.91551741  0.94574772  1
  Se  Se169  1  0.25795975  0.07553815  0.43967114  1
  Se  Se170  1  0.24730373  0.07575493  0.94490738  1
  Se  Se171  1  0.24919181  0.41372880  0.43756146  1
  Se  Se172  1  0.25047459  0.41984975  0.95085926  1
  Se  Se173  1  0.25141260  0.75378321  0.44038071  1
  Se  Se174  1  0.24795264  0.75392515  0.94439055  1
  Se  Se175  1  0.59795284  0.07151195  0.44049589  1
  Se  Se176  1  0.57548564  0.08009441  0.94825621  1
  Se  Se177  1  0.57993170  0.42157554  0.44212945  1
  Se  Se178  1  0.59340600  0.41759523  0.95545098  1
  Se  Se179  1  0.58923248  0.74385888  0.43609255  1
  Se  Se180  1  0.58211888  0.75562701  0.94945900  1
  Se  Se181  1  0.93119089  0.06903296  0.44638031  1
  Se  Se182  1  0.91256298  0.08194403  0.94900401  1
  Se  Se183  1  0.92141201  0.41202534  0.44232752  1
  Se  Se184  1  0.92161125  0.42409134  0.94296289  1
  Se  Se185  1  0.91312330  0.74960711  0.45026822  1
  Se  Se186  1  0.92290774  0.75464933  0.94131642  1
  Se  Se187  1  0.25408491  0.24542196  0.29894616  1
  Se  Se188  1  0.24165316  0.23712080  0.81498180  1
  Se  Se189  1  0.24893255  0.58818013  0.29962634  1
  Se  Se190  1  0.25723022  0.58353300  0.81190759  1
  Se  Se191  1  0.26258015  0.93344522  0.30427041  1
  Se  Se192  1  0.24353369  0.90535356  0.79754441  1
  Se  Se193  1  0.58170278  0.25245632  0.29389670  1
  Se  Se194  1  0.57397452  0.23868219  0.82017048  1
  Se  Se195  1  0.57407190  0.57837501  0.30761726  1
  Se  Se196  1  0.57909074  0.57707284  0.81421618  1
  Se  Se197  1  0.58441734  0.91467166  0.30059110  1
  Se  Se198  1  0.58433846  0.91526471  0.80517644  1
  Se  Se199  1  0.90489002  0.24615460  0.30318890  1
  Se  Se200  1  0.90742349  0.24908026  0.82319105  1
  Se  Se201  1  0.90526509  0.58432891  0.29199465  1
  Se  Se202  1  0.91805629  0.59628115  0.79387812  1
  Se  Se203  1  0.91424019  0.91178153  0.30756736  1
  Se  Se204  1  0.92771259  0.92878426  0.80367979  1
  Se  Se205  1  0.08729018  0.08873830  0.30491915  1
  Se  Se206  1  0.07954330  0.07513765  0.80973236  1
  Se  Se207  1  0.08446070  0.43446677  0.30751817  1
  Se  Se208  1  0.08602645  0.41917129  0.81598401  1
  Se  Se209  1  0.06137011  0.74691424  0.30513944  1
  Se  Se210  1  0.08108644  0.74520922  0.79828812  1
  Se  Se211  1  0.42044878  0.08165992  0.29535271  1
  Se  Se212  1  0.41085781  0.07566574  0.80649267  1
  Se  Se213  1  0.41806283  0.42187373  0.30594014  1
  Se  Se214  1  0.43169190  0.42156570  0.81525807  1
  Se  Se215  1  0.42151456  0.75131097  0.29843343  1
  Se  Se216  1  0.41957402  0.74490238  0.81006012  1
  Se  Se217  1  0.75225035  0.08451971  0.30184795  1
  Se  Se218  1  0.74273412  0.08032694  0.81435011  1
  Se  Se219  1  0.74280740  0.41793072  0.28951597  1
  Se  Se220  1  0.76271990  0.43119923  0.81145923  1
  Se  Se221  1  0.75360104  0.75514741  0.30462403  1
  Se  Se222  1  0.76084329  0.76547280  0.80786904  1
  Se  Se223  1  0.25176343  0.07501224  0.19047861  1
  Se  Se224  1  0.25691074  0.07669573  0.70253020  1
  Se  Se225  1  0.23582443  0.42548814  0.18702818  1
  Se  Se226  1  0.24983301  0.42027541  0.69657108  1
  Se  Se227  1  0.26339286  0.73610703  0.19308698  1
  Se  Se228  1  0.27174810  0.73526704  0.70373286  1
  Se  Se229  1  0.58594278  0.07539930  0.18946334  1
  Se  Se230  1  0.58598865  0.08358366  0.70197637  1
  Se  Se231  1  0.58754834  0.41690746  0.18974158  1
  Se  Se232  1  0.57995576  0.41936841  0.69758354  1
  Se  Se233  1  0.57709153  0.75862380  0.18187087  1
  Se  Se234  1  0.57577722  0.75080593  0.68997451  1
  Se  Se235  1  0.91182565  0.09232265  0.18646700  1
  Se  Se236  1  0.91313721  0.08663804  0.71216588  1
  Se  Se237  1  0.90746911  0.41909115  0.17498997  1
  Se  Se238  1  0.90735362  0.42233238  0.69599908  1
  Se  Se239  1  0.91680681  0.75280878  0.19304506  1
  Se  Se240  1  0.92742487  0.73229035  0.70233193  1
  Se  Se241  1  0.08598937  0.24456597  0.19089595  1
  Se  Se242  1  0.08691196  0.23311592  0.69554232  1
  Se  Se243  1  0.07590373  0.59447230  0.18928041  1
  Se  Se244  1  0.08965263  0.57482393  0.70402181  1
  Se  Se245  1  0.09914069  0.89941287  0.19354468  1
  Se  Se246  1  0.06389609  0.92338700  0.70428595  1
  Se  Se247  1  0.42699701  0.23848402  0.17547050  1
  Se  Se248  1  0.42306666  0.24208218  0.69601609  1
  Se  Se249  1  0.41450268  0.58336545  0.19667065  1
  Se  Se250  1  0.42379125  0.57527524  0.70594994  1
  Se  Se251  1  0.41352821  0.91805973  0.18858061  1
  Se  Se252  1  0.41908726  0.91590844  0.70282844  1
  Se  Se253  1  0.74079532  0.25373456  0.18639576  1
  Se  Se254  1  0.75168086  0.24386780  0.69955485  1
  Se  Se255  1  0.75150050  0.58534842  0.17756255  1
  Se  Se256  1  0.75267394  0.57417278  0.69543326  1
  Se  Se257  1  0.74873595  0.92462384  0.19719998  1
  Se  Se258  1  0.73313139  0.91976209  0.70334856  1
