# generated using pymatgen
data_In86Cu29Se144
_symmetry_space_group_name_H-M   'P 1'
_cell_length_a   17.59795301
_cell_length_b   17.59829548
_cell_length_c   23.45097119
_cell_angle_alpha   90.00659655
_cell_angle_beta   89.98950870
_cell_angle_gamma   89.98662219
_symmetry_Int_Tables_number   1
_chemical_formula_structural   In86Cu29Se144
_chemical_formula_sum   'In86 Cu29 Se144'
_cell_volume   7262.62416445
_cell_formula_units_Z   1
loop_
 _symmetry_equiv_pos_site_id
 _symmetry_equiv_pos_as_xyz
  1  'x, y, z'
loop_
 _atom_site_type_symbol
 _atom_site_label
 _atom_site_symmetry_multiplicity
 _atom_site_fract_x
 _atom_site_fract_y
 _atom_site_fract_z
 _atom_site_occupancy
  In  In0  1  0.00385790  0.17492719  0.13980777  1
  In  In1  1  0.00271215  0.16074304  0.62351629  1
  In  In2  1  0.00441637  0.49522742  0.13055559  1
  In  In3  1  0.01413607  0.49044597  0.62706205  1
  In  In4  1  -0.00824683  0.83251791  0.14095285  1
  In  In5  1  -0.01012551  0.84174434  0.62525168  1
  In  In6  1  0.34154546  0.16102088  0.13586960  1
  In  In7  1  0.33263355  0.18311199  0.62492858  1
  In  In8  1  0.31490957  0.50508901  0.12058381  1
  In  In9  1  0.32962881  0.50485018  0.62871437  1
  In  In10  1  0.34316662  0.84027502  0.12961588  1
  In  In11  1  0.33138352  0.81488860  0.61983670  1
  In  In12  1  0.65905922  0.17387260  0.13120931  1
  In  In13  1  0.67757797  0.16501527  0.64173872  1
  In  In14  1  0.65920078  0.50248043  0.13425265  1
  In  In15  1  0.66356514  0.50168146  0.64075831  1
  In  In16  1  0.67527494  0.83097421  0.13858380  1
  In  In17  1  0.67037987  0.83306547  0.61898749  1
  In  In18  1  0.17093064  0.01164834  0.36459338  1
  In  In19  1  0.16098219  0.01003111  0.87130922  1
  In  In20  1  0.16553228  0.33294591  0.38089183  1
  In  In21  1  0.17122615  0.33728580  0.86880051  1
  In  In22  1  0.15277798  0.66521988  0.37914749  1
  In  In23  1  0.15119977  0.65027435  0.86637994  1
  In  In24  1  0.49289001  -0.00567713  0.37518722  1
  In  In25  1  0.51207810  -0.00464970  0.87678991  1
  In  In26  1  0.49471229  0.33671371  0.36453250  1
  In  In27  1  0.48722088  0.33098103  0.87171070  1
  In  In28  1  0.51820733  0.66072038  0.37566438  1
  In  In29  1  0.50198682  0.66779880  0.86191801  1
  In  In30  1  0.83109793  -0.00852994  0.36639132  1
  In  In31  1  0.82876964  -0.00002286  0.86343864  1
  In  In32  1  0.83503593  0.33510719  0.37382562  1
  In  In33  1  0.83357890  0.32098423  0.85973318  1
  In  In34  1  0.83783038  0.67650768  0.36717618  1
  In  In35  1  0.82978384  0.66224127  0.86749109  1
  In  In36  1  0.01921770  0.18071366  0.35903655  1
  In  In37  1  -0.00602728  0.16549302  0.85697364  1
  In  In38  1  0.00440376  0.50097885  0.37835143  1
  In  In39  1  0.00049329  0.49880370  0.86901606  1
  In  In40  1  -0.01224842  0.82756325  0.36442686  1
  In  In41  1  -0.00688398  0.82997641  0.86501505  1
  In  In42  1  0.31933013  0.16386623  0.36481271  1
  In  In43  1  0.33102790  0.18397688  0.87617045  1
  In  In44  1  0.33123362  0.46940609  0.36890416  1
  In  In45  1  0.32263132  0.48464743  0.86629719  1
  In  In46  1  0.33395875  0.84589337  0.37879315  1
  In  In47  1  0.34584194  0.82813654  0.87097916  1
  In  In48  1  0.67347535  0.16935840  0.37263395  1
  In  In49  1  0.65920772  0.15563304  0.87309045  1
  In  In50  1  0.66056989  0.50014266  0.36329693  1
  In  In51  1  0.66256243  0.50671393  0.86572104  1
  In  In52  1  0.67012862  0.83007812  0.37646609  1
  In  In53  1  0.66359851  0.83438336  0.86665896  1
  In  In54  1  0.16466270  0.01690529  0.14470273  1
  In  In55  1  0.14885160  0.00021992  0.61916256  1
  In  In56  1  0.15685853  0.34049761  0.13522810  1
  In  In57  1  0.16425081  0.33508629  0.61662245  1
  In  In58  1  0.16410447  0.65248225  0.12351020  1
  In  In59  1  0.17417029  0.65345222  0.62776699  1
  In  In60  1  0.49435406  0.00899722  0.13563504  1
  In  In61  1  0.51686478  0.00155898  0.62237211  1
  In  In62  1  0.51145518  0.32514596  0.13093035  1
  In  In63  1  0.49647421  0.34360419  0.64261040  1
  In  In64  1  0.50271174  0.67373881  0.12295206  1
  In  In65  1  0.49642401  0.66782899  0.62877311  1
  In  In66  1  0.83258804  -0.00524047  0.13906181  1
  In  In67  1  0.84338846  -0.00529633  0.62527799  1
  In  In68  1  0.83334162  0.33539409  0.13373050  1
  In  In69  1  0.83858631  0.32622378  0.63739448  1
  In  In70  1  0.83171256  0.67158039  0.13397057  1
  In  In71  1  0.82567902  0.67633532  0.62765304  1
  In  In72  1  0.84003987  0.16439472  0.50293915  1
  In  In73  1  0.16885372  0.17558483  0.00352979  1
  In  In74  1  0.50308526  0.83405128  0.00165826  1
  In  In75  1  0.50030043  0.17007941  0.50600573  1
  In  In76  1  0.82970793  0.83208371  0.00913662  1
  In  In77  1  0.33115138  -0.00469553  0.74985963  1
  In  In78  1  0.83558619  0.50000775  0.49914091  1
  In  In79  1  0.49648180  0.50479068  0.50204805  1
  In  In80  1  0.83200121  0.16426933  0.00108235  1
  In  In81  1  0.16921778  0.83061322  0.00565613  1
  In  In82  1  0.49742318  0.49906705  -0.00202131  1
  In  In83  1  0.15910104  0.83510724  0.49718530  1
  In  In84  1  0.83230425  0.49929616  -0.00861734  1
  In  In85  1  0.33509235  0.66587453  0.24763776  1
  Cu  Cu86  1  0.32463781  0.65939487  -0.00854628  1
  Cu  Cu87  1  0.66280216  0.00054272  0.00151386  1
  Cu  Cu88  1  0.50585886  0.16625146  0.25421078  1
  Cu  Cu89  1  -0.00037239  0.65907452  -0.00314919  1
  Cu  Cu90  1  0.66184172  0.33882054  0.50975212  1
  Cu  Cu91  1  0.16282517  0.50049441  0.25279147  1
  Cu  Cu92  1  0.83191697  0.16475279  0.25340953  1
  Cu  Cu93  1  0.66400561  0.33101454  0.00427185  1
  Cu  Cu94  1  0.00705764  0.33418098  0.00193650  1
  Cu  Cu95  1  0.16332755  0.16714367  0.74559133  1
  Cu  Cu96  1  0.16655590  0.83397921  0.25670233  1
  Cu  Cu97  1  0.00371208  0.00318245  -0.00119500  1
  Cu  Cu98  1  0.50418987  0.83639051  0.25389082  1
  Cu  Cu99  1  0.84142056  0.50749942  0.74668279  1
  Cu  Cu100  1  0.67324574  0.67215300  0.49834242  1
  Cu  Cu101  1  0.16408257  0.82723819  0.74128411  1
  Cu  Cu102  1  0.33261895  0.33608463  -0.00091734  1
  Cu  Cu103  1  0.33120988  0.00253483  0.49385003  1
  Cu  Cu104  1  0.33633670  0.00920145  0.01144721  1
  Cu  Cu105  1  0.66920150  -0.00715520  0.49706668  1
  Cu  Cu106  1  0.49776275  0.16701452  0.75071790  1
  Cu  Cu107  1  0.16472905  0.49614900  0.74616473  1
  Cu  Cu108  1  0.83827899  0.49666452  0.25369493  1
  Cu  Cu109  1  -0.00402148  0.66665752  0.49855445  1
  Cu  Cu110  1  -0.00377263  0.00418249  0.49414730  1
  Cu  Cu111  1  0.33965678  0.66164863  0.50201647  1
  Cu  Cu112  1  0.83264453  0.83576887  0.74474077  1
  Cu  Cu113  1  0.50326262  0.83287372  0.74482541  1
  Cu  Cu114  1  0.32600562  0.33061508  0.49756502  1
  Se  Se115  1  0.07900117  0.08195916  0.06138460  1
  Se  Se116  1  0.08111284  0.08636328  0.54589379  1
  Se  Se117  1  0.08585782  0.41810169  0.05656783  1
  Se  Se118  1  0.08974165  0.42511032  0.54808470  1
  Se  Se119  1  0.07028331  0.74422281  0.06063193  1
  Se  Se120  1  0.07836343  0.74379123  0.56194991  1
  Se  Se121  1  0.42359301  0.09040187  0.05922404  1
  Se  Se122  1  0.40773569  0.07641945  0.56247057  1
  Se  Se123  1  0.41202447  0.41236783  0.06317652  1
  Se  Se124  1  0.41246093  0.40506244  0.55841325  1
  Se  Se125  1  0.40080948  0.74169132  0.05281336  1
  Se  Se126  1  0.42391414  0.74632276  0.55073566  1
  Se  Se127  1  0.74648309  0.07417189  0.06357049  1
  Se  Se128  1  0.74065898  0.07959562  0.55893706  1
  Se  Se129  1  0.74584552  0.41308536  0.05928544  1
  Se  Se130  1  0.74733288  0.41604636  0.56619574  1
  Se  Se131  1  0.73620566  0.73867964  0.05949365  1
  Se  Se132  1  0.75850262  0.75537160  0.54885674  1
  Se  Se133  1  0.25815344  0.25862533  0.06665545  1
  Se  Se134  1  0.24571676  0.24420653  0.54952002  1
  Se  Se135  1  0.23879640  0.58044876  0.04443230  1
  Se  Se136  1  0.25295260  0.57978432  0.55181813  1
  Se  Se137  1  0.25189028  0.92911063  0.06597255  1
  Se  Se138  1  0.25407124  0.92130127  0.55839110  1
  Se  Se139  1  0.58115189  0.24491759  0.05311868  1
  Se  Se140  1  0.58677336  0.25646792  0.57051316  1
  Se  Se141  1  0.58982143  0.58907820  0.05539286  1
  Se  Se142  1  0.59701215  0.58748713  0.55894568  1
  Se  Se143  1  0.58959732  0.92016751  0.06659291  1
  Se  Se144  1  0.58233623  0.91318182  0.54969132  1
  Se  Se145  1  0.92474396  0.25513266  0.06016214  1
  Se  Se146  1  0.92457088  0.26189720  0.55799898  1
  Se  Se147  1  0.91707988  0.58490997  0.05999854  1
  Se  Se148  1  0.92061359  0.58844531  0.56364740  1
  Se  Se149  1  0.92620232  0.92497934  0.06099616  1
  Se  Se150  1  0.91658187  0.91795206  0.54747624  1
  Se  Se151  1  0.08572970  0.24152022  0.44467280  1
  Se  Se152  1  0.07437569  0.24940272  0.93589035  1
  Se  Se153  1  0.08274173  0.58092193  0.45272658  1
  Se  Se154  1  0.08054216  0.57388844  0.94523571  1
  Se  Se155  1  0.07612220  0.92319361  0.43236165  1
  Se  Se156  1  0.07899891  0.91840615  0.94033214  1
  Se  Se157  1  0.41448825  0.25433631  0.43984646  1
  Se  Se158  1  0.41736338  0.25085730  0.95004489  1
  Se  Se159  1  0.40850953  0.58370227  0.43265297  1
  Se  Se160  1  0.41158311  0.58677989  0.93324946  1
  Se  Se161  1  0.41971215  0.91547577  0.45240726  1
  Se  Se162  1  0.40708267  0.92600005  0.94588558  1
  Se  Se163  1  0.74280082  0.25989914  0.44942328  1
  Se  Se164  1  0.74546617  0.25609804  0.94104345  1
  Se  Se165  1  0.74261513  0.58360839  0.43767981  1
  Se  Se166  1  0.73824166  0.59409434  0.94211227  1
  Se  Se167  1  0.75546270  0.91516635  0.44348594  1
  Se  Se168  1  0.74457337  0.92185228  0.94223678  1
  Se  Se169  1  0.24764723  0.08495937  0.44240693  1
  Se  Se170  1  0.25661502  0.07900851  0.94353080  1
  Se  Se171  1  0.24607962  0.42243162  0.45048945  1
  Se  Se172  1  0.24604883  0.41450666  0.94549117  1
  Se  Se173  1  0.25631949  0.74326904  0.44231988  1
  Se  Se174  1  0.24861869  0.74580959  0.93374141  1
  Se  Se175  1  0.58934172  0.08184519  0.44324092  1
  Se  Se176  1  0.57890418  0.08340318  0.95004297  1
  Se  Se177  1  0.58629027  0.41243154  0.44288234  1
  Se  Se178  1  0.59078415  0.41103033  0.93939581  1
  Se  Se179  1  0.58301858  0.75101746  0.44785203  1
  Se  Se180  1  0.58736865  0.74457219  0.93913259  1
  Se  Se181  1  0.91998726  0.08370858  0.43075502  1
  Se  Se182  1  0.92274773  0.07820480  0.93765974  1
  Se  Se183  1  0.92617739  0.40475783  0.44640941  1
  Se  Se184  1  0.92041636  0.40118418  0.93792078  1
  Se  Se185  1  0.91677620  0.75038944  0.44355051  1
  Se  Se186  1  0.91855214  0.74429556  0.94283577  1
  Se  Se187  1  0.27643455  0.28611030  0.31469251  1
  Se  Se188  1  0.24786432  0.24838275  0.79977629  1
  Se  Se189  1  0.24562392  0.58020158  0.31239330  1
  Se  Se190  1  0.24786941  0.57970132  0.80134185  1
  Se  Se191  1  0.25405156  0.91711875  0.30416466  1
  Se  Se192  1  0.23904791  0.90460957  0.80964044  1
  Se  Se193  1  0.58795176  0.25170204  0.30648799  1
  Se  Se194  1  0.57778547  0.24660641  0.81021819  1
  Se  Se195  1  0.57616778  0.58015952  0.29597720  1
  Se  Se196  1  0.58730145  0.58967880  0.79573647  1
  Se  Se197  1  0.58507246  0.91800014  0.31038314  1
  Se  Se198  1  0.58277800  0.91957973  0.79870599  1
  Se  Se199  1  0.91396958  0.25309404  0.30292490  1
  Se  Se200  1  0.92058980  0.25203525  0.78909384  1
  Se  Se201  1  0.91925483  0.58000165  0.30901554  1
  Se  Se202  1  0.92401151  0.58986861  0.80248955  1
  Se  Se203  1  0.91618316  0.91598557  0.29577089  1
  Se  Se204  1  0.91719690  0.91934661  0.79865021  1
  Se  Se205  1  0.07805457  0.07726236  0.29556241  1
  Se  Se206  1  0.08156595  0.07813613  0.79506574  1
  Se  Se207  1  0.08356462  0.41594683  0.30907914  1
  Se  Se208  1  0.08164105  0.41305980  0.80138924  1
  Se  Se209  1  0.08350742  0.74620377  0.30397905  1
  Se  Se210  1  0.08194936  0.74858522  0.80149923  1
  Se  Se211  1  0.41923702  0.08543162  0.30759998  1
  Se  Se212  1  0.41789248  0.08526706  0.81266904  1
  Se  Se213  1  0.43750721  0.43948693  0.29842306  1
  Se  Se214  1  0.42183980  0.42230693  0.80146125  1
  Se  Se215  1  0.42099162  0.75472014  0.31234302  1
  Se  Se216  1  0.41554751  0.75014244  0.79469589  1
  Se  Se217  1  0.74666964  0.08124813  0.30365679  1
  Se  Se218  1  0.75185114  0.09214084  0.80277472  1
  Se  Se219  1  0.75130370  0.41372767  0.30418380  1
  Se  Se220  1  0.76137973  0.42878849  0.80745620  1
  Se  Se221  1  0.72691606  0.72871758  0.30788952  1
  Se  Se222  1  0.75204778  0.75363985  0.80250151  1
  Se  Se223  1  0.25804893  0.08802496  0.20816432  1
  Se  Se224  1  0.24448226  0.08440730  0.68673018  1
  Se  Se225  1  0.24947058  0.42275392  0.19755979  1
  Se  Se226  1  0.24683726  0.41353822  0.69023045  1
  Se  Se227  1  0.24156700  0.75681933  0.18835454  1
  Se  Se228  1  0.25279377  0.74339866  0.69556144  1
  Se  Se229  1  0.58925412  0.08155550  0.20084925  1
  Se  Se230  1  0.58176553  0.08221267  0.70015356  1
  Se  Se231  1  0.58980984  0.40898892  0.19892343  1
  Se  Se232  1  0.59780609  0.40474080  0.70616055  1
  Se  Se233  1  0.57913948  0.74957028  0.19742078  1
  Se  Se234  1  0.58742107  0.75182470  0.69002587  1
  Se  Se235  1  0.91730111  0.08529788  0.19888077  1
  Se  Se236  1  0.90027429  0.09981402  0.68813777  1
  Se  Se237  1  0.92234258  0.41311976  0.19960849  1
  Se  Se238  1  0.92205540  0.41984811  0.69623831  1
  Se  Se239  1  0.91591861  0.74342311  0.20504981  1
  Se  Se240  1  0.91842734  0.75127995  0.69489761  1
  Se  Se241  1  0.09819971  0.24330610  0.20476271  1
  Se  Se242  1  0.08552355  0.24966269  0.68780479  1
  Se  Se243  1  0.08114032  0.58550687  0.19923326  1
  Se  Se244  1  0.08165959  0.58489932  0.69725183  1
  Se  Se245  1  0.08567366  0.91585588  0.19917024  1
  Se  Se246  1  0.08161444  0.91637151  0.69406755  1
  Se  Se247  1  0.42285773  0.25026998  0.20030729  1
  Se  Se248  1  0.41136631  0.25113033  0.70232285  1
  Se  Se249  1  0.41969815  0.57784846  0.18320205  1
  Se  Se250  1  0.43614249  0.56277111  0.69024962  1
  Se  Se251  1  0.41673971  0.91936992  0.20337590  1
  Se  Se252  1  0.41968083  0.91079483  0.68456209  1
  Se  Se253  1  0.75034496  0.24906371  0.19779446  1
  Se  Se254  1  0.73405655  0.27147201  0.70264366  1
  Se  Se255  1  0.75482279  0.57745122  0.19706137  1
  Se  Se256  1  0.75211564  0.59033694  0.69925650  1
  Se  Se257  1  0.75720904  0.90905765  0.20686000  1
  Se  Se258  1  0.74977270  0.91766440  0.68967165  1
