# generated using pymatgen
data_In86Cu29Se144
_symmetry_space_group_name_H-M   'P 1'
_cell_length_a   17.58552804
_cell_length_b   17.58729627
_cell_length_c   23.44926068
_cell_angle_alpha   90.02426283
_cell_angle_beta   89.99586827
_cell_angle_gamma   90.02649134
_symmetry_Int_Tables_number   1
_chemical_formula_structural   In86Cu29Se144
_chemical_formula_sum   'In86 Cu29 Se144'
_cell_volume   7252.43025837
_cell_formula_units_Z   1
loop_
 _symmetry_equiv_pos_site_id
 _symmetry_equiv_pos_as_xyz
  1  'x, y, z'
loop_
 _atom_site_type_symbol
 _atom_site_label
 _atom_site_symmetry_multiplicity
 _atom_site_fract_x
 _atom_site_fract_y
 _atom_site_fract_z
 _atom_site_occupancy
  In  In0  1  0.00149322  0.16853569  0.11418705  1
  In  In1  1  -0.00497576  0.16334405  0.63408775  1
  In  In2  1  -0.01270470  0.49247322  0.12459490  1
  In  In3  1  0.00088026  0.49836794  0.63623152  1
  In  In4  1  0.00180570  0.82571467  0.11045742  1
  In  In5  1  -0.00501482  0.84045399  0.62878685  1
  In  In6  1  0.33331852  0.16993105  0.11727691  1
  In  In7  1  0.32467362  0.16618604  0.63277263  1
  In  In8  1  0.32941754  0.48511132  0.12054611  1
  In  In9  1  0.35010240  0.50493523  0.62267185  1
  In  In10  1  0.33275496  0.83223374  0.11481332  1
  In  In11  1  0.33334243  0.83240024  0.63261252  1
  In  In12  1  0.66159010  0.15665443  0.10480562  1
  In  In13  1  0.68173334  0.15347318  0.63064019  1
  In  In14  1  0.66962045  0.51733661  0.12584051  1
  In  In15  1  0.65828276  0.51129974  0.63295920  1
  In  In16  1  0.66544532  0.82710160  0.11900880  1
  In  In17  1  0.65750252  0.83573091  0.61943124  1
  In  In18  1  0.15480980  -0.00084650  0.37811388  1
  In  In19  1  0.16603713  0.00016349  0.87307118  1
  In  In20  1  0.16017334  0.32020532  0.35821433  1
  In  In21  1  0.15318954  0.33081760  0.87406714  1
  In  In22  1  0.17491673  0.67331315  0.37953319  1
  In  In23  1  0.17020628  0.67436645  0.86957605  1
  In  In24  1  0.49386894  -0.00824318  0.37683349  1
  In  In25  1  0.49335259  0.01308239  0.88015036  1
  In  In26  1  0.50470346  0.34468769  0.37355325  1
  In  In27  1  0.51599137  0.31729819  0.88199999  1
  In  In28  1  0.50445371  0.66009849  0.37914267  1
  In  In29  1  0.50254949  0.66816636  0.87464992  1
  In  In30  1  0.83596665  -0.00530066  0.38805986  1
  In  In31  1  0.83491009  -0.01377888  0.88651560  1
  In  In32  1  0.83704493  0.31885941  0.37785340  1
  In  In33  1  0.82542581  0.32852553  0.86856140  1
  In  In34  1  0.82905625  0.68564955  0.37497391  1
  In  In35  1  0.84231082  0.67865286  0.86566008  1
  In  In36  1  -0.00918086  0.16182229  0.37116650  1
  In  In37  1  -0.00097361  0.16414248  0.87617975  1
  In  In38  1  0.01172426  0.49640987  0.37628984  1
  In  In39  1  0.00180776  0.50134333  0.86581827  1
  In  In40  1  -0.00729244  0.84724882  0.39269367  1
  In  In41  1  -0.00347757  0.83312267  0.87682547  1
  In  In42  1  0.32454072  0.16960605  0.37025831  1
  In  In43  1  0.34722108  0.14978286  0.87793129  1
  In  In44  1  0.34494489  0.49986461  0.37392876  1
  In  In45  1  0.33910479  0.51558192  0.87164031  1
  In  In46  1  0.33242880  0.83634795  0.38598763  1
  In  In47  1  0.33419090  0.83627696  0.87130101  1
  In  In48  1  0.67858164  0.17378205  0.37860827  1
  In  In49  1  0.65578964  0.17273729  0.88298715  1
  In  In50  1  0.65014802  0.50434341  0.37633002  1
  In  In51  1  0.66039280  0.49220647  0.86810594  1
  In  In52  1  0.68184549  0.81851456  0.38786576  1
  In  In53  1  0.67828077  0.83011832  0.88144853  1
  In  In54  1  0.16541936  0.00003729  0.11600697  1
  In  In55  1  0.17084952  -0.00697005  0.63483070  1
  In  In56  1  0.16934417  0.32013032  0.13144868  1
  In  In57  1  0.16130937  0.32249507  0.62941641  1
  In  In58  1  0.16007241  0.67910429  0.11927660  1
  In  In59  1  0.15259617  0.68243755  0.63958727  1
  In  In60  1  0.50437588  -0.00764674  0.10468257  1
  In  In61  1  0.50893945  -0.01487132  0.63277328  1
  In  In62  1  0.49226818  0.32785497  0.11560821  1
  In  In63  1  0.49450489  0.34757572  0.62438230  1
  In  In64  1  0.50834978  0.67676360  0.11157643  1
  In  In65  1  0.50145836  0.66840811  0.63044016  1
  In  In66  1  0.82559538  -0.00504744  0.10866988  1
  In  In67  1  0.83891992  0.00922548  0.61166294  1
  In  In68  1  0.84389741  0.32616455  0.12657490  1
  In  In69  1  0.84090639  0.32059374  0.63389408  1
  In  In70  1  0.83243759  0.66353131  0.12541512  1
  In  In71  1  0.82097937  0.68236326  0.63592064  1
  In  In72  1  0.16446472  0.15953201  0.50372105  1
  In  In73  1  0.33389637  0.33366799  0.74926708  1
  In  In74  1  0.33152291  0.00211711  0.23458005  1
  In  In75  1  0.16903910  0.50509375  -0.00580405  1
  In  In76  1  0.66744427  -0.00158199  0.75561263  1
  In  In77  1  0.83384228  0.50369744  0.00304681  1
  In  In78  1  -0.00290780  0.00162627  0.25493914  1
  In  In79  1  0.50960163  0.16013013  0.50501372  1
  In  In80  1  -0.00047001  0.66536948  0.24951132  1
  In  In81  1  0.66679904  -0.00403296  0.24218656  1
  In  In82  1  0.83025890  0.50423696  0.50973863  1
  In  In83  1  0.17624479  0.50431051  0.49888685  1
  In  In84  1  0.67010224  0.33429056  0.25030580  1
  In  In85  1  0.33718230  0.66167927  0.24989089  1
  Cu  Cu86  1  -0.00336480  0.32793839  0.50655628  1
  Cu  Cu87  1  -0.00055715  0.33044200  -0.00104765  1
  Cu  Cu88  1  0.50096920  0.50268931  0.75123138  1
  Cu  Cu89  1  0.33952267  0.67272433  -0.00751323  1
  Cu  Cu90  1  0.66770710  0.66354324  -0.00464904  1
  Cu  Cu91  1  0.49823148  0.50033228  0.24834423  1
  Cu  Cu92  1  0.66564859  0.33773816  -0.00409155  1
  Cu  Cu93  1  0.49416256  0.16986214  0.24097872  1
  Cu  Cu94  1  0.33463490  0.67590593  0.50707230  1
  Cu  Cu95  1  0.16283377  0.48939981  0.24645477  1
  Cu  Cu96  1  0.83034599  0.49825703  0.74973941  1
  Cu  Cu97  1  0.83409654  0.83915335  0.75162987  1
  Cu  Cu98  1  0.83600536  0.16282228  0.75502014  1
  Cu  Cu99  1  0.32611388  -0.00217424  -0.00504971  1
  Cu  Cu100  1  0.50009180  0.82883696  0.75193373  1
  Cu  Cu101  1  0.34022939  0.33761697  0.49412211  1
  Cu  Cu102  1  -0.00203617  0.67895808  0.51075013  1
  Cu  Cu103  1  0.16848068  0.50091677  0.75381690  1
  Cu  Cu104  1  0.16380458  0.83633402  0.75467416  1
  Cu  Cu105  1  0.83010595  0.50164632  0.24942868  1
  Cu  Cu106  1  0.33882596  -0.00935853  0.50761277  1
  Cu  Cu107  1  0.33439338  0.33256242  -0.00245979  1
  Cu  Cu108  1  0.83589261  0.16484878  0.24741036  1
  Cu  Cu109  1  0.16223195  0.16327664  0.75389575  1
  Cu  Cu110  1  0.65886102  0.66562236  0.50677014  1
  Cu  Cu111  1  0.00333212  -0.00106270  -0.00530780  1
  Cu  Cu112  1  0.16132885  0.83743120  0.25413520  1
  Cu  Cu113  1  0.67051786  0.33351181  0.50083748  1
  Cu  Cu114  1  0.50815007  0.82562131  0.24617088  1
  Se  Se115  1  0.08524678  0.08432599  0.04818999  1
  Se  Se116  1  0.07740671  0.07284215  0.56481284  1
  Se  Se117  1  0.08030580  0.41416267  0.05673344  1
  Se  Se118  1  0.08087031  0.41322551  0.55839165  1
  Se  Se119  1  0.09281402  0.75480937  0.04255204  1
  Se  Se120  1  0.08569094  0.75927454  0.56054226  1
  Se  Se121  1  0.41064051  0.07981129  0.05047848  1
  Se  Se122  1  0.41107063  0.07925218  0.56536905  1
  Se  Se123  1  0.41748826  0.41941360  0.04728256  1
  Se  Se124  1  0.42022417  0.42303552  0.54653992  1
  Se  Se125  1  0.42164403  0.75835288  0.04619642  1
  Se  Se126  1  0.41997095  0.75428379  0.56212756  1
  Se  Se127  1  0.76333854  0.09423442  0.04359185  1
  Se  Se128  1  0.74365286  0.08347450  0.54798711  1
  Se  Se129  1  0.74414060  0.41064479  0.06332147  1
  Se  Se130  1  0.74524637  0.41011151  0.56820205  1
  Se  Se131  1  0.75165828  0.74133910  0.05359998  1
  Se  Se132  1  0.74615468  0.74929064  0.55532357  1
  Se  Se133  1  0.24685824  0.25365875  0.05096606  1
  Se  Se134  1  0.25961396  0.25950658  0.55500152  1
  Se  Se135  1  0.26029561  0.59442935  0.05754132  1
  Se  Se136  1  0.25205423  0.59568652  0.56654672  1
  Se  Se137  1  0.24562466  0.91295686  0.04995405  1
  Se  Se138  1  0.25060781  0.91461141  0.56167359  1
  Se  Se139  1  0.58002710  0.25228351  0.04706392  1
  Se  Se140  1  0.59121068  0.25624467  0.56551461  1
  Se  Se141  1  0.58487927  0.57980637  0.04900774  1
  Se  Se142  1  0.57587671  0.58031938  0.55707177  1
  Se  Se143  1  0.60654112  0.92298925  0.04654230  1
  Se  Se144  1  0.58569722  0.92774459  0.55139264  1
  Se  Se145  1  0.91070397  0.24820229  0.04786045  1
  Se  Se146  1  0.91702730  0.24240797  0.55861833  1
  Se  Se147  1  0.93198108  0.59531456  0.05465060  1
  Se  Se148  1  0.92201392  0.59304482  0.56832009  1
  Se  Se149  1  0.91964467  0.91479808  0.04775460  1
  Se  Se150  1  0.90516119  0.90323451  0.55449677  1
  Se  Se151  1  0.07937663  0.25516642  0.44245780  1
  Se  Se152  1  0.08360422  0.24627562  0.94740029  1
  Se  Se153  1  0.07417691  0.59698166  0.44805235  1
  Se  Se154  1  0.07511300  0.59210416  0.93792003  1
  Se  Se155  1  0.09630717  0.91165608  0.45238299  1
  Se  Se156  1  0.08658100  0.91456152  0.94236628  1
  Se  Se157  1  0.41811481  0.24896012  0.43963900  1
  Se  Se158  1  0.41631151  0.24692382  0.94475704  1
  Se  Se159  1  0.40877780  0.58955549  0.44688563  1
  Se  Se160  1  0.42252973  0.58316488  0.94687491  1
  Se  Se161  1  0.42371485  0.91123289  0.45298377  1
  Se  Se162  1  0.41464616  0.91817071  0.94318371  1
  Se  Se163  1  0.75699932  0.24841794  0.45399723  1
  Se  Se164  1  0.75070535  0.25400836  0.94568357  1
  Se  Se165  1  0.74229781  0.58863172  0.44352478  1
  Se  Se166  1  0.74914756  0.58523439  0.93430772  1
  Se  Se167  1  0.74314966  0.92044158  0.45087525  1
  Se  Se168  1  0.73686792  0.92365560  0.95557982  1
  Se  Se169  1  0.26246782  0.07251395  0.44431418  1
  Se  Se170  1  0.24609892  0.08606832  0.94351632  1
  Se  Se171  1  0.25064685  0.40624648  0.43376262  1
  Se  Se172  1  0.25755319  0.41212009  0.93412931  1
  Se  Se173  1  0.24735423  0.75418380  0.45301973  1
  Se  Se174  1  0.25136336  0.75240151  0.94186639  1
  Se  Se175  1  0.59230260  0.07682085  0.43582709  1
  Se  Se176  1  0.58108746  0.08454426  0.95033291  1
  Se  Se177  1  0.58439847  0.41553338  0.44998974  1
  Se  Se178  1  0.58095323  0.42160240  0.94568000  1
  Se  Se179  1  0.57896706  0.74812937  0.44840451  1
  Se  Se180  1  0.58500203  0.74967591  0.94472362  1
  Se  Se181  1  0.93298861  0.07461374  0.44541504  1
  Se  Se182  1  0.91650760  0.08269176  0.94595932  1
  Se  Se183  1  0.92169006  0.41438108  0.44645325  1
  Se  Se184  1  0.92143272  0.41394080  0.93946506  1
  Se  Se185  1  0.91158630  0.75135876  0.45170686  1
  Se  Se186  1  0.90362699  0.75948336  0.94430322  1
  Se  Se187  1  0.25869284  0.25223575  0.29632986  1
  Se  Se188  1  0.24662681  0.24411600  0.81152809  1
  Se  Se189  1  0.23892749  0.57273403  0.30770202  1
  Se  Se190  1  0.25185745  0.58766111  0.80187420  1
  Se  Se191  1  0.24963693  0.91645659  0.30809493  1
  Se  Se192  1  0.25125813  0.92030638  0.80322573  1
  Se  Se193  1  0.57715961  0.23983383  0.30694376  1
  Se  Se194  1  0.59256785  0.25281502  0.80310757  1
  Se  Se195  1  0.57987834  0.58591014  0.30080270  1
  Se  Se196  1  0.58535363  0.58692716  0.80352685  1
  Se  Se197  1  0.58037901  0.90992705  0.30760868  1
  Se  Se198  1  0.57719988  0.90912047  0.81554498  1
  Se  Se199  1  0.91685564  0.24990902  0.30058483  1
  Se  Se200  1  0.91918987  0.24992271  0.80575846  1
  Se  Se201  1  0.91049391  0.57765547  0.31497312  1
  Se  Se202  1  0.91540022  0.58302162  0.80056635  1
  Se  Se203  1  0.90735636  0.90753282  0.31027304  1
  Se  Se204  1  0.91555028  0.92056794  0.80760951  1
  Se  Se205  1  0.09561879  0.09520824  0.30404053  1
  Se  Se206  1  0.07749761  0.07965022  0.80497059  1
  Se  Se207  1  0.07436208  0.41248373  0.29970865  1
  Se  Se208  1  0.08270619  0.41347572  0.79953277  1
  Se  Se209  1  0.08343472  0.75747967  0.31475651  1
  Se  Se210  1  0.07816047  0.75132038  0.80441322  1
  Se  Se211  1  0.42187248  0.08531569  0.30352007  1
  Se  Se212  1  0.41757185  0.07842993  0.79902531  1
  Se  Se213  1  0.41736696  0.41474093  0.30082261  1
  Se  Se214  1  0.42476666  0.41826762  0.81229583  1
  Se  Se215  1  0.41980139  0.75824674  0.30938234  1
  Se  Se216  1  0.41534623  0.74648481  0.80514163  1
  Se  Se217  1  0.75715709  0.08401341  0.30774935  1
  Se  Se218  1  0.75590938  0.08635916  0.81819976  1
  Se  Se219  1  0.75601442  0.42295947  0.31636844  1
  Se  Se220  1  0.74614352  0.41288790  0.79970543  1
  Se  Se221  1  0.74370413  0.75166800  0.30219403  1
  Se  Se222  1  0.74738257  0.75448552  0.80109665  1
  Se  Se223  1  0.23517117  0.09538081  0.18773686  1
  Se  Se224  1  0.24949852  0.08228364  0.70251062  1
  Se  Se225  1  0.25158796  0.41122639  0.19516944  1
  Se  Se226  1  0.24525572  0.42536978  0.68640137  1
  Se  Se227  1  0.24516595  0.75871199  0.19494932  1
  Se  Se228  1  0.25079096  0.75149688  0.70374626  1
  Se  Se229  1  0.57305434  0.08715902  0.18385481  1
  Se  Se230  1  0.57672902  0.09023002  0.69674689  1
  Se  Se231  1  0.58055207  0.42060374  0.18764343  1
  Se  Se232  1  0.58122887  0.41708896  0.69725341  1
  Se  Se233  1  0.58759186  0.74289233  0.19106541  1
  Se  Se234  1  0.58808783  0.75300855  0.69599876  1
  Se  Se235  1  0.90899513  0.08106094  0.18514763  1
  Se  Se236  1  0.90901020  0.07544779  0.69661984  1
  Se  Se237  1  0.91206190  0.41507599  0.19977683  1
  Se  Se238  1  0.91660486  0.41297860  0.69991673  1
  Se  Se239  1  0.91558372  0.75922956  0.19069474  1
  Se  Se240  1  0.91858592  0.75242263  0.70022541  1
  Se  Se241  1  0.06299071  0.25636213  0.18976097  1
  Se  Se242  1  0.07962741  0.24866894  0.70099747  1
  Se  Se243  1  0.09103242  0.57569493  0.18655290  1
  Se  Se244  1  0.08127442  0.58409920  0.70283538  1
  Se  Se245  1  0.08427984  0.91176865  0.18940588  1
  Se  Se246  1  0.07853161  0.91857865  0.70129856  1
  Se  Se247  1  0.41176642  0.25320520  0.18994105  1
  Se  Se248  1  0.42661304  0.24461153  0.69151351  1
  Se  Se249  1  0.42224009  0.57810119  0.18278608  1
  Se  Se250  1  0.41570968  0.58602991  0.69998986  1
  Se  Se251  1  0.43009177  0.90695582  0.18536393  1
  Se  Se252  1  0.41739238  0.91596651  0.70173406  1
  Se  Se253  1  0.74707398  0.23653167  0.18731097  1
  Se  Se254  1  0.75075054  0.24397198  0.70123865  1
  Se  Se255  1  0.75072746  0.58977802  0.20054572  1
  Se  Se256  1  0.74787294  0.58651830  0.70023926  1
  Se  Se257  1  0.76093369  0.90733628  0.18765592  1
  Se  Se258  1  0.75371974  0.91551105  0.68828212  1
