# generated using pymatgen
data_In86Cu29Se144
_symmetry_space_group_name_H-M   'P 1'
_cell_length_a   17.58697138
_cell_length_b   17.59005633
_cell_length_c   23.44521093
_cell_angle_alpha   89.96946511
_cell_angle_beta   90.01385413
_cell_angle_gamma   90.00914565
_symmetry_Int_Tables_number   1
_chemical_formula_structural   In86Cu29Se144
_chemical_formula_sum   'In86 Cu29 Se144'
_cell_volume   7252.91105313
_cell_formula_units_Z   1
loop_
 _symmetry_equiv_pos_site_id
 _symmetry_equiv_pos_as_xyz
  1  'x, y, z'
loop_
 _atom_site_type_symbol
 _atom_site_label
 _atom_site_symmetry_multiplicity
 _atom_site_fract_x
 _atom_site_fract_y
 _atom_site_fract_z
 _atom_site_occupancy
  In  In0  1  0.00543743  0.15914380  0.13568617  1
  In  In1  1  0.00149293  0.16476538  0.62300946  1
  In  In2  1  -0.01221908  0.48681781  0.11626153  1
  In  In3  1  -0.00250528  0.52025042  0.63049001  1
  In  In4  1  -0.00153801  0.84139310  0.11793114  1
  In  In5  1  -0.01695035  0.81861815  0.61161306  1
  In  In6  1  0.34367076  0.15445539  0.13696227  1
  In  In7  1  0.32866485  0.15939089  0.62009242  1
  In  In8  1  0.32793044  0.49315376  0.12055163  1
  In  In9  1  0.34408885  0.48919236  0.62041007  1
  In  In10  1  0.34683648  0.83507557  0.12500210  1
  In  In11  1  0.34870722  0.84144237  0.61607501  1
  In  In12  1  0.64431444  0.16540854  0.11721505  1
  In  In13  1  0.66396652  0.16579439  0.63261679  1
  In  In14  1  0.67744968  0.50348444  0.11184462  1
  In  In15  1  0.66883582  0.50530556  0.62727744  1
  In  In16  1  0.66662319  0.83060701  0.12512088  1
  In  In17  1  0.67226853  0.82855096  0.63206715  1
  In  In18  1  0.16000613  -0.00443431  0.36540765  1
  In  In19  1  0.16914524  -0.01175843  0.87463879  1
  In  In20  1  0.16555515  0.33187152  0.36031715  1
  In  In21  1  0.17316980  0.34324957  0.87918556  1
  In  In22  1  0.17934378  0.67214798  0.37905931  1
  In  In23  1  0.15125326  0.66547008  0.87692592  1
  In  In24  1  0.49549187  -0.00571055  0.37170375  1
  In  In25  1  0.50279844  -0.00215908  0.87923463  1
  In  In26  1  0.49639257  0.34728695  0.37407505  1
  In  In27  1  0.51355676  0.32312668  0.89198341  1
  In  In28  1  0.51060085  0.65853701  0.38109978  1
  In  In29  1  0.50652224  0.66640146  0.87429821  1
  In  In30  1  0.82608050  -0.00849440  0.36593658  1
  In  In31  1  0.82051820  -0.00568141  0.87854274  1
  In  In32  1  0.84331963  0.33677386  0.37466862  1
  In  In33  1  0.82817112  0.35362242  0.88236407  1
  In  In34  1  0.82061466  0.67942381  0.38267543  1
  In  In35  1  0.81730078  0.67338908  0.86454628  1
  In  In36  1  0.00917474  0.17034780  0.35713992  1
  In  In37  1  -0.00929439  0.16427479  0.88079695  1
  In  In38  1  -0.00480034  0.49072741  0.37230729  1
  In  In39  1  -0.04323208  0.56241103  0.92747534  1
  In  In40  1  -0.00721978  0.84135408  0.37875513  1
  In  In41  1  -0.00543565  0.82450276  0.87419774  1
  In  In42  1  0.32676165  0.16495580  0.35948116  1
  In  In43  1  0.34797477  0.16771212  0.87928353  1
  In  In44  1  0.34145937  0.49840424  0.37188459  1
  In  In45  1  0.34088661  0.49505478  0.88415167  1
  In  In46  1  0.33153183  0.84161541  0.38391809  1
  In  In47  1  0.33857159  0.84946763  0.86989290  1
  In  In48  1  0.67713675  0.16228424  0.37036847  1
  In  In49  1  0.65288441  0.15367072  0.87037598  1
  In  In50  1  0.66070646  0.51245034  0.37867206  1
  In  In51  1  0.66177581  0.50148726  0.87249524  1
  In  In52  1  0.66675409  0.83266284  0.37544434  1
  In  In53  1  0.66473997  0.83355737  0.87290458  1
  In  In54  1  0.16477379  0.00533619  0.13954255  1
  In  In55  1  0.18281949  -0.00415179  0.62907965  1
  In  In56  1  0.15758634  0.33403681  0.13779314  1
  In  In57  1  0.17362919  0.32366345  0.62227286  1
  In  In58  1  0.17063270  0.66460121  0.11736878  1
  In  In59  1  0.15016679  0.66725516  0.62798232  1
  In  In60  1  0.50129665  -0.00320193  0.12701561  1
  In  In61  1  0.52351523  -0.02702517  0.64606340  1
  In  In62  1  0.50116642  0.32497273  0.11372244  1
  In  In63  1  0.50143630  0.35006667  0.61972771  1
  In  In64  1  0.51093395  0.67906297  0.11627719  1
  In  In65  1  0.51723454  0.67777939  0.62443309  1
  In  In66  1  0.83970469  -0.01600077  0.12758991  1
  In  In67  1  0.83164760  -0.02401606  0.62910762  1
  In  In68  1  0.82946557  0.34581965  0.11986977  1
  In  In69  1  0.81523650  0.33301549  0.62811722  1
  In  In70  1  0.82486033  0.65583321  0.11520390  1
  In  In71  1  0.83519571  0.66969789  0.62924467  1
  In  In72  1  0.33941389  0.33297900  0.74450170  1
  In  In73  1  0.66671395  0.33096690  0.24182699  1
  In  In74  1  0.16584967  0.50467152  0.49776433  1
  In  In75  1  -0.00480497  -0.00586881  0.75521331  1
  In  In76  1  -0.00509999  0.66593034  0.24782728  1
  In  In77  1  0.83595389  0.16118691  0.49500020  1
  In  In78  1  0.16928985  0.16359453  0.01833561  1
  In  In79  1  0.34035721  0.67609407  0.75142157  1
  In  In80  1  0.82752946  0.16526999  -0.00057893  1
  In  In81  1  0.16806919  0.82910142  0.00010113  1
  In  In82  1  0.34206577  0.66727340  0.25381988  1
  In  In83  1  0.16877637  0.16507542  0.49449542  1
  In  In84  1  0.49677596  0.16393676  0.49260076  1
  In  In85  1  -0.00212925  0.34869221  0.76290066  1
  Cu  Cu86  1  0.00740720  0.33125982  0.00516794  1
  Cu  Cu87  1  0.83271556  0.16046834  0.24669392  1
  Cu  Cu88  1  0.16457659  0.50734368  0.75548304  1
  Cu  Cu89  1  0.50622354  0.50021857  0.74950097  1
  Cu  Cu90  1  0.33763000  0.00471846  0.00364819  1
  Cu  Cu91  1  0.82930322  0.50064246  0.24314844  1
  Cu  Cu92  1  0.33892790  0.66731124  -0.00237930  1
  Cu  Cu93  1  0.50124013  0.50171205  0.24892525  1
  Cu  Cu94  1  0.33732760  0.66932403  0.50076579  1
  Cu  Cu95  1  0.50041636  0.16364418  0.24684935  1
  Cu  Cu96  1  0.82724243  0.82969550  0.24971665  1
  Cu  Cu97  1  0.66130643  -0.00757040  -0.00080314  1
  Cu  Cu98  1  0.66912280  0.66581140  0.50549628  1
  Cu  Cu99  1  0.83302235  0.50743965  0.75893421  1
  Cu  Cu100  1  0.33822191  0.33380014  0.00452277  1
  Cu  Cu101  1  0.00217034  -0.00563203  0.49167709  1
  Cu  Cu102  1  -0.00617057  0.67149551  0.50231659  1
  Cu  Cu103  1  0.82672421  0.16781113  0.75141083  1
  Cu  Cu104  1  0.16862620  0.16667765  0.74735038  1
  Cu  Cu105  1  -0.00174045  0.34284644  0.49849854  1
  Cu  Cu106  1  0.16587596  0.83376614  0.74875260  1
  Cu  Cu107  1  0.67054951  -0.01107086  0.50457328  1
  Cu  Cu108  1  0.16072985  0.49384954  0.24392457  1
  Cu  Cu109  1  0.16865442  0.83462827  0.25129889  1
  Cu  Cu110  1  0.50492706  0.83753139  0.24894766  1
  Cu  Cu111  1  0.34135378  -0.00526299  0.50124120  1
  Cu  Cu112  1  0.66441552  0.66933355  -0.00584959  1
  Cu  Cu113  1  0.66408695  0.34568568  0.50128037  1
  Cu  Cu114  1  0.49757042  0.16399762  0.75610084  1
  Se  Se115  1  0.07229723  0.06573478  0.06043158  1
  Se  Se116  1  0.07930313  0.07268582  0.55622751  1
  Se  Se117  1  0.09131458  0.41375015  0.05832503  1
  Se  Se118  1  0.07874354  0.41455425  0.56429834  1
  Se  Se119  1  0.07192700  0.73808312  0.05333560  1
  Se  Se120  1  0.08660681  0.75070105  0.54993652  1
  Se  Se121  1  0.42161026  0.08580129  0.05810732  1
  Se  Se122  1  0.42229024  0.07251973  0.56163590  1
  Se  Se123  1  0.42170961  0.42184274  0.05321837  1
  Se  Se124  1  0.41351863  0.41064855  0.54526418  1
  Se  Se125  1  0.41784513  0.75504772  0.04984774  1
  Se  Se126  1  0.42545024  0.74778226  0.55372531  1
  Se  Se127  1  0.74157597  0.07299934  0.06127766  1
  Se  Se128  1  0.74720379  0.07798491  0.56101963  1
  Se  Se129  1  0.75112093  0.41327963  0.04393695  1
  Se  Se130  1  0.75170236  0.42210769  0.55538990  1
  Se  Se131  1  0.74671013  0.74895976  0.05278126  1
  Se  Se132  1  0.75219557  0.75040825  0.55841571  1
  Se  Se133  1  0.26114955  0.25699367  0.07058271  1
  Se  Se134  1  0.26481848  0.25906537  0.54810301  1
  Se  Se135  1  0.25556486  0.58504593  0.05092830  1
  Se  Se136  1  0.25583276  0.59075699  0.56302336  1
  Se  Se137  1  0.25290089  0.92519168  0.06187450  1
  Se  Se138  1  0.25046196  0.91566460  0.55212102  1
  Se  Se139  1  0.60100939  0.26569658  0.04567470  1
  Se  Se140  1  0.58979247  0.25228278  0.55524146  1
  Se  Se141  1  0.58405037  0.58566030  0.05033672  1
  Se  Se142  1  0.58230977  0.58116542  0.55568205  1
  Se  Se143  1  0.57895127  0.91128143  0.05679146  1
  Se  Se144  1  0.58686220  0.90900500  0.55944195  1
  Se  Se145  1  0.92532929  0.24782064  0.06158362  1
  Se  Se146  1  0.92081175  0.25811734  0.55800186  1
  Se  Se147  1  0.91857902  0.58145396  0.05042176  1
  Se  Se148  1  0.91394465  0.58522434  0.55510577  1
  Se  Se149  1  0.90660068  0.90727711  0.04851508  1
  Se  Se150  1  0.91432678  0.91963751  0.54827635  1
  Se  Se151  1  0.07470457  0.25933364  0.43939003  1
  Se  Se152  1  0.08471222  0.24825593  0.94476826  1
  Se  Se153  1  0.07240575  0.59383228  0.43748452  1
  Se  Se154  1  0.10093549  0.57058408  0.94987600  1
  Se  Se155  1  0.09131771  0.91348402  0.44253862  1
  Se  Se156  1  0.07367535  0.92024319  0.94295519  1
  Se  Se157  1  0.40687869  0.25213038  0.43298689  1
  Se  Se158  1  0.41935013  0.24493562  0.95525036  1
  Se  Se159  1  0.41320153  0.58338116  0.44403866  1
  Se  Se160  1  0.42391535  0.58559280  0.94515581  1
  Se  Se161  1  0.42836588  0.91287397  0.44972079  1
  Se  Se162  1  0.41535389  0.91800517  0.94899863  1
  Se  Se163  1  0.74223061  0.26057395  0.44246830  1
  Se  Se164  1  0.74284056  0.24949132  0.93405560  1
  Se  Se165  1  0.75125544  0.58282216  0.44910181  1
  Se  Se166  1  0.74664911  0.58628007  0.93960392  1
  Se  Se167  1  0.75438373  0.91473016  0.44394580  1
  Se  Se168  1  0.74731202  0.90882815  0.94966974  1
  Se  Se169  1  0.26051048  0.07299575  0.43863061  1
  Se  Se170  1  0.25143087  0.08000741  0.94417310  1
  Se  Se171  1  0.24849312  0.41178937  0.43611426  1
  Se  Se172  1  0.25373895  0.41636970  0.95282546  1
  Se  Se173  1  0.25142907  0.75376437  0.45197036  1
  Se  Se174  1  0.25969336  0.74629438  0.93439366  1
  Se  Se175  1  0.59810063  0.07406927  0.44180494  1
  Se  Se176  1  0.57997856  0.08378693  0.95143299  1
  Se  Se177  1  0.57983275  0.42306354  0.44474725  1
  Se  Se178  1  0.56753654  0.43787894  0.94402562  1
  Se  Se179  1  0.58814875  0.74813922  0.44729219  1
  Se  Se180  1  0.57932835  0.75539353  0.94483517  1
  Se  Se181  1  0.92817023  0.07975212  0.43131097  1
  Se  Se182  1  0.92086270  0.06827579  0.94690893  1
  Se  Se183  1  0.91083900  0.42420879  0.44894646  1
  Se  Se184  1  0.92818764  0.41413987  0.94813352  1
  Se  Se185  1  0.91331085  0.75617499  0.44705398  1
  Se  Se186  1  0.91734138  0.73309605  0.93727832  1
  Se  Se187  1  0.24835364  0.25146275  0.29401029  1
  Se  Se188  1  0.24725154  0.24688220  0.80907411  1
  Se  Se189  1  0.23988674  0.57529832  0.30446854  1
  Se  Se190  1  0.25541555  0.58066865  0.81147473  1
  Se  Se191  1  0.25533807  0.91283919  0.30544018  1
  Se  Se192  1  0.24925951  0.92024879  0.79805794  1
  Se  Se193  1  0.57762789  0.24571320  0.30945907  1
  Se  Se194  1  0.57786077  0.25273371  0.80737331  1
  Se  Se195  1  0.58408845  0.58570674  0.30122648  1
  Se  Se196  1  0.58535500  0.58805071  0.80058986  1
  Se  Se197  1  0.58767276  0.91905986  0.30559806  1
  Se  Se198  1  0.59629102  0.93410222  0.80885528  1
  Se  Se199  1  0.90905439  0.24964321  0.30078797  1
  Se  Se200  1  0.90637358  0.24719478  0.81163108  1
  Se  Se201  1  0.90336143  0.58013760  0.30946298  1
  Se  Se202  1  0.91801343  0.57710006  0.81951352  1
  Se  Se203  1  0.91618944  0.91169141  0.30007585  1
  Se  Se204  1  0.89970065  0.90385542  0.80676464  1
  Se  Se205  1  0.08535989  0.07901955  0.29499544  1
  Se  Se206  1  0.08813411  0.09161186  0.81072348  1
  Se  Se207  1  0.07419229  0.41573125  0.29886008  1
  Se  Se208  1  0.08660453  0.43546069  0.82101663  1
  Se  Se209  1  0.08951646  0.75148990  0.30947950  1
  Se  Se210  1  0.08346601  0.75230487  0.80293971  1
  Se  Se211  1  0.41922329  0.07979357  0.30145739  1
  Se  Se212  1  0.41542803  0.07971414  0.80835719  1
  Se  Se213  1  0.41529657  0.41713818  0.29713118  1
  Se  Se214  1  0.42558053  0.41893486  0.80866773  1
  Se  Se215  1  0.42723764  0.75883395  0.31421884  1
  Se  Se216  1  0.43238178  0.76731868  0.80571559  1
  Se  Se217  1  0.74644666  0.07829863  0.29734028  1
  Se  Se218  1  0.75047657  0.08148267  0.80656148  1
  Se  Se219  1  0.75040138  0.42107888  0.30755345  1
  Se  Se220  1  0.74790302  0.41832283  0.80363640  1
  Se  Se221  1  0.74433483  0.74671325  0.30302640  1
  Se  Se222  1  0.72351564  0.74185621  0.79552163  1
  Se  Se223  1  0.25134059  0.08401760  0.20382774  1
  Se  Se224  1  0.25558804  0.08512438  0.69843434  1
  Se  Se225  1  0.25446948  0.41628864  0.19710790  1
  Se  Se226  1  0.23959627  0.42657062  0.69234733  1
  Se  Se227  1  0.24670668  0.75284889  0.19142431  1
  Se  Se228  1  0.24651666  0.75613812  0.68627921  1
  Se  Se229  1  0.58576570  0.08084241  0.19617494  1
  Se  Se230  1  0.58428531  0.08432685  0.70243131  1
  Se  Se231  1  0.58008808  0.42504209  0.18458791  1
  Se  Se232  1  0.58649518  0.41555842  0.69437362  1
  Se  Se233  1  0.58338866  0.74879592  0.19696472  1
  Se  Se234  1  0.59273666  0.74405908  0.70376390  1
  Se  Se235  1  0.91505180  0.07408416  0.19615342  1
  Se  Se236  1  0.90889309  0.08936256  0.69112917  1
  Se  Se237  1  0.91403663  0.41406823  0.19565408  1
  Se  Se238  1  0.90779539  0.42516937  0.69263271  1
  Se  Se239  1  0.90690389  0.75292468  0.18584741  1
  Se  Se240  1  0.92093498  0.75275163  0.69579343  1
  Se  Se241  1  0.08195769  0.24447538  0.20318680  1
  Se  Se242  1  0.08316949  0.25012436  0.69617339  1
  Se  Se243  1  0.08391250  0.57760486  0.18548142  1
  Se  Se244  1  0.07830911  0.59062186  0.70595283  1
  Se  Se245  1  0.08060608  0.90818536  0.19509806  1
  Se  Se246  1  0.08343660  0.91266865  0.68750342  1
  Se  Se247  1  0.42572745  0.25430147  0.19308821  1
  Se  Se248  1  0.42786015  0.24072359  0.68502018  1
  Se  Se249  1  0.42371077  0.58253901  0.18550875  1
  Se  Se250  1  0.42214533  0.57812258  0.69007665  1
  Se  Se251  1  0.41575472  0.91856253  0.19938098  1
  Se  Se252  1  0.40349490  0.92385185  0.69664708  1
  Se  Se253  1  0.75532959  0.23911314  0.18222246  1
  Se  Se254  1  0.74210644  0.25284289  0.70158003  1
  Se  Se255  1  0.74563439  0.58307601  0.19135141  1
  Se  Se256  1  0.75277827  0.58447655  0.69732581  1
  Se  Se257  1  0.74554596  0.91513311  0.19628859  1
  Se  Se258  1  0.73268065  0.93132298  0.70008319  1
