# generated using pymatgen
data_In86Cu29Se144
_symmetry_space_group_name_H-M   'P 1'
_cell_length_a   17.58146261
_cell_length_b   17.58304906
_cell_length_c   23.44095217
_cell_angle_alpha   89.97641932
_cell_angle_beta   89.99557860
_cell_angle_gamma   89.99037309
_symmetry_Int_Tables_number   1
_chemical_formula_structural   In86Cu29Se144
_chemical_formula_sum   'In86 Cu29 Se144'
_cell_volume   7246.43487795
_cell_formula_units_Z   1
loop_
 _symmetry_equiv_pos_site_id
 _symmetry_equiv_pos_as_xyz
  1  'x, y, z'
loop_
 _atom_site_type_symbol
 _atom_site_label
 _atom_site_symmetry_multiplicity
 _atom_site_fract_x
 _atom_site_fract_y
 _atom_site_fract_z
 _atom_site_occupancy
  In  In0  1  0.00952012  0.16287416  0.13761191  1
  In  In1  1  0.00045429  0.16555837  0.62698764  1
  In  In2  1  0.00018913  0.50355831  0.13703063  1
  In  In3  1  -0.00887586  0.50790596  0.62927147  1
  In  In4  1  0.00028316  0.83139018  0.12082289  1
  In  In5  1  0.01225214  0.82613935  0.62927397  1
  In  In6  1  0.30157149  0.15959950  0.10842483  1
  In  In7  1  0.32167666  0.16983437  0.62993945  1
  In  In8  1  0.33943994  0.50118499  0.12550057  1
  In  In9  1  0.34037143  0.49693985  0.63698167  1
  In  In10  1  0.31849017  0.82495010  0.11062215  1
  In  In11  1  0.32748333  0.83672965  0.63326246  1
  In  In12  1  0.66444035  0.16655468  0.12299845  1
  In  In13  1  0.67847408  0.16282555  0.63204162  1
  In  In14  1  0.67900581  0.50317788  0.12533802  1
  In  In15  1  0.66657636  0.50152707  0.62587693  1
  In  In16  1  0.66488788  0.81630819  0.12301708  1
  In  In17  1  0.67108792  0.82956060  0.62955600  1
  In  In18  1  0.15006391  0.01447135  0.38942626  1
  In  In19  1  0.16681589  0.00459745  0.87835309  1
  In  In20  1  0.15420566  0.32863790  0.37521324  1
  In  In21  1  0.16096600  0.32298648  0.87002675  1
  In  In22  1  0.17503630  0.67460276  0.37123709  1
  In  In23  1  0.17476462  0.68184898  0.87277123  1
  In  In24  1  0.49424166  0.00580435  0.37755324  1
  In  In25  1  0.49390348  -0.00410412  0.86453158  1
  In  In26  1  0.51303435  0.34060603  0.38154759  1
  In  In27  1  0.48911404  0.33021656  0.85207387  1
  In  In28  1  0.49492571  0.65922942  0.37619837  1
  In  In29  1  0.49608543  0.65991094  0.86054813  1
  In  In30  1  0.85410736  -0.00614137  0.37960279  1
  In  In31  1  0.82632041  -0.01092365  0.86967928  1
  In  In32  1  0.84157014  0.32748143  0.38895274  1
  In  In33  1  0.83861179  0.33387673  0.86799286  1
  In  In34  1  0.83128479  0.66112759  0.37175549  1
  In  In35  1  0.84202493  0.67518318  0.86838869  1
  In  In36  1  0.00155294  0.16616721  0.38008041  1
  In  In37  1  0.02097735  0.17553063  0.87438556  1
  In  In38  1  -0.00841670  0.49159277  0.37294084  1
  In  In39  1  -0.00352721  0.49172768  0.86828643  1
  In  In40  1  0.01090262  0.84624515  0.36964425  1
  In  In41  1  -0.00209651  0.83355825  0.87615009  1
  In  In42  1  0.32406719  0.15904226  0.37617222  1
  In  In43  1  0.32094322  0.16277149  0.86902868  1
  In  In44  1  0.32956708  0.51558729  0.37833669  1
  In  In45  1  0.33707810  0.50511165  0.85841823  1
  In  In46  1  0.32918840  0.81899073  0.37332884  1
  In  In47  1  0.31911163  0.83384998  0.87906082  1
  In  In48  1  0.66660900  0.18519281  0.38188866  1
  In  In49  1  0.66236551  0.16335295  0.86068915  1
  In  In50  1  0.66317721  0.51622558  0.39501812  1
  In  In51  1  0.65757954  0.49684066  0.85454779  1
  In  In52  1  0.68024472  0.82409995  0.37698277  1
  In  In53  1  0.67258375  0.83705381  0.86441260  1
  In  In54  1  0.15802951  -0.01064499  0.11546988  1
  In  In55  1  0.16401774  -0.00194952  0.62944780  1
  In  In56  1  0.14911605  0.31690423  0.10781051  1
  In  In57  1  0.17686630  0.32556518  0.63158478  1
  In  In58  1  0.16341701  0.67153933  0.12745700  1
  In  In59  1  0.16109806  0.67306704  0.63135489  1
  In  In60  1  0.49900809  0.00264351  0.12200944  1
  In  In61  1  0.50106149  -0.00584766  0.63558532  1
  In  In62  1  0.48740254  0.33905149  0.12032522  1
  In  In63  1  0.49328725  0.35315736  0.63677978  1
  In  In64  1  0.50684190  0.66371650  0.13344485  1
  In  In65  1  0.51710216  0.63956430  0.64962506  1
  In  In66  1  0.85497145  0.00355138  0.12420551  1
  In  In67  1  0.82776061  0.01037431  0.63213097  1
  In  In68  1  0.83639714  0.34542018  0.12363582  1
  In  In69  1  0.83780258  0.33349151  0.62854078  1
  In  In70  1  0.82752717  0.66649332  0.12863813  1
  In  In71  1  0.83685351  0.66301999  0.62251488  1
  In  In72  1  0.49854670  0.17664427  0.51668503  1
  In  In73  1  0.83761875  0.82864363  0.50783241  1
  In  In74  1  0.32447766  0.33497057  0.24787004  1
  In  In75  1  0.49020764  0.16416619  -0.01954700  1
  In  In76  1  0.84235623  0.16226076  0.00209221  1
  In  In77  1  0.49628336  0.50202214  -0.01562390  1
  In  In78  1  0.67660850  0.33941615  0.25488256  1
  In  In79  1  0.83790425  0.50121895  -0.01274370  1
  In  In80  1  0.49057627  0.82820680  -0.01498195  1
  In  In81  1  0.67981486  -0.01046494  0.26325384  1
  In  In82  1  0.16590423  0.49654242  0.49987014  1
  In  In83  1  0.17088434  0.50400333  -0.00758057  1
  In  In84  1  0.32111286  -0.01606109  0.23208936  1
  In  In85  1  0.49417842  0.82546720  0.50137293  1
  Cu  Cu86  1  0.66921447  0.00781595  0.50656774  1
  Cu  Cu87  1  0.50115011  0.17039255  0.74305321  1
  Cu  Cu88  1  0.00044335  0.67078003  -0.00144516  1
  Cu  Cu89  1  0.33592930  0.66689663  0.50628354  1
  Cu  Cu90  1  0.33822754  0.33368351  0.50801668  1
  Cu  Cu91  1  0.83444840  0.50408366  0.25435711  1
  Cu  Cu92  1  0.84417029  0.17132125  0.25870901  1
  Cu  Cu93  1  0.00163170  -0.00340378  -0.00231605  1
  Cu  Cu94  1  0.50290640  0.81952491  0.25080836  1
  Cu  Cu95  1  0.17110578  0.50526423  0.25115819  1
  Cu  Cu96  1  0.66050589  0.32386915  -0.00941782  1
  Cu  Cu97  1  0.16720139  0.83570789  0.24525129  1
  Cu  Cu98  1  0.67313426  0.34493447  0.50756857  1
  Cu  Cu99  1  0.67116054  0.66378899  -0.00348902  1
  Cu  Cu100  1  0.67129783  -0.01580456  -0.00512575  1
  Cu  Cu101  1  0.00321275  0.66861134  0.50048664  1
  Cu  Cu102  1  0.83731842  0.83018927  0.74576400  1
  Cu  Cu103  1  0.48981784  0.16299890  0.24334133  1
  Cu  Cu104  1  0.00407962  0.00592139  0.50415015  1
  Cu  Cu105  1  0.83948656  0.82953806  0.24758721  1
  Cu  Cu106  1  0.16095689  0.83838237  0.75544863  1
  Cu  Cu107  1  0.83373758  0.49947791  0.74573538  1
  Cu  Cu108  1  0.16158151  0.50119257  0.74902628  1
  Cu  Cu109  1  0.49549045  0.83870137  0.75218300  1
  Cu  Cu110  1  0.32010003  -0.00326263  0.50590846  1
  Cu  Cu111  1  0.84209720  0.16413450  0.75350152  1
  Cu  Cu112  1  0.16557314  0.16129332  0.74930730  1
  Cu  Cu113  1  0.50472508  0.50147625  0.25539479  1
  Cu  Cu114  1  0.00108321  0.32865653  0.50386079  1
  Se  Se115  1  0.07378096  0.08375385  0.05698317  1
  Se  Se116  1  0.08844938  0.08607637  0.55811506  1
  Se  Se117  1  0.07164053  0.42615608  0.05545739  1
  Se  Se118  1  0.07992336  0.41085399  0.56507213  1
  Se  Se119  1  0.08619191  0.74970679  0.05265217  1
  Se  Se120  1  0.08798125  0.75002080  0.55246820  1
  Se  Se121  1  0.40978401  0.07942169  0.05312666  1
  Se  Se122  1  0.41030887  0.07225136  0.56283802  1
  Se  Se123  1  0.40457381  0.41240187  0.04598628  1
  Se  Se124  1  0.41549315  0.42313780  0.55788980  1
  Se  Se125  1  0.42024035  0.73612813  0.05729521  1
  Se  Se126  1  0.41352599  0.74293501  0.57007555  1
  Se  Se127  1  0.74189610  0.07136484  0.05742790  1
  Se  Se128  1  0.75673428  0.09020756  0.55429199  1
  Se  Se129  1  0.74059048  0.40889568  0.04755288  1
  Se  Se130  1  0.76005728  0.42298383  0.56043853  1
  Se  Se131  1  0.75242103  0.74500088  0.05146704  1
  Se  Se132  1  0.73674591  0.73848020  0.55492709  1
  Se  Se133  1  0.25749323  0.26816039  0.04456154  1
  Se  Se134  1  0.25001248  0.24922324  0.55287830  1
  Se  Se135  1  0.25614924  0.58970394  0.05888103  1
  Se  Se136  1  0.25135289  0.58509246  0.56329268  1
  Se  Se137  1  0.26035194  0.92980539  0.05030041  1
  Se  Se138  1  0.24300539  0.90996968  0.55923681  1
  Se  Se139  1  0.57908710  0.25148014  0.05355891  1
  Se  Se140  1  0.59371948  0.26446590  0.57066918  1
  Se  Se141  1  0.58918245  0.58283455  0.05421020  1
  Se  Se142  1  0.57428758  0.57971991  0.56014737  1
  Se  Se143  1  0.58352501  0.91248225  0.05462047  1
  Se  Se144  1  0.58765861  0.92137637  0.55828322  1
  Se  Se145  1  0.92342777  0.25448957  0.06410312  1
  Se  Se146  1  0.91632456  0.24741043  0.55749075  1
  Se  Se147  1  0.92138738  0.58593744  0.05723206  1
  Se  Se148  1  0.91972211  0.58420485  0.55051525  1
  Se  Se149  1  0.91609498  0.91431225  0.05032783  1
  Se  Se150  1  0.92287916  0.92428005  0.56514516  1
  Se  Se151  1  0.08600519  0.24730031  0.45136311  1
  Se  Se152  1  0.09378723  0.24921542  0.95174346  1
  Se  Se153  1  0.08103210  0.58771657  0.43738265  1
  Se  Se154  1  0.07353699  0.59013040  0.93453416  1
  Se  Se155  1  0.08211952  0.91358332  0.45296166  1
  Se  Se156  1  0.08458490  0.91437789  0.94400256  1
  Se  Se157  1  0.41311182  0.25361919  0.44086065  1
  Se  Se158  1  0.40515778  0.26597007  0.93158145  1
  Se  Se159  1  0.41711339  0.58217663  0.45191134  1
  Se  Se160  1  0.40211979  0.59753874  0.93688172  1
  Se  Se161  1  0.40402857  0.92372188  0.44300025  1
  Se  Se162  1  0.40371398  0.93398571  0.94113734  1
  Se  Se163  1  0.74956212  0.25253927  0.45663886  1
  Se  Se164  1  0.74657605  0.24504706  0.93640421  1
  Se  Se165  1  0.76433454  0.58830679  0.45248136  1
  Se  Se166  1  0.74000197  0.58330196  0.92973632  1
  Se  Se167  1  0.74679940  0.92511433  0.44609183  1
  Se  Se168  1  0.75489134  0.90273424  0.94357748  1
  Se  Se169  1  0.24652637  0.08903718  0.45351220  1
  Se  Se170  1  0.23580099  0.10121875  0.94581036  1
  Se  Se171  1  0.25912596  0.40690008  0.43921737  1
  Se  Se172  1  0.25614049  0.41704386  0.92833229  1
  Se  Se173  1  0.25140414  0.74689053  0.45056088  1
  Se  Se174  1  0.24739303  0.75073970  0.95277361  1
  Se  Se175  1  0.58519281  0.08520429  0.44738670  1
  Se  Se176  1  0.59336177  0.06980167  0.93710448  1
  Se  Se177  1  0.58205988  0.42180166  0.45622833  1
  Se  Se178  1  0.58550463  0.40504079  0.93006834  1
  Se  Se179  1  0.59051367  0.74240654  0.44260911  1
  Se  Se180  1  0.58997202  0.73885157  0.93352704  1
  Se  Se181  1  0.91661608  0.08578400  0.45149496  1
  Se  Se182  1  0.92320061  0.07564077  0.93454041  1
  Se  Se183  1  0.92127852  0.41900494  0.45366405  1
  Se  Se184  1  0.93011791  0.39895930  0.94502574  1
  Se  Se185  1  0.92555997  0.75061009  0.43804392  1
  Se  Se186  1  0.91266745  0.75155081  0.94702293  1
  Se  Se187  1  0.23851760  0.23883913  0.30543714  1
  Se  Se188  1  0.24939191  0.25128601  0.79734763  1
  Se  Se189  1  0.25583087  0.58903522  0.30120666  1
  Se  Se190  1  0.24114008  0.58808565  0.80177620  1
  Se  Se191  1  0.24315205  0.91401101  0.31229655  1
  Se  Se192  1  0.24768465  0.92093017  0.80677967  1
  Se  Se193  1  0.57185755  0.24397544  0.30284105  1
  Se  Se194  1  0.58823304  0.25367516  0.79340075  1
  Se  Se195  1  0.58813479  0.57976141  0.31166511  1
  Se  Se196  1  0.58482464  0.59022073  0.79115397  1
  Se  Se197  1  0.57244238  0.90455040  0.31500802  1
  Se  Se198  1  0.58645264  0.92110526  0.79945458  1
  Se  Se199  1  0.92192517  0.25771561  0.31214859  1
  Se  Se200  1  0.92520266  0.24728807  0.80668589  1
  Se  Se201  1  0.92277323  0.58641294  0.30423790  1
  Se  Se202  1  0.91619528  0.58065860  0.80337453  1
  Se  Se203  1  0.91893290  0.91773047  0.29920146  1
  Se  Se204  1  0.91684839  0.91336730  0.80244663  1
  Se  Se205  1  0.07708172  0.07903322  0.30975266  1
  Se  Se206  1  0.08206857  0.07941601  0.80361778  1
  Se  Se207  1  0.08913266  0.42260025  0.30606068  1
  Se  Se208  1  0.08287029  0.41224277  0.80160419  1
  Se  Se209  1  0.08709218  0.75364618  0.30393870  1
  Se  Se210  1  0.07831278  0.75001933  0.80555798  1
  Se  Se211  1  0.41072008  0.07950334  0.30076758  1
  Se  Se212  1  0.41902146  0.09222539  0.80299300  1
  Se  Se213  1  0.42149467  0.41931884  0.31209378  1
  Se  Se214  1  0.43080310  0.43615028  0.79090109  1
  Se  Se215  1  0.41549406  0.74233627  0.30485204  1
  Se  Se216  1  0.41293684  0.76149361  0.81008504  1
  Se  Se217  1  0.75787271  0.09514458  0.31870618  1
  Se  Se218  1  0.75218621  0.07897919  0.80026649  1
  Se  Se219  1  0.75758948  0.42567162  0.32078341  1
  Se  Se220  1  0.75341205  0.41205212  0.79929023  1
  Se  Se221  1  0.75437913  0.74923197  0.30120208  1
  Se  Se222  1  0.75116273  0.74687854  0.79851763  1
  Se  Se223  1  0.23098387  0.08832991  0.19081909  1
  Se  Se224  1  0.25203523  0.07739680  0.69844272  1
  Se  Se225  1  0.23747512  0.42191032  0.18405300  1
  Se  Se226  1  0.24916578  0.41629757  0.70017234  1
  Se  Se227  1  0.25408245  0.75314748  0.19406120  1
  Se  Se228  1  0.24360568  0.75391659  0.70133383  1
  Se  Se229  1  0.58496748  0.08095809  0.19732406  1
  Se  Se230  1  0.58669360  0.08274360  0.69623336  1
  Se  Se231  1  0.57876647  0.42052725  0.18990130  1
  Se  Se232  1  0.59118835  0.41978978  0.70050299  1
  Se  Se233  1  0.59473285  0.74030828  0.20229670  1
  Se  Se234  1  0.57958184  0.75763625  0.69764761  1
  Se  Se235  1  0.91922723  0.08245819  0.20345030  1
  Se  Se236  1  0.92276869  0.08018853  0.69907427  1
  Se  Se237  1  0.91343982  0.41685185  0.20040516  1
  Se  Se238  1  0.92236261  0.41447908  0.69868170  1
  Se  Se239  1  0.91944215  0.74716107  0.19105500  1
  Se  Se240  1  0.91824329  0.74636239  0.69139743  1
  Se  Se241  1  0.08181909  0.26488071  0.19604304  1
  Se  Se242  1  0.08445157  0.24797839  0.69632195  1
  Se  Se243  1  0.08501534  0.58994435  0.19947814  1
  Se  Se244  1  0.07834086  0.58645836  0.69729014  1
  Se  Se245  1  0.08146620  0.91532212  0.19172634  1
  Se  Se246  1  0.07804359  0.91960505  0.69983636  1
  Se  Se247  1  0.40887346  0.23997775  0.18259207  1
  Se  Se248  1  0.41382311  0.25157008  0.69251208  1
  Se  Se249  1  0.42025148  0.57901729  0.19742228  1
  Se  Se250  1  0.39232368  0.60563657  0.70003311  1
  Se  Se251  1  0.42891010  0.89791144  0.18474711  1
  Se  Se252  1  0.40862843  0.92222805  0.70199257  1
  Se  Se253  1  0.75950020  0.24122023  0.19259966  1
  Se  Se254  1  0.75881535  0.24822299  0.69987628  1
  Se  Se255  1  0.74784269  0.58333718  0.20058944  1
  Se  Se256  1  0.75273325  0.58609729  0.69393474  1
  Se  Se257  1  0.75613991  0.91099885  0.18657210  1
  Se  Se258  1  0.75104079  0.91565485  0.69590563  1
