# generated using pymatgen
data_In86Cu29Se144
_symmetry_space_group_name_H-M   'P 1'
_cell_length_a   17.58063996
_cell_length_b   17.57527573
_cell_length_c   23.44033059
_cell_angle_alpha   89.99678103
_cell_angle_beta   90.04757742
_cell_angle_gamma   89.98721203
_symmetry_Int_Tables_number   1
_chemical_formula_structural   In86Cu29Se144
_chemical_formula_sum   'In86 Cu29 Se144'
_cell_volume   7242.69836106
_cell_formula_units_Z   1
loop_
 _symmetry_equiv_pos_site_id
 _symmetry_equiv_pos_as_xyz
  1  'x, y, z'
loop_
 _atom_site_type_symbol
 _atom_site_label
 _atom_site_symmetry_multiplicity
 _atom_site_fract_x
 _atom_site_fract_y
 _atom_site_fract_z
 _atom_site_occupancy
  In  In0  1  -0.00839277  0.17680195  0.12928639  1
  In  In1  1  0.01310783  0.17660100  0.62185039  1
  In  In2  1  -0.00221409  0.50524659  0.13005034  1
  In  In3  1  0.01118181  0.49304737  0.63535562  1
  In  In4  1  0.00229791  0.83427102  0.12793280  1
  In  In5  1  0.00095062  0.82174460  0.62507726  1
  In  In6  1  0.34822128  0.17468946  0.12492184  1
  In  In7  1  0.33406542  0.17292359  0.62028469  1
  In  In8  1  0.33663067  0.49916999  0.13666571  1
  In  In9  1  0.32338928  0.48915816  0.61931256  1
  In  In10  1  0.31797695  0.83457567  0.12526764  1
  In  In11  1  0.33153836  0.83187448  0.61433283  1
  In  In12  1  0.66200716  0.16015574  0.12203715  1
  In  In13  1  0.64966184  0.16913347  0.62678194  1
  In  In14  1  0.67475943  0.49000888  0.12219724  1
  In  In15  1  0.66661423  0.50756403  0.62458959  1
  In  In16  1  0.68368206  0.83331619  0.12474017  1
  In  In17  1  0.66428332  0.83183457  0.63092820  1
  In  In18  1  0.16267870  0.00905588  0.37884998  1
  In  In19  1  0.15323127  -0.00086182  0.87686176  1
  In  In20  1  0.16708726  0.33413476  0.37526727  1
  In  In21  1  0.17465729  0.33889583  0.86530338  1
  In  In22  1  0.16786381  0.66374472  0.37713447  1
  In  In23  1  0.15438783  0.67564021  0.87878835  1
  In  In24  1  0.50064888  -0.00168146  0.37759673  1
  In  In25  1  0.51394248  0.00144652  0.87526284  1
  In  In26  1  0.49273990  0.34568032  0.38952757  1
  In  In27  1  0.48204777  0.33057799  0.87226716  1
  In  In28  1  0.49085215  0.67492637  0.38400537  1
  In  In29  1  0.50497407  0.64894565  0.86909590  1
  In  In30  1  0.83226505  0.00074509  0.36263017  1
  In  In31  1  0.82824727  0.00776736  0.88292160  1
  In  In32  1  0.83382344  0.32747912  0.37132286  1
  In  In33  1  0.83922266  0.32255541  0.88001155  1
  In  In34  1  0.84396675  0.65746529  0.37040078  1
  In  In35  1  0.83934790  0.66599555  0.87504842  1
  In  In36  1  0.00960223  0.17619784  0.36384658  1
  In  In37  1  -0.00533243  0.16389134  0.87479421  1
  In  In38  1  0.00791626  0.51085450  0.36542661  1
  In  In39  1  -0.00869129  0.49914272  0.87057126  1
  In  In40  1  0.00746099  0.84212605  0.36761808  1
  In  In41  1  -0.00092421  0.82226489  0.88502751  1
  In  In42  1  0.32831152  0.17283307  0.37825971  1
  In  In43  1  0.33888931  0.19003869  0.87903812  1
  In  In44  1  0.32980437  0.49853796  0.37841854  1
  In  In45  1  0.34021470  0.48622373  0.87038737  1
  In  In46  1  0.33913013  0.82536884  0.38080564  1
  In  In47  1  0.31849513  0.82448864  0.87874198  1
  In  In48  1  0.66300654  0.15961609  0.37652051  1
  In  In49  1  0.67070373  0.15846478  0.87987892  1
  In  In50  1  0.65743055  0.48859911  0.38089580  1
  In  In51  1  0.66785687  0.51210794  0.86259954  1
  In  In52  1  0.65322918  0.83617436  0.37474696  1
  In  In53  1  0.67707358  0.84002017  0.87109117  1
  In  In54  1  0.16601095  -0.01816328  0.12632472  1
  In  In55  1  0.17343174  0.00877215  0.61322446  1
  In  In56  1  0.17283736  0.32851358  0.13453008  1
  In  In57  1  0.16199863  0.33433289  0.62600207  1
  In  In58  1  0.15634002  0.67809698  0.13347296  1
  In  In59  1  0.16684440  0.66112381  0.61797706  1
  In  In60  1  0.50301017  0.02368462  0.13271975  1
  In  In61  1  0.50609542  0.00421771  0.61986663  1
  In  In62  1  0.49772823  0.32301418  0.12963993  1
  In  In63  1  0.49370734  0.31895212  0.61298528  1
  In  In64  1  0.49878761  0.65533715  0.13052391  1
  In  In65  1  0.50307337  0.67115282  0.62046789  1
  In  In66  1  0.83345835  0.00239571  0.12719106  1
  In  In67  1  0.83077734  -0.01282842  0.63113137  1
  In  In68  1  0.84356938  0.34611335  0.11252055  1
  In  In69  1  0.84562437  0.34751921  0.63271565  1
  In  In70  1  0.86971980  0.69093867  0.09038309  1
  In  In71  1  0.84068352  0.64697960  0.64795526  1
  In  In72  1  0.83145405  0.82935029  0.50695936  1
  In  In73  1  0.50070692  0.83717230  -0.00063284  1
  In  In74  1  0.82783832  0.16501210  0.49405562  1
  In  In75  1  0.66509449  0.33031975  0.25135119  1
  In  In76  1  0.67389409  0.66571359  0.24629294  1
  In  In77  1  0.50468722  0.49203185  -0.00510848  1
  In  In78  1  -0.00214751  0.00402864  0.75561835  1
  In  In79  1  0.16288367  0.50207257  -0.00635578  1
  In  In80  1  0.33167247  0.66131345  0.74984492  1
  In  In81  1  0.83183245  0.49913819  0.50779326  1
  In  In82  1  0.16870709  0.16204023  0.00479649  1
  In  In83  1  0.33719521  0.00601815  0.73791859  1
  In  In84  1  0.32972076  0.00248513  0.24861553  1
  In  In85  1  0.66429483  0.33319574  0.74541838  1
  Cu  Cu86  1  0.50843038  0.82612118  0.75011578  1
  Cu  Cu87  1  0.16089583  0.50390920  0.74605072  1
  Cu  Cu88  1  0.00395252  0.33863776  0.49733244  1
  Cu  Cu89  1  0.16620649  0.82530287  0.25248535  1
  Cu  Cu90  1  0.32492351  0.33259018  0.49952722  1
  Cu  Cu91  1  0.00426951  0.33294737  -0.00108073  1
  Cu  Cu92  1  0.83293761  0.16438394  0.75660370  1
  Cu  Cu93  1  0.49210090  0.50248420  0.25934601  1
  Cu  Cu94  1  0.50024091  0.16317951  0.74405153  1
  Cu  Cu95  1  0.49950158  0.83829104  0.25597959  1
  Cu  Cu96  1  0.66178212  -0.00348034  0.50154427  1
  Cu  Cu97  1  0.67338287  0.66488083  -0.00787775  1
  Cu  Cu98  1  0.17049161  0.49711877  0.25363581  1
  Cu  Cu99  1  0.00853948  0.66757169  0.49981789  1
  Cu  Cu100  1  -0.00493149  -0.00785569  0.00233180  1
  Cu  Cu101  1  0.66742306  0.00337541  0.00260226  1
  Cu  Cu102  1  0.82717716  0.82891381  0.75400374  1
  Cu  Cu103  1  0.16049024  0.83779845  0.75041953  1
  Cu  Cu104  1  0.16249553  0.16348519  0.25307468  1
  Cu  Cu105  1  0.83946880  0.50267735  0.24017057  1
  Cu  Cu106  1  0.83515756  0.17063620  0.24654846  1
  Cu  Cu107  1  0.66491863  0.66859641  0.50360956  1
  Cu  Cu108  1  0.33234002  0.00242586  0.00587874  1
  Cu  Cu109  1  0.00909266  0.00247426  0.49293365  1
  Cu  Cu110  1  0.33392321  0.65989633  0.49964092  1
  Cu  Cu111  1  0.66990584  0.32785699  -0.00279889  1
  Cu  Cu112  1  0.32359036  0.66570510  0.00423669  1
  Cu  Cu113  1  0.83539391  0.83282428  0.24194701  1
  Cu  Cu114  1  0.33313059  -0.00223264  0.49532287  1
  Se  Se115  1  0.07546343  0.07387075  0.06324623  1
  Se  Se116  1  0.08369757  0.09044878  0.54907666  1
  Se  Se117  1  0.08463465  0.40842156  0.06111557  1
  Se  Se118  1  0.08246113  0.42136910  0.55494560  1
  Se  Se119  1  0.08162537  0.75044723  0.05763498  1
  Se  Se120  1  0.08867624  0.75459299  0.55237968  1
  Se  Se121  1  0.41886751  0.08486998  0.05408986  1
  Se  Se122  1  0.41159404  0.07888285  0.55613269  1
  Se  Se123  1  0.41342348  0.41407483  0.06107351  1
  Se  Se124  1  0.41271950  0.41333401  0.55109790  1
  Se  Se125  1  0.41323124  0.74216696  0.05984573  1
  Se  Se126  1  0.41695963  0.74803086  0.55009694  1
  Se  Se127  1  0.75333959  0.08553621  0.05529409  1
  Se  Se128  1  0.74637532  0.07362249  0.56116870  1
  Se  Se129  1  0.75070795  0.41903764  0.04457279  1
  Se  Se130  1  0.74258274  0.40318568  0.56132109  1
  Se  Se131  1  0.74874309  0.75384095  0.04636199  1
  Se  Se132  1  0.75219964  0.73341541  0.56842541  1
  Se  Se133  1  0.25877372  0.25859576  0.05656505  1
  Se  Se134  1  0.24214352  0.25064061  0.55514928  1
  Se  Se135  1  0.25013407  0.58262502  0.06510251  1
  Se  Se136  1  0.24685623  0.57754426  0.54994459  1
  Se  Se137  1  0.24656843  0.91342943  0.04847822  1
  Se  Se138  1  0.24756074  0.91540414  0.54828747  1
  Se  Se139  1  0.58566720  0.25474343  0.05711944  1
  Se  Se140  1  0.58059680  0.23759859  0.54677751  1
  Se  Se141  1  0.59219582  0.58929150  0.05536744  1
  Se  Se142  1  0.58168894  0.58159429  0.55241576  1
  Se  Se143  1  0.58677601  0.92427370  0.06428894  1
  Se  Se144  1  0.58492301  0.90947460  0.55682699  1
  Se  Se145  1  0.91862891  0.24811079  0.04920626  1
  Se  Se146  1  0.91694569  0.25972787  0.55372751  1
  Se  Se147  1  0.90915966  0.56080456  0.05259826  1
  Se  Se148  1  0.92599316  0.59074043  0.56209540  1
  Se  Se149  1  0.91279108  0.91388908  0.05987174  1
  Se  Se150  1  0.92881176  0.92643773  0.55652228  1
  Se  Se151  1  0.08087665  0.24977619  0.44337012  1
  Se  Se152  1  0.08648261  0.25452231  0.93912399  1
  Se  Se153  1  0.08385310  0.57837435  0.44566613  1
  Se  Se154  1  0.06511200  0.59312510  0.94547667  1
  Se  Se155  1  0.08855720  0.91204277  0.44401756  1
  Se  Se156  1  0.08200189  0.91411793  0.94798573  1
  Se  Se157  1  0.41260944  0.24909480  0.44979027  1
  Se  Se158  1  0.42863894  0.24808288  0.95354106  1
  Se  Se159  1  0.41936106  0.57747106  0.44717649  1
  Se  Se160  1  0.40563819  0.58814224  0.94317725  1
  Se  Se161  1  0.42009828  0.91406451  0.44623570  1
  Se  Se162  1  0.40692109  0.92334851  0.93787630  1
  Se  Se163  1  0.73778490  0.26230704  0.44192056  1
  Se  Se164  1  0.75420866  0.24126899  0.94768608  1
  Se  Se165  1  0.74550588  0.59114437  0.44109351  1
  Se  Se166  1  0.75096529  0.57795301  0.93939227  1
  Se  Se167  1  0.74852469  0.92216738  0.44177139  1
  Se  Se168  1  0.74762472  0.91794685  0.94874675  1
  Se  Se169  1  0.24932678  0.08594784  0.44707441  1
  Se  Se170  1  0.25725652  0.07794729  0.93735987  1
  Se  Se171  1  0.24338825  0.41851398  0.44698847  1
  Se  Se172  1  0.26045541  0.40738246  0.94553896  1
  Se  Se173  1  0.25075216  0.74616461  0.44717606  1
  Se  Se174  1  0.23979173  0.74913670  0.95227025  1
  Se  Se175  1  0.58109079  0.08220064  0.44854667  1
  Se  Se176  1  0.58076825  0.08516301  0.95100595  1
  Se  Se177  1  0.58517643  0.41747176  0.45755255  1
  Se  Se178  1  0.59394139  0.40656781  0.93163605  1
  Se  Se179  1  0.58405673  0.75319034  0.44908615  1
  Se  Se180  1  0.58370889  0.74236191  0.93730095  1
  Se  Se181  1  0.92258835  0.07860456  0.43503454  1
  Se  Se182  1  0.92072080  0.08347385  0.94892279  1
  Se  Se183  1  0.91938402  0.41665796  0.43838201  1
  Se  Se184  1  0.92018926  0.41343725  0.94428265  1
  Se  Se185  1  0.92273733  0.74581824  0.44195860  1
  Se  Se186  1  0.90334310  0.75466485  0.95078905  1
  Se  Se187  1  0.24634778  0.24762997  0.30471562  1
  Se  Se188  1  0.25993176  0.25455840  0.80162906  1
  Se  Se189  1  0.25189866  0.58331978  0.30715244  1
  Se  Se190  1  0.23942463  0.57793864  0.81458189  1
  Se  Se191  1  0.24628589  0.91036380  0.31170528  1
  Se  Se192  1  0.24624474  0.91758625  0.80530690  1
  Se  Se193  1  0.57414986  0.25286898  0.31685513  1
  Se  Se194  1  0.57957853  0.24090215  0.80864206  1
  Se  Se195  1  0.58169721  0.58277211  0.31169677  1
  Se  Se196  1  0.57012394  0.57002154  0.79268605  1
  Se  Se197  1  0.58477318  0.92419659  0.30268191  1
  Se  Se198  1  0.58484312  0.91538768  0.80367023  1
  Se  Se199  1  0.91753803  0.25550462  0.29929208  1
  Se  Se200  1  0.91951647  0.24891352  0.80346974  1
  Se  Se201  1  0.92191586  0.58746108  0.29398281  1
  Se  Se202  1  0.92364920  0.59289480  0.80209373  1
  Se  Se203  1  0.91704503  0.91531610  0.29901395  1
  Se  Se204  1  0.90914572  0.91158323  0.81347952  1
  Se  Se205  1  0.07992170  0.07517407  0.30107217  1
  Se  Se206  1  0.09601928  0.09789385  0.80435855  1
  Se  Se207  1  0.08304566  0.41382166  0.30387570  1
  Se  Se208  1  0.08290271  0.42058016  0.80473354  1
  Se  Se209  1  0.08148590  0.74348771  0.30629822  1
  Se  Se210  1  0.07847194  0.75554854  0.80460279  1
  Se  Se211  1  0.41849321  0.08903962  0.30959448  1
  Se  Se212  1  0.42096528  0.08713006  0.80969878  1
  Se  Se213  1  0.41390845  0.41329025  0.31011398  1
  Se  Se214  1  0.42839249  0.42410708  0.79783079  1
  Se  Se215  1  0.41851515  0.75020038  0.30497236  1
  Se  Se216  1  0.42094947  0.75616187  0.81157052  1
  Se  Se217  1  0.74939420  0.09216951  0.30198845  1
  Se  Se218  1  0.74869881  0.07938512  0.80538044  1
  Se  Se219  1  0.75726377  0.43034151  0.30547038  1
  Se  Se220  1  0.75710692  0.41248378  0.80961210  1
  Se  Se221  1  0.75870535  0.75885733  0.31139723  1
  Se  Se222  1  0.74593609  0.74266037  0.80648237  1
  Se  Se223  1  0.24117812  0.09068592  0.18487406  1
  Se  Se224  1  0.23744300  0.09654393  0.69120243  1
  Se  Se225  1  0.25478949  0.41265638  0.20217506  1
  Se  Se226  1  0.24545391  0.41793717  0.69669369  1
  Se  Se227  1  0.25512496  0.74704667  0.20014771  1
  Se  Se228  1  0.24504094  0.75889465  0.69220108  1
  Se  Se229  1  0.58550536  0.09675393  0.20339685  1
  Se  Se230  1  0.58534106  0.07539590  0.69793220  1
  Se  Se231  1  0.57477276  0.42882621  0.19467404  1
  Se  Se232  1  0.57374929  0.41360259  0.68140019  1
  Se  Se233  1  0.57804105  0.75957419  0.19064443  1
  Se  Se234  1  0.58707638  0.73967948  0.69688771  1
  Se  Se235  1  0.91890003  0.08364702  0.19650162  1
  Se  Se236  1  0.91182528  0.09083788  0.68801044  1
  Se  Se237  1  0.92066383  0.40990989  0.19432157  1
  Se  Se238  1  0.90851308  0.43788985  0.70294965  1
  Se  Se239  1  0.91255433  0.74450227  0.18888588  1
  Se  Se240  1  0.91642393  0.75405613  0.69941101  1
  Se  Se241  1  0.08193866  0.24981018  0.19849099  1
  Se  Se242  1  0.06736370  0.26704357  0.69604687  1
  Se  Se243  1  0.08723022  0.57997761  0.19837635  1
  Se  Se244  1  0.08465654  0.59575129  0.69576228  1
  Se  Se245  1  0.08407948  0.91319888  0.20177497  1
  Se  Se246  1  0.08719532  0.92088894  0.68748129  1
  Se  Se247  1  0.41280179  0.25449281  0.20241681  1
  Se  Se248  1  0.41732742  0.24821859  0.69330244  1
  Se  Se249  1  0.41347590  0.58924344  0.20469223  1
  Se  Se250  1  0.41539500  0.57791310  0.68387880  1
  Se  Se251  1  0.42210754  0.91242182  0.18753465  1
  Se  Se252  1  0.42536785  0.90307790  0.68908249  1
  Se  Se253  1  0.75814728  0.25350006  0.18467070  1
  Se  Se254  1  0.75918621  0.24088529  0.68747266  1
  Se  Se255  1  0.76125251  0.58414959  0.18051023  1
  Se  Se256  1  0.74349832  0.57100803  0.70485004  1
  Se  Se257  1  0.74840820  0.92111266  0.19842955  1
  Se  Se258  1  0.74557453  0.91477728  0.70180141  1
