# generated using pymatgen
data_In86Cu29Se144
_symmetry_space_group_name_H-M   'P 1'
_cell_length_a   17.59230324
_cell_length_b   17.58328842
_cell_length_c   23.44878671
_cell_angle_alpha   89.99514971
_cell_angle_beta   89.99380378
_cell_angle_gamma   90.02054293
_symmetry_Int_Tables_number   1
_chemical_formula_structural   In86Cu29Se144
_chemical_formula_sum   'In86 Cu29 Se144'
_cell_volume   7253.42536266
_cell_formula_units_Z   1
loop_
 _symmetry_equiv_pos_site_id
 _symmetry_equiv_pos_as_xyz
  1  'x, y, z'
loop_
 _atom_site_type_symbol
 _atom_site_label
 _atom_site_symmetry_multiplicity
 _atom_site_fract_x
 _atom_site_fract_y
 _atom_site_fract_z
 _atom_site_occupancy
  In  In0  1  -0.00334816  0.15914449  0.12076131  1
  In  In1  1  0.00566024  0.15543669  0.62975365  1
  In  In2  1  -0.00210410  0.50963706  0.12485466  1
  In  In3  1  0.00115766  0.49527192  0.62857172  1
  In  In4  1  0.00571390  0.83559287  0.11766084  1
  In  In5  1  -0.00224120  0.83912346  0.63179800  1
  In  In6  1  0.32848361  0.17583756  0.12239824  1
  In  In7  1  0.34177849  0.17901884  0.61460565  1
  In  In8  1  0.34838422  0.49249856  0.12667849  1
  In  In9  1  0.34300821  0.51624443  0.61784661  1
  In  In10  1  0.32465007  0.82369319  0.12152777  1
  In  In11  1  0.33319340  0.80992752  0.63573180  1
  In  In12  1  0.66624070  0.16536562  0.14076472  1
  In  In13  1  0.66646257  0.18641740  0.61484465  1
  In  In14  1  0.65604862  0.51655057  0.14139406  1
  In  In15  1  0.67977073  0.52061962  0.60041565  1
  In  In16  1  0.66655780  0.83506422  0.12400565  1
  In  In17  1  0.64762241  0.80244841  0.59908617  1
  In  In18  1  0.16339841  0.00968156  0.37231146  1
  In  In19  1  0.15856969  0.00676217  0.88158067  1
  In  In20  1  0.15845817  0.33567824  0.38376689  1
  In  In21  1  0.15809743  0.33469659  0.87214330  1
  In  In22  1  0.16872642  0.65162509  0.37311205  1
  In  In23  1  0.17181086  0.67950538  0.86007314  1
  In  In24  1  0.51257366  -0.02268858  0.38456805  1
  In  In25  1  0.48697977  -0.00585256  0.87341040  1
  In  In26  1  0.51139795  0.33215009  0.39190492  1
  In  In27  1  0.51461755  0.34603373  0.87097770  1
  In  In28  1  0.50434163  0.66659636  0.38014691  1
  In  In29  1  0.50373310  0.66871494  0.87481907  1
  In  In30  1  0.81615208  -0.02181354  0.35317144  1
  In  In31  1  0.83132272  -0.01709511  0.87279939  1
  In  In32  1  0.82171792  0.34710153  0.38723328  1
  In  In33  1  0.84312963  0.32734124  0.87340409  1
  In  In34  1  0.80014515  0.68419916  0.41223853  1
  In  In35  1  0.84965884  0.67773623  0.85526511  1
  In  In36  1  0.00686387  0.15793223  0.37691621  1
  In  In37  1  0.01241110  0.17138601  0.86671650  1
  In  In38  1  -0.00126735  0.49691512  0.38597465  1
  In  In39  1  0.00408653  0.51563058  0.85068383  1
  In  In40  1  -0.02319400  0.83148660  0.37199978  1
  In  In41  1  -0.00332837  0.83399127  0.86997114  1
  In  In42  1  0.32641043  0.17086899  0.38210883  1
  In  In43  1  0.33193229  0.15132120  0.87628227  1
  In  In44  1  0.32495646  0.50852055  0.37960301  1
  In  In45  1  0.34297096  0.51609211  0.86856294  1
  In  In46  1  0.34919829  0.82734529  0.37559414  1
  In  In47  1  0.34195349  0.82024296  0.88350310  1
  In  In48  1  0.66158395  0.15888992  0.37330022  1
  In  In49  1  0.66370335  0.17873505  0.87613943  1
  In  In50  1  0.66667682  0.50262954  0.38234398  1
  In  In51  1  0.65567559  0.51023250  0.87813089  1
  In  In52  1  0.66888881  0.82404327  0.37610768  1
  In  In53  1  0.67720157  0.82287029  0.88456715  1
  In  In54  1  0.15827876  -0.00638086  0.11808713  1
  In  In55  1  0.15245686  -0.00391041  0.62610374  1
  In  In56  1  0.17864266  0.33320970  0.12010083  1
  In  In57  1  0.16079278  0.32539503  0.62191115  1
  In  In58  1  0.15815198  0.67719064  0.12623960  1
  In  In59  1  0.17629062  0.66689005  0.63637654  1
  In  In60  1  0.51377933  -0.00617189  0.13161541  1
  In  In61  1  0.50487660  0.00332366  0.61607201  1
  In  In62  1  0.49832881  0.34478532  0.12932355  1
  In  In63  1  0.53929910  0.36416506  0.58923106  1
  In  In64  1  0.50012014  0.66513687  0.12611201  1
  In  In65  1  0.49935579  0.66139758  0.62191210  1
  In  In66  1  0.84575706  -0.01610606  0.14254271  1
  In  In67  1  0.84218197  -0.00988177  0.62663061  1
  In  In68  1  0.83312150  0.32703507  0.13107483  1
  In  In69  1  0.84170999  0.37473020  0.61483429  1
  In  In70  1  0.82070789  0.66781331  0.12714560  1
  In  In71  1  0.82956405  0.66483100  0.62217130  1
  In  In72  1  -0.00529172  0.66688312  0.25448582  1
  In  In73  1  0.17395859  0.50481988  -0.00865961  1
  In  In74  1  0.49700889  0.15990408  0.00290323  1
  In  In75  1  0.82837536  0.49754097  -0.00567665  1
  In  In76  1  0.34042739  0.33713704  0.74809999  1
  In  In77  1  0.67590411  -0.00460588  0.74814427  1
  In  In78  1  -0.00598330  0.33345900  0.26169854  1
  In  In79  1  0.33543025  0.34004823  0.25468383  1
  In  In80  1  0.83186528  0.16019752  0.00339336  1
  In  In81  1  0.83999046  0.16175575  0.49753304  1
  In  In82  1  0.33011965  -0.00777496  0.74916600  1
  In  In83  1  0.16783776  0.83613203  0.50987729  1
  In  In84  1  0.33710814  0.00077705  0.25248929  1
  In  In85  1  0.68013392  0.35925694  0.73045771  1
  Cu  Cu86  1  0.00975428  0.33646862  -0.00883668  1
  Cu  Cu87  1  0.82605531  0.17067632  0.25316417  1
  Cu  Cu88  1  0.00178231  0.65670710  0.50288427  1
  Cu  Cu89  1  0.82811011  0.83065110  0.74418028  1
  Cu  Cu90  1  0.84122347  0.16757633  0.74820923  1
  Cu  Cu91  1  0.50594135  0.17787195  0.73870749  1
  Cu  Cu92  1  0.50677900  0.82195430  0.25139223  1
  Cu  Cu93  1  0.33559387  0.66425687  -0.00188463  1
  Cu  Cu94  1  -0.00298310  -0.00095430  -0.00017736  1
  Cu  Cu95  1  0.32591253  0.33811499  0.50084993  1
  Cu  Cu96  1  0.66067611  0.66658373  0.00407857  1
  Cu  Cu97  1  0.15763985  0.16759928  0.24725300  1
  Cu  Cu98  1  -0.00110519  -0.00277135  0.49950016  1
  Cu  Cu99  1  0.66026127  0.34491483  0.00778515  1
  Cu  Cu100  1  0.49898141  0.16724787  0.26451819  1
  Cu  Cu101  1  0.00417213  0.32909985  0.50393846  1
  Cu  Cu102  1  0.33517806  0.67108037  0.50258597  1
  Cu  Cu103  1  0.16893165  0.16004873  0.74724472  1
  Cu  Cu104  1  0.50724735  0.50332987  0.25671315  1
  Cu  Cu105  1  0.50860396  0.82501728  0.74921750  1
  Cu  Cu106  1  0.33750738  0.32737092  -0.00153666  1
  Cu  Cu107  1  0.82943903  0.50445412  0.26249874  1
  Cu  Cu108  1  -0.00444960  0.67498695  -0.01042324  1
  Cu  Cu109  1  0.17005427  0.49813679  0.74633928  1
  Cu  Cu110  1  0.32965414  0.00104402  0.49769359  1
  Cu  Cu111  1  0.67264920  -0.00140992  0.49359123  1
  Cu  Cu112  1  0.32847370  -0.01015524  0.00070393  1
  Cu  Cu113  1  0.16585523  0.83433772  0.24683192  1
  Cu  Cu114  1  0.66675204  -0.00658353  0.00352764  1
  Se  Se115  1  0.08136893  0.08452816  0.05055203  1
  Se  Se116  1  0.08239258  0.08091453  0.55161219  1
  Se  Se117  1  0.08041674  0.41787077  0.05673765  1
  Se  Se118  1  0.08479318  0.41690486  0.55528038  1
  Se  Se119  1  0.08319617  0.74847260  0.04804466  1
  Se  Se120  1  0.07745238  0.74111280  0.56348159  1
  Se  Se121  1  0.40678995  0.06980932  0.06482914  1
  Se  Se122  1  0.41566648  0.08279041  0.55094897  1
  Se  Se123  1  0.41926426  0.41188702  0.05073233  1
  Se  Se124  1  0.41234236  0.42163321  0.55013117  1
  Se  Se125  1  0.41570245  0.74643732  0.05603053  1
  Se  Se126  1  0.41691296  0.75517739  0.55602003  1
  Se  Se127  1  0.73953308  0.07820561  0.06500062  1
  Se  Se128  1  0.74694595  0.07545135  0.56141085  1
  Se  Se129  1  0.74555551  0.41821203  0.06833734  1
  Se  Se130  1  0.71198137  0.38202194  0.56532529  1
  Se  Se131  1  0.74825535  0.74988751  0.05388254  1
  Se  Se132  1  0.76227073  0.74864343  0.54446122  1
  Se  Se133  1  0.24836302  0.24743417  0.04682685  1
  Se  Se134  1  0.24421827  0.24794734  0.54976420  1
  Se  Se135  1  0.25616968  0.58600931  0.06267959  1
  Se  Se136  1  0.24554414  0.59188127  0.55513837  1
  Se  Se137  1  0.24340116  0.90897651  0.05369924  1
  Se  Se138  1  0.26249315  0.92269380  0.56844268  1
  Se  Se139  1  0.58708482  0.25177998  0.06265030  1
  Se  Se140  1  0.55982911  0.22929202  0.54829781  1
  Se  Se141  1  0.58304288  0.57836173  0.05745186  1
  Se  Se142  1  0.57574228  0.58797798  0.54370506  1
  Se  Se143  1  0.57745036  0.91278992  0.05328216  1
  Se  Se144  1  0.58593925  0.91948454  0.54858699  1
  Se  Se145  1  0.92488561  0.26311316  0.05329336  1
  Se  Se146  1  0.91917710  0.25317979  0.56549206  1
  Se  Se147  1  0.92016654  0.59361098  0.05264045  1
  Se  Se148  1  0.91799763  0.57701887  0.55875834  1
  Se  Se149  1  0.91356870  0.92112235  0.05655883  1
  Se  Se150  1  0.91982153  0.91150023  0.55323588  1
  Se  Se151  1  0.08131245  0.24288708  0.44809261  1
  Se  Se152  1  0.08992511  0.24572179  0.94434755  1
  Se  Se153  1  0.08892274  0.57989986  0.44906381  1
  Se  Se154  1  0.07624360  0.58879357  0.93478525  1
  Se  Se155  1  0.08057679  0.91564741  0.43909041  1
  Se  Se156  1  0.07647413  0.91493161  0.94342054  1
  Se  Se157  1  0.40956711  0.25385495  0.44798497  1
  Se  Se158  1  0.41841240  0.25248890  0.93393979  1
  Se  Se159  1  0.41368757  0.58621727  0.44646352  1
  Se  Se160  1  0.42132867  0.58355251  0.94618264  1
  Se  Se161  1  0.41348115  0.91217468  0.45142177  1
  Se  Se162  1  0.41940909  0.91362482  0.94970571  1
  Se  Se163  1  0.73913921  0.24916658  0.44730037  1
  Se  Se164  1  0.74292698  0.26503763  0.94918299  1
  Se  Se165  1  0.77165138  0.55195113  0.45263705  1
  Se  Se166  1  0.74749625  0.59816986  0.94023401  1
  Se  Se167  1  0.75551871  0.91492013  0.44140584  1
  Se  Se168  1  0.75437513  0.91439479  0.95107977  1
  Se  Se169  1  0.24405555  0.08232249  0.44677625  1
  Se  Se170  1  0.25037000  0.08170748  0.95071087  1
  Se  Se171  1  0.24380197  0.42114498  0.44663607  1
  Se  Se172  1  0.26435391  0.40998010  0.93321059  1
  Se  Se173  1  0.25122299  0.74783093  0.44213635  1
  Se  Se174  1  0.24568885  0.74112187  0.94520162  1
  Se  Se175  1  0.58246690  0.07952148  0.44593062  1
  Se  Se176  1  0.59119302  0.07452102  0.93957694  1
  Se  Se177  1  0.56979837  0.43873515  0.45312519  1
  Se  Se178  1  0.57977393  0.42383306  0.95039535  1
  Se  Se179  1  0.58011840  0.75595371  0.44822891  1
  Se  Se180  1  0.57980397  0.75220047  0.94889107  1
  Se  Se181  1  0.91391729  0.06421646  0.43391773  1
  Se  Se182  1  0.91969637  0.07973290  0.93565282  1
  Se  Se183  1  0.91748211  0.41294647  0.45487970  1
  Se  Se184  1  0.93187509  0.42063569  0.93451935  1
  Se  Se185  1  0.92345036  0.74743756  0.45252276  1
  Se  Se186  1  0.90718943  0.75424406  0.93951036  1
  Se  Se187  1  0.23685333  0.24667396  0.30748412  1
  Se  Se188  1  0.25039904  0.24048839  0.80725980  1
  Se  Se189  1  0.25628627  0.58594251  0.30087501  1
  Se  Se190  1  0.25102864  0.58332089  0.79961343  1
  Se  Se191  1  0.24672442  0.90879667  0.31122094  1
  Se  Se192  1  0.25054893  0.91346817  0.82170999  1
  Se  Se193  1  0.58142285  0.25576010  0.31227210  1
  Se  Se194  1  0.58967486  0.25691098  0.79736249  1
  Se  Se195  1  0.59032605  0.58692775  0.30967485  1
  Se  Se196  1  0.58633337  0.59015873  0.80361090  1
  Se  Se197  1  0.58642054  0.90851566  0.30483726  1
  Se  Se198  1  0.58148798  0.91183834  0.81063581  1
  Se  Se199  1  0.90312837  0.24408027  0.32065210  1
  Se  Se200  1  0.92336548  0.25168444  0.80103611  1
  Se  Se201  1  0.91069881  0.58246587  0.32099270  1
  Se  Se202  1  0.88968934  0.56299329  0.79369954  1
  Se  Se203  1  0.93116380  0.92682842  0.29666584  1
  Se  Se204  1  0.91228543  0.91481605  0.79732087  1
  Se  Se205  1  0.07813113  0.08073820  0.29842971  1
  Se  Se206  1  0.08494815  0.07675282  0.80049708  1
  Se  Se207  1  0.09021208  0.42741002  0.30872841  1
  Se  Se208  1  0.08577852  0.41377372  0.79775751  1
  Se  Se209  1  0.08877925  0.75722410  0.31350996  1
  Se  Se210  1  0.05220591  0.72426684  0.80748143  1
  Se  Se211  1  0.42122151  0.08355659  0.32078186  1
  Se  Se212  1  0.42860000  0.09414858  0.79839689  1
  Se  Se213  1  0.42638696  0.42205090  0.31698210  1
  Se  Se214  1  0.43353657  0.43145592  0.80116524  1
  Se  Se215  1  0.42008089  0.74234769  0.30399467  1
  Se  Se216  1  0.41834710  0.75071194  0.80425961  1
  Se  Se217  1  0.74111793  0.08255026  0.29901768  1
  Se  Se218  1  0.75616901  0.09585607  0.81107511  1
  Se  Se219  1  0.74547634  0.41602667  0.30919803  1
  Se  Se220  1  0.75195180  0.41997170  0.81739108  1
  Se  Se221  1  0.77099585  0.75023991  0.31695818  1
  Se  Se222  1  0.74347516  0.75270290  0.80112699  1
  Se  Se223  1  0.24458966  0.08917753  0.19098200  1
  Se  Se224  1  0.25360417  0.08968025  0.68516107  1
  Se  Se225  1  0.24282915  0.42547763  0.19344852  1
  Se  Se226  1  0.24982438  0.42037961  0.68453396  1
  Se  Se227  1  0.24781264  0.74708590  0.19752853  1
  Se  Se228  1  0.22637057  0.77392893  0.70399782  1
  Se  Se229  1  0.57647373  0.08442378  0.20474480  1
  Se  Se230  1  0.58865843  0.09057314  0.68800813  1
  Se  Se231  1  0.58398533  0.41414935  0.20203720  1
  Se  Se232  1  0.57666010  0.44007237  0.68103268  1
  Se  Se233  1  0.58938733  0.74482156  0.19260697  1
  Se  Se234  1  0.58776112  0.74453088  0.69010414  1
  Se  Se235  1  0.91249267  0.09504434  0.19674771  1
  Se  Se236  1  0.91729512  0.07578490  0.69715806  1
  Se  Se237  1  0.90975713  0.42947348  0.19706135  1
  Se  Se238  1  0.92370848  0.40830792  0.69977297  1
  Se  Se239  1  0.91320322  0.75591423  0.18808475  1
  Se  Se240  1  0.91326330  0.74768299  0.69264684  1
  Se  Se241  1  0.08305734  0.25327033  0.18819909  1
  Se  Se242  1  0.08483884  0.24556798  0.69648468  1
  Se  Se243  1  0.08995693  0.57688093  0.19588096  1
  Se  Se244  1  0.08437546  0.58134222  0.69596080  1
  Se  Se245  1  0.08275988  0.91548697  0.19304939  1
  Se  Se246  1  0.09328577  0.90727802  0.69996309  1
  Se  Se247  1  0.42342519  0.24115700  0.19649815  1
  Se  Se248  1  0.43072518  0.26111338  0.68085958  1
  Se  Se249  1  0.42177987  0.57757147  0.19716656  1
  Se  Se250  1  0.39940788  0.60625055  0.69298542  1
  Se  Se251  1  0.42174451  0.90417580  0.19433725  1
  Se  Se252  1  0.43131890  0.91096929  0.69086246  1
  Se  Se253  1  0.74586077  0.25923555  0.20305088  1
  Se  Se254  1  0.76436425  0.24902180  0.68612555  1
  Se  Se255  1  0.75220644  0.58973547  0.20530254  1
  Se  Se256  1  0.75362716  0.56985782  0.68677149  1
  Se  Se257  1  0.73200838  0.92870280  0.19528992  1
  Se  Se258  1  0.74296735  0.89939326  0.67963297  1
