# generated using pymatgen
data_In86Cu29Se144
_symmetry_space_group_name_H-M   'P 1'
_cell_length_a   17.59002787
_cell_length_b   17.58977336
_cell_length_c   23.45705433
_cell_angle_alpha   89.99865058
_cell_angle_beta   90.02933566
_cell_angle_gamma   89.97390784
_symmetry_Int_Tables_number   1
_chemical_formula_structural   In86Cu29Se144
_chemical_formula_sum   'In86 Cu29 Se144'
_cell_volume   7257.71889229
_cell_formula_units_Z   1
loop_
 _symmetry_equiv_pos_site_id
 _symmetry_equiv_pos_as_xyz
  1  'x, y, z'
loop_
 _atom_site_type_symbol
 _atom_site_label
 _atom_site_symmetry_multiplicity
 _atom_site_fract_x
 _atom_site_fract_y
 _atom_site_fract_z
 _atom_site_occupancy
  In  In0  1  0.00065231  0.15573109  0.12433250  1
  In  In1  1  0.00268666  0.14908142  0.62672022  1
  In  In2  1  0.00578146  0.49240879  0.12129440  1
  In  In3  1  0.00435848  0.50092537  0.61826241  1
  In  In4  1  0.01248033  0.83260443  0.12474123  1
  In  In5  1  0.02016921  0.83461113  0.62854100  1
  In  In6  1  0.33065090  0.17079915  0.12740272  1
  In  In7  1  0.32412746  0.17817506  0.63216517  1
  In  In8  1  0.32714938  0.48858159  0.11670808  1
  In  In9  1  0.31870390  0.50946072  0.64072133  1
  In  In10  1  0.33117420  0.84626601  0.12505173  1
  In  In11  1  0.33073917  0.83115483  0.62883563  1
  In  In12  1  0.66653273  0.16590201  0.13112689  1
  In  In13  1  0.66429987  0.17014405  0.63343492  1
  In  In14  1  0.66081767  0.50202137  0.12629063  1
  In  In15  1  0.66969662  0.50201033  0.62953225  1
  In  In16  1  0.66401874  0.83581389  0.13627593  1
  In  In17  1  0.66121312  0.83580533  0.62563764  1
  In  In18  1  0.16904793  -0.00054932  0.37507081  1
  In  In19  1  0.16797922  -0.00003914  0.87432594  1
  In  In20  1  0.16698773  0.32379667  0.38136944  1
  In  In21  1  0.17602111  0.33017819  0.87539901  1
  In  In22  1  0.16832346  0.66507458  0.38597716  1
  In  In23  1  0.17869704  0.65822101  0.87564789  1
  In  In24  1  0.48880014  -0.00877159  0.37298024  1
  In  In25  1  0.49744730  0.00098462  0.87054783  1
  In  In26  1  0.49572129  0.33060632  0.36589997  1
  In  In27  1  0.50911708  0.34650864  0.87341153  1
  In  In28  1  0.52003593  0.66965928  0.38248803  1
  In  In29  1  0.48801784  0.65746119  0.86794509  1
  In  In30  1  0.83082546  -0.01612109  0.35690155  1
  In  In31  1  0.82660562  -0.00470519  0.86797666  1
  In  In32  1  0.82863181  0.34667227  0.37676066  1
  In  In33  1  0.81360141  0.33972595  0.87389834  1
  In  In34  1  0.80522502  0.66933672  0.38290344  1
  In  In35  1  0.82985066  0.66735571  0.86440819  1
  In  In36  1  0.01401604  0.15934889  0.37641682  1
  In  In37  1  0.01620447  0.16862162  0.87793913  1
  In  In38  1  -0.00332583  0.50085410  0.38545187  1
  In  In39  1  0.01119325  0.51168882  0.87198603  1
  In  In40  1  -0.00153122  0.84662045  0.37413636  1
  In  In41  1  0.00625588  0.84821536  0.86697755  1
  In  In42  1  0.32529078  0.15990547  0.36986753  1
  In  In43  1  0.32386062  0.15303238  0.86736824  1
  In  In44  1  0.33424989  0.48702428  0.37574786  1
  In  In45  1  0.33406873  0.50212928  0.87140405  1
  In  In46  1  0.32262586  0.84213204  0.38611772  1
  In  In47  1  0.31766604  0.82378661  0.85973367  1
  In  In48  1  0.66426348  0.16382721  0.36837681  1
  In  In49  1  0.66032265  0.16533728  0.87326799  1
  In  In50  1  0.66759574  0.50745383  0.37049612  1
  In  In51  1  0.65221279  0.48415413  0.85953542  1
  In  In52  1  0.65899146  0.82626500  0.36810001  1
  In  In53  1  0.66601283  0.83437050  0.86905459  1
  In  In54  1  0.16969958  0.00321698  0.12223081  1
  In  In55  1  0.16661872  -0.00356718  0.62678297  1
  In  In56  1  0.17800981  0.33738166  0.11568646  1
  In  In57  1  0.17606923  0.33977650  0.62161361  1
  In  In58  1  0.16968074  0.66684230  0.11676351  1
  In  In59  1  0.17755844  0.67251069  0.62205133  1
  In  In60  1  0.49951998  -0.00486064  0.13305241  1
  In  In61  1  0.50725936  -0.00706688  0.63058091  1
  In  In62  1  0.49424477  0.33535119  0.12639997  1
  In  In63  1  0.49475254  0.33879683  0.63291870  1
  In  In64  1  0.51286191  0.66526742  0.12441201  1
  In  In65  1  0.49563257  0.67181473  0.62882975  1
  In  In66  1  0.83073650  -0.00041207  0.13568029  1
  In  In67  1  0.83475929  -0.00099586  0.63199099  1
  In  In68  1  0.83077547  0.32756693  0.12894190  1
  In  In69  1  0.81961498  0.33982907  0.62985658  1
  In  In70  1  0.82513914  0.65989843  0.12708249  1
  In  In71  1  0.82873726  0.65129209  0.62304642  1
  In  In72  1  0.83682940  0.83323989  -0.00596521  1
  In  In73  1  -0.00260612  0.32792598  0.24941623  1
  In  In74  1  -0.00855820  0.67266813  0.25478783  1
  In  In75  1  0.49511965  0.83164008  0.00443442  1
  In  In76  1  0.49445758  0.50391254  0.50614443  1
  In  In77  1  -0.00041512  0.33243618  0.75694137  1
  In  In78  1  0.49774304  0.16909095  0.00073343  1
  In  In79  1  0.83819010  0.50173939  -0.00067565  1
  In  In80  1  0.00324949  0.67039943  0.74238076  1
  In  In81  1  0.83737793  0.16703235  0.00502284  1
  In  In82  1  0.49315745  0.16416428  0.50329298  1
  In  In83  1  0.33936825  0.66624874  0.25567731  1
  In  In84  1  0.83751900  0.83003981  0.49710109  1
  In  In85  1  0.84337096  0.16608133  0.49750343  1
  Cu  Cu86  1  0.33389281  0.66780997  0.50832039  1
  Cu  Cu87  1  0.17253054  0.16281747  0.25103288  1
  Cu  Cu88  1  0.83087823  0.16553390  0.25035440  1
  Cu  Cu89  1  0.50158759  0.50117562  0.74956858  1
  Cu  Cu90  1  0.82636686  0.83430800  0.74655070  1
  Cu  Cu91  1  0.32137043  0.33300464  0.50158267  1
  Cu  Cu92  1  0.01223599  0.34027693  -0.00583231  1
  Cu  Cu93  1  0.33902354  0.33422033  -0.00509923  1
  Cu  Cu94  1  0.01050134  -0.00221325  0.49820236  1
  Cu  Cu95  1  0.66588608  0.34213014  0.50136013  1
  Cu  Cu96  1  0.32706933  -0.00268405  -0.00486320  1
  Cu  Cu97  1  0.00167938  0.33090839  0.50294508  1
  Cu  Cu98  1  0.49926391  0.16926219  0.75309688  1
  Cu  Cu99  1  0.32775713  -0.00177289  0.50177021  1
  Cu  Cu100  1  0.01269262  0.67400209  -0.00432727  1
  Cu  Cu101  1  0.33213440  0.66157988  -0.00751538  1
  Cu  Cu102  1  0.00706208  0.00086972  -0.00137644  1
  Cu  Cu103  1  0.16975260  0.84317232  0.25074360  1
  Cu  Cu104  1  0.82823033  0.16663155  0.75124003  1
  Cu  Cu105  1  0.50079998  0.16658797  0.24796466  1
  Cu  Cu106  1  0.16475512  0.49414733  0.24522431  1
  Cu  Cu107  1  0.66536875  -0.00283743  0.50454873  1
  Cu  Cu108  1  0.00329462  0.66616982  0.50591775  1
  Cu  Cu109  1  0.50015068  0.49726035  0.24960833  1
  Cu  Cu110  1  0.66327739  0.66261921  -0.00182818  1
  Cu  Cu111  1  0.16291735  0.16074030  0.75083924  1
  Cu  Cu112  1  0.50034928  0.83514948  0.74883533  1
  Cu  Cu113  1  0.49917646  0.83504170  0.25317238  1
  Cu  Cu114  1  0.81852538  0.50500035  0.25366934  1
  Se  Se115  1  0.08717717  0.08740996  0.05172287  1
  Se  Se116  1  0.08887418  0.08269402  0.55298600  1
  Se  Se117  1  0.09253461  0.42315541  0.05020856  1
  Se  Se118  1  0.08726728  0.41526999  0.55280329  1
  Se  Se119  1  0.09203026  0.75752973  0.05078841  1
  Se  Se120  1  0.08844930  0.75136869  0.55344639  1
  Se  Se121  1  0.41086447  0.07149648  0.05794733  1
  Se  Se122  1  0.40659008  0.07650773  0.56523595  1
  Se  Se123  1  0.42125176  0.41573722  0.05035436  1
  Se  Se124  1  0.40223832  0.41210122  0.56122767  1
  Se  Se125  1  0.40455129  0.73812130  0.06259294  1
  Se  Se126  1  0.41747557  0.75336801  0.55705016  1
  Se  Se127  1  0.74545253  0.07525104  0.05996707  1
  Se  Se128  1  0.74592191  0.08231357  0.55903669  1
  Se  Se129  1  0.74913049  0.41151933  0.05869444  1
  Se  Se130  1  0.74967027  0.42257554  0.55471382  1
  Se  Se131  1  0.74217388  0.74636981  0.05642907  1
  Se  Se132  1  0.74651462  0.74552591  0.55804067  1
  Se  Se133  1  0.25807821  0.24861765  0.04999700  1
  Se  Se134  1  0.24358211  0.24289761  0.55263496  1
  Se  Se135  1  0.24986050  0.58030494  0.05108492  1
  Se  Se136  1  0.25212351  0.57773236  0.55576351  1
  Se  Se137  1  0.24599144  0.91414154  0.05134192  1
  Se  Se138  1  0.24819151  0.91359759  0.55721059  1
  Se  Se139  1  0.59083628  0.25546826  0.05923434  1
  Se  Se140  1  0.58615689  0.25941860  0.55897620  1
  Se  Se141  1  0.58134445  0.57907075  0.05104462  1
  Se  Se142  1  0.58899654  0.59242494  0.55926874  1
  Se  Se143  1  0.58968806  0.92087556  0.05968689  1
  Se  Se144  1  0.57935808  0.91467893  0.55318244  1
  Se  Se145  1  0.93179139  0.26436727  0.05790628  1
  Se  Se146  1  0.92100514  0.25538385  0.56684777  1
  Se  Se147  1  0.92989609  0.59708883  0.05757642  1
  Se  Se148  1  0.91626823  0.58078376  0.55152311  1
  Se  Se149  1  0.92229199  0.92412266  0.05830507  1
  Se  Se150  1  0.92410637  0.92230563  0.55849453  1
  Se  Se151  1  0.08170918  0.24454838  0.45050310  1
  Se  Se152  1  0.09402225  0.25007670  0.94797035  1
  Se  Se153  1  0.08512761  0.57987412  0.45123931  1
  Se  Se154  1  0.09124800  0.58235751  0.94711114  1
  Se  Se155  1  0.09033937  0.91149125  0.44513953  1
  Se  Se156  1  0.08617085  0.91504480  0.94472496  1
  Se  Se157  1  0.40750864  0.25697334  0.44207556  1
  Se  Se158  1  0.41207965  0.25094340  0.93223961  1
  Se  Se159  1  0.40848468  0.59271691  0.43876472  1
  Se  Se160  1  0.41997036  0.57827332  0.94547870  1
  Se  Se161  1  0.41714751  0.91711699  0.45182688  1
  Se  Se162  1  0.40883734  0.91598740  0.93823388  1
  Se  Se163  1  0.74098413  0.25342584  0.44386422  1
  Se  Se164  1  0.74092265  0.25245953  0.94707381  1
  Se  Se165  1  0.74969962  0.56833236  0.44910171  1
  Se  Se166  1  0.74829729  0.58877495  0.93832681  1
  Se  Se167  1  0.74820592  0.92502192  0.44087465  1
  Se  Se168  1  0.73905683  0.92385175  0.94433209  1
  Se  Se169  1  0.24951021  0.08392215  0.44577259  1
  Se  Se170  1  0.24517850  0.08630793  0.94651408  1
  Se  Se171  1  0.24345210  0.41888324  0.44584160  1
  Se  Se172  1  0.25403438  0.41826419  0.94309416  1
  Se  Se173  1  0.24938770  0.74962147  0.45270124  1
  Se  Se174  1  0.25242809  0.75209468  0.94366953  1
  Se  Se175  1  0.58692908  0.07799693  0.44305134  1
  Se  Se176  1  0.58687970  0.07351643  0.94561083  1
  Se  Se177  1  0.57855644  0.41263414  0.44058356  1
  Se  Se178  1  0.59364418  0.41793321  0.94580252  1
  Se  Se179  1  0.59412687  0.75561608  0.45054545  1
  Se  Se180  1  0.58347278  0.74521375  0.93937407  1
  Se  Se181  1  0.92071140  0.06663259  0.43666503  1
  Se  Se182  1  0.92029719  0.07577142  0.93930262  1
  Se  Se183  1  0.91557892  0.41218597  0.45066996  1
  Se  Se184  1  0.92555624  0.41154632  0.93460812  1
  Se  Se185  1  0.92682914  0.73848102  0.43610809  1
  Se  Se186  1  0.92717359  0.74314975  0.93362354  1
  Se  Se187  1  0.24779220  0.25338946  0.30486873  1
  Se  Se188  1  0.24752810  0.24597149  0.80153944  1
  Se  Se189  1  0.24082325  0.57526230  0.30831457  1
  Se  Se190  1  0.26245405  0.59200147  0.80114102  1
  Se  Se191  1  0.25685594  0.91983687  0.30576988  1
  Se  Se192  1  0.26250894  0.93638649  0.80386678  1
  Se  Se193  1  0.58411190  0.25013305  0.30141792  1
  Se  Se194  1  0.58365225  0.25307634  0.80543477  1
  Se  Se195  1  0.57869842  0.58507241  0.30311793  1
  Se  Se196  1  0.58448844  0.58917630  0.80068389  1
  Se  Se197  1  0.58269281  0.92114089  0.30482059  1
  Se  Se198  1  0.58281532  0.91916536  0.80319180  1
  Se  Se199  1  0.90959816  0.24197365  0.31520127  1
  Se  Se200  1  0.90689807  0.24212196  0.81675912  1
  Se  Se201  1  0.90516779  0.57819201  0.31386858  1
  Se  Se202  1  0.91395682  0.57510735  0.80119693  1
  Se  Se203  1  0.92973646  0.91656618  0.29405762  1
  Se  Se204  1  0.91138056  0.91594190  0.79953298  1
  Se  Se205  1  0.08669054  0.07963282  0.30193030  1
  Se  Se206  1  0.07846190  0.07973629  0.80450514  1
  Se  Se207  1  0.08290751  0.42139867  0.30967408  1
  Se  Se208  1  0.09700019  0.42531000  0.80567137  1
  Se  Se209  1  0.09563634  0.75432297  0.30928830  1
  Se  Se210  1  0.09116201  0.75239914  0.80831300  1
  Se  Se211  1  0.41855739  0.08519524  0.30517241  1
  Se  Se212  1  0.41572141  0.08022214  0.79979783  1
  Se  Se213  1  0.41208729  0.41509073  0.29926451  1
  Se  Se214  1  0.41890434  0.41751018  0.80364615  1
  Se  Se215  1  0.42311267  0.75687113  0.31833766  1
  Se  Se216  1  0.41696653  0.74985691  0.79997865  1
  Se  Se217  1  0.74692766  0.08048113  0.30106006  1
  Se  Se218  1  0.74366049  0.08349837  0.80452455  1
  Se  Se219  1  0.74121987  0.41263880  0.30331382  1
  Se  Se220  1  0.75939410  0.42696216  0.79744694  1
  Se  Se221  1  0.76483757  0.76435920  0.30676418  1
  Se  Se222  1  0.74497639  0.75010875  0.79939016  1
  Se  Se223  1  0.25402437  0.08064042  0.19423016  1
  Se  Se224  1  0.24902546  0.08288619  0.69530023  1
  Se  Se225  1  0.25107830  0.41335446  0.19405318  1
  Se  Se226  1  0.25931309  0.40033018  0.69933576  1
  Se  Se227  1  0.24588804  0.75299977  0.19403710  1
  Se  Se228  1  0.24438191  0.75333956  0.69770682  1
  Se  Se229  1  0.58395510  0.08093703  0.19725034  1
  Se  Se230  1  0.58167018  0.08512013  0.69800103  1
  Se  Se231  1  0.58266097  0.41464799  0.19448646  1
  Se  Se232  1  0.58544327  0.41759244  0.69639695  1
  Se  Se233  1  0.58002256  0.74849275  0.20032977  1
  Se  Se234  1  0.58398750  0.75092396  0.69634594  1
  Se  Se235  1  0.91845875  0.08576244  0.19822825  1
  Se  Se236  1  0.91426790  0.08420927  0.70056829  1
  Se  Se237  1  0.90717003  0.42958802  0.19503297  1
  Se  Se238  1  0.91698839  0.42198869  0.69108069  1
  Se  Se239  1  0.90869712  0.75742088  0.18667909  1
  Se  Se240  1  0.90819070  0.75908254  0.68341528  1
  Se  Se241  1  0.09279892  0.24469147  0.18919846  1
  Se  Se242  1  0.08512372  0.24507340  0.69091029  1
  Se  Se243  1  0.08529730  0.58207614  0.19242309  1
  Se  Se244  1  0.09414031  0.57596407  0.68914689  1
  Se  Se245  1  0.08682688  0.92076474  0.19330521  1
  Se  Se246  1  0.07495244  0.92981599  0.69917790  1
  Se  Se247  1  0.41597309  0.25012299  0.19575272  1
  Se  Se248  1  0.41559398  0.25218200  0.69950698  1
  Se  Se249  1  0.41959329  0.57694179  0.18832154  1
  Se  Se250  1  0.41765100  0.58619854  0.69841586  1
  Se  Se251  1  0.41275611  0.91568396  0.20071970  1
  Se  Se252  1  0.41549136  0.91720755  0.69581792  1
  Se  Se253  1  0.74856708  0.25138639  0.19925243  1
  Se  Se254  1  0.74680758  0.25387337  0.70081492  1
  Se  Se255  1  0.73910073  0.58791896  0.19758271  1
  Se  Se256  1  0.74884634  0.58572680  0.69958951  1
  Se  Se257  1  0.75035735  0.91498681  0.20085816  1
  Se  Se258  1  0.74305649  0.92015552  0.69473355  1
