# generated using pymatgen
data_In86Cu29Se144
_symmetry_space_group_name_H-M   'P 1'
_cell_length_a   17.57881597
_cell_length_b   17.56951286
_cell_length_c   23.42196280
_cell_angle_alpha   89.99048173
_cell_angle_beta   90.01295494
_cell_angle_gamma   89.99801057
_symmetry_Int_Tables_number   1
_chemical_formula_structural   In86Cu29Se144
_chemical_formula_sum   'In86 Cu29 Se144'
_cell_volume   7233.90180551
_cell_formula_units_Z   1
loop_
 _symmetry_equiv_pos_site_id
 _symmetry_equiv_pos_as_xyz
  1  'x, y, z'
loop_
 _atom_site_type_symbol
 _atom_site_label
 _atom_site_symmetry_multiplicity
 _atom_site_fract_x
 _atom_site_fract_y
 _atom_site_fract_z
 _atom_site_occupancy
  In  In0  1  -0.01558956  0.15635387  0.12723867  1
  In  In1  1  -0.00464123  0.14222582  0.61367012  1
  In  In2  1  0.01256146  0.50651985  0.13039093  1
  In  In3  1  -0.00043049  0.48992459  0.61384796  1
  In  In4  1  0.00954199  0.83131218  0.14124936  1
  In  In5  1  0.02576561  0.86842624  0.59026250  1
  In  In6  1  0.33997960  0.16269597  0.13229983  1
  In  In7  1  0.32123886  0.14936070  0.60914466  1
  In  In8  1  0.34797008  0.50283309  0.14391642  1
  In  In9  1  0.33789267  0.52130098  0.62186575  1
  In  In10  1  0.33438711  0.83150258  0.13284563  1
  In  In11  1  0.33448031  0.83270269  0.62184956  1
  In  In12  1  0.68593293  0.15648573  0.14344057  1
  In  In13  1  0.64445599  0.16194854  0.61140039  1
  In  In14  1  0.64026681  0.51987339  0.14840920  1
  In  In15  1  0.65508275  0.50483771  0.62298833  1
  In  In16  1  0.65556924  0.85007699  0.13068000  1
  In  In17  1  0.69307973  0.85721395  0.58376669  1
  In  In18  1  0.16719052  -0.00779977  0.37364587  1
  In  In19  1  0.15656076  -0.01035415  0.86879257  1
  In  In20  1  0.18201345  0.32305152  0.38136110  1
  In  In21  1  0.16437730  0.34023494  0.87206976  1
  In  In22  1  0.16351988  0.67397584  0.37362555  1
  In  In23  1  0.18394908  0.66835080  0.87322905  1
  In  In24  1  0.50347543  0.00141778  0.37936219  1
  In  In25  1  0.48900539  -0.01242235  0.86720083  1
  In  In26  1  0.49253331  0.32618090  0.36366521  1
  In  In27  1  0.51392093  0.33064254  0.88501069  1
  In  In28  1  0.51054364  0.68921516  0.36531263  1
  In  In29  1  0.48581469  0.67909056  0.88703266  1
  In  In30  1  0.82411288  -0.00864373  0.37494247  1
  In  In31  1  0.83928795  0.00555324  0.87224510  1
  In  In32  1  0.82598752  0.33322980  0.36821543  1
  In  In33  1  0.80691157  0.32729032  0.88082319  1
  In  In34  1  0.83744582  0.67552851  0.36699356  1
  In  In35  1  0.83521938  0.67343216  0.88003875  1
  In  In36  1  0.01058954  0.15949042  0.37912804  1
  In  In37  1  0.00093718  0.14385092  0.87678458  1
  In  In38  1  0.00618309  0.51622081  0.37050358  1
  In  In39  1  0.00715520  0.50420064  0.87796296  1
  In  In40  1  0.00798379  0.83198853  0.37459517  1
  In  In41  1  -0.00523632  0.84973367  0.87754209  1
  In  In42  1  0.33522607  0.16313465  0.37338644  1
  In  In43  1  0.34593821  0.15846768  0.87594770  1
  In  In44  1  0.33400023  0.49343631  0.36560970  1
  In  In45  1  0.32789153  0.51809113  0.87932186  1
  In  In46  1  0.32735077  0.84076899  0.36984654  1
  In  In47  1  0.33339675  0.82813111  0.87471309  1
  In  In48  1  0.64862056  0.13498694  0.36154153  1
  In  In49  1  0.67562955  0.16483070  0.87906881  1
  In  In50  1  0.65436864  0.50569359  0.35640027  1
  In  In51  1  0.65556613  0.48555537  0.88356441  1
  In  In52  1  0.66779846  0.83820498  0.37932185  1
  In  In53  1  0.65344692  0.82850459  0.87398495  1
  In  In54  1  0.18735969  -0.02590610  0.15202317  1
  In  In55  1  0.17215799  -0.00276924  0.61901579  1
  In  In56  1  0.17123284  0.34521621  0.13138711  1
  In  In57  1  0.17166307  0.33511358  0.61047386  1
  In  In58  1  0.16376190  0.68897380  0.14836504  1
  In  In59  1  0.18476479  0.68468197  0.61092035  1
  In  In60  1  0.51391674  -0.00951346  0.12780844  1
  In  In61  1  0.50186200  -0.00921705  0.61588992  1
  In  In62  1  0.49369262  0.34564735  0.14074601  1
  In  In63  1  0.50877990  0.32967379  0.62293346  1
  In  In64  1  0.49637888  0.67270559  0.13278806  1
  In  In65  1  0.49809031  0.66745483  0.62232894  1
  In  In66  1  0.82878203  0.01306811  0.14264979  1
  In  In67  1  0.83937313  -0.00707176  0.62869366  1
  In  In68  1  0.82616806  0.31031177  0.12518060  1
  In  In69  1  0.82816804  0.33353594  0.62069992  1
  In  In70  1  0.83083362  0.66796674  0.13496910  1
  In  In71  1  0.82339511  0.69740832  0.61716190  1
  In  In72  1  0.65743952  0.67207812  0.74583370  1
  In  In73  1  0.00115134  0.31482289  0.75080468  1
  In  In74  1  0.33504439  0.32588375  0.75535729  1
  In  In75  1  0.83414595  0.16549286  0.48949289  1
  In  In76  1  0.50799546  0.16406400  0.00693138  1
  In  In77  1  0.83553337  0.50626400  0.48307741  1
  In  In78  1  0.82732852  0.84248027  0.00749536  1
  In  In79  1  0.01162121  0.67901980  0.73531008  1
  In  In80  1  0.66785002  0.32216440  0.75347978  1
  In  In81  1  0.16080845  0.15864994  0.00434252  1
  In  In82  1  0.17872212  0.50982016  0.01855873  1
  In  In83  1  0.82377109  0.49593907  0.00460272  1
  In  In84  1  0.49553757  0.50927253  0.49686581  1
  In  In85  1  0.00163075  0.33114064  0.24688211  1
  Cu  Cu86  1  0.66289724  0.33642007  0.49292010  1
  Cu  Cu87  1  0.49846838  0.83245992  0.74549869  1
  Cu  Cu88  1  0.33644334  0.34181099  0.01278854  1
  Cu  Cu89  1  0.16442192  0.15490609  0.74157800  1
  Cu  Cu90  1  0.33941492  0.67282631  0.00604793  1
  Cu  Cu91  1  0.66069917  0.33396492  0.01389419  1
  Cu  Cu92  1  0.32656611  -0.01252337  0.00277321  1
  Cu  Cu93  1  0.49345361  0.50588630  0.75790646  1
  Cu  Cu94  1  0.83070920  0.84257321  0.74133430  1
  Cu  Cu95  1  0.49168784  0.15261250  0.74034274  1
  Cu  Cu96  1  0.00951941  0.67408485  0.01404370  1
  Cu  Cu97  1  0.83360446  0.49940707  0.24938482  1
  Cu  Cu98  1  -0.01116173  0.32483016  0.00168712  1
  Cu  Cu99  1  0.84138134  0.51424712  0.74656124  1
  Cu  Cu100  1  0.00211633  -0.00435857  0.00573578  1
  Cu  Cu101  1  -0.00091468  0.66510390  0.49305711  1
  Cu  Cu102  1  0.49762405  0.16399115  0.25146111  1
  Cu  Cu103  1  0.83065902  0.82840459  0.25445561  1
  Cu  Cu104  1  0.17635558  0.50768496  0.73896806  1
  Cu  Cu105  1  0.65331687  0.66367008  0.01040751  1
  Cu  Cu106  1  0.50201415  0.84291341  0.25312572  1
  Cu  Cu107  1  0.83225795  0.15624517  0.74840632  1
  Cu  Cu108  1  0.32924910  0.66947187  0.49074014  1
  Cu  Cu109  1  0.16884540  0.83534184  0.74106439  1
  Cu  Cu110  1  0.16822387  0.50419646  0.25384286  1
  Cu  Cu111  1  0.33551803  -0.00167114  0.49523309  1
  Cu  Cu112  1  0.33885340  0.33503923  0.49043607  1
  Cu  Cu113  1  0.01199210  0.33328238  0.49438327  1
  Cu  Cu114  1  0.17247107  0.16497523  0.25600812  1
  Se  Se115  1  0.08316350  0.06924810  0.07041655  1
  Se  Se116  1  0.09324064  0.08201688  0.54849062  1
  Se  Se117  1  0.07358679  0.40738568  0.05581066  1
  Se  Se118  1  0.09150208  0.42355979  0.54415915  1
  Se  Se119  1  0.09103623  0.75706275  0.06553498  1
  Se  Se120  1  0.08482308  0.74803081  0.54468978  1
  Se  Se121  1  0.40853650  0.07275430  0.05822374  1
  Se  Se122  1  0.42266065  0.08167019  0.54732346  1
  Se  Se123  1  0.41822172  0.42481722  0.06467060  1
  Se  Se124  1  0.41066805  0.41322932  0.55997493  1
  Se  Se125  1  0.42114332  0.75761007  0.06033943  1
  Se  Se126  1  0.41120178  0.74258592  0.55268197  1
  Se  Se127  1  0.74865284  0.07741707  0.06326549  1
  Se  Se128  1  0.75137475  0.08403784  0.55991251  1
  Se  Se129  1  0.74022221  0.41633839  0.07360139  1
  Se  Se130  1  0.74219513  0.41828771  0.55143286  1
  Se  Se131  1  0.74229805  0.74300640  0.06365476  1
  Se  Se132  1  0.74482049  0.73822442  0.53168952  1
  Se  Se133  1  0.25253937  0.25435502  0.06165460  1
  Se  Se134  1  0.25491564  0.25073565  0.54512501  1
  Se  Se135  1  0.26313499  0.60198118  0.07758617  1
  Se  Se136  1  0.25067532  0.58230087  0.54600637  1
  Se  Se137  1  0.24497344  0.91046088  0.06204736  1
  Se  Se138  1  0.25408564  0.91352632  0.54953138  1
  Se  Se139  1  0.58620704  0.25011298  0.07585936  1
  Se  Se140  1  0.57468923  0.25413591  0.54257668  1
  Se  Se141  1  0.57145373  0.57980975  0.06219570  1
  Se  Se142  1  0.59504162  0.59775713  0.54925897  1
  Se  Se143  1  0.58924218  0.92134403  0.04935548  1
  Se  Se144  1  0.56118686  0.89224797  0.54448024  1
  Se  Se145  1  0.91005764  0.23731542  0.05194334  1
  Se  Se146  1  0.92498416  0.25879871  0.55525459  1
  Se  Se147  1  0.92144526  0.58798680  0.06042264  1
  Se  Se148  1  0.91532178  0.59136751  0.55767816  1
  Se  Se149  1  0.92178508  0.92052358  0.07040362  1
  Se  Se150  1  0.89524814  0.90435418  0.55066046  1
  Se  Se151  1  0.09252152  0.24347614  0.44681003  1
  Se  Se152  1  0.07599424  0.25370162  0.93930305  1
  Se  Se153  1  0.08861074  0.58271338  0.44634461  1
  Se  Se154  1  0.08531679  0.59102932  0.94996007  1
  Se  Se155  1  0.08544379  0.91440751  0.44673197  1
  Se  Se156  1  0.08553307  0.91544884  0.94956581  1
  Se  Se157  1  0.42113730  0.24861858  0.44108384  1
  Se  Se158  1  0.40902409  0.25696689  0.94958052  1
  Se  Se159  1  0.41354646  0.59538813  0.43040278  1
  Se  Se160  1  0.41589782  0.58167299  0.95376056  1
  Se  Se161  1  0.41536837  0.91343486  0.44154285  1
  Se  Se162  1  0.41358210  0.91325807  0.94501472  1
  Se  Se163  1  0.73707859  0.25158107  0.43398191  1
  Se  Se164  1  0.73986766  0.24726412  0.95853311  1
  Se  Se165  1  0.73694940  0.58914508  0.42958374  1
  Se  Se166  1  0.73640834  0.59228250  0.94363167  1
  Se  Se167  1  0.74820882  0.91826504  0.45224780  1
  Se  Se168  1  0.74413330  0.92016593  0.93605176  1
  Se  Se169  1  0.25125336  0.07954931  0.44041568  1
  Se  Se170  1  0.25423594  0.07477887  0.94082741  1
  Se  Se171  1  0.25437412  0.42331510  0.44384150  1
  Se  Se172  1  0.25320592  0.41323855  0.94691808  1
  Se  Se173  1  0.24696121  0.75681125  0.44194729  1
  Se  Se174  1  0.25160975  0.74906973  0.94941158  1
  Se  Se175  1  0.59052364  0.07625111  0.45079301  1
  Se  Se176  1  0.58063767  0.07624869  0.93543324  1
  Se  Se177  1  0.58209911  0.41798206  0.43463022  1
  Se  Se178  1  0.57606655  0.41673349  0.96156422  1
  Se  Se179  1  0.57509433  0.76157664  0.44719976  1
  Se  Se180  1  0.58164961  0.75196807  0.95168947  1
  Se  Se181  1  0.92593588  0.06769108  0.44267545  1
  Se  Se182  1  0.91678924  0.07705879  0.95206062  1
  Se  Se183  1  0.92973920  0.40827628  0.43299086  1
  Se  Se184  1  0.91634096  0.41023383  0.93892973  1
  Se  Se185  1  0.91677419  0.74978767  0.44169366  1
  Se  Se186  1  0.92623111  0.74784018  0.95054163  1
  Se  Se187  1  0.25696326  0.25221494  0.30290111  1
  Se  Se188  1  0.23628851  0.23433217  0.81025544  1
  Se  Se189  1  0.24954338  0.58757528  0.30713573  1
  Se  Se190  1  0.25616846  0.58708478  0.79745873  1
  Se  Se191  1  0.23732439  0.90855142  0.29649904  1
  Se  Se192  1  0.24821837  0.91048426  0.80546922  1
  Se  Se193  1  0.58660336  0.24454562  0.30274085  1
  Se  Se194  1  0.56838187  0.23270182  0.80702494  1
  Se  Se195  1  0.55923250  0.58278013  0.29529937  1
  Se  Se196  1  0.57921756  0.58177355  0.81679390  1
  Se  Se197  1  0.58805608  0.92236836  0.30761429  1
  Se  Se198  1  0.58293453  0.91326524  0.80034520  1
  Se  Se199  1  0.91849371  0.24279596  0.31136463  1
  Se  Se200  1  0.90139870  0.24065284  0.81504815  1
  Se  Se201  1  0.91657848  0.58455579  0.30052576  1
  Se  Se202  1  0.92172208  0.59118778  0.80693756  1
  Se  Se203  1  0.91287924  0.91019746  0.30913672  1
  Se  Se204  1  0.91480184  0.91857382  0.80086840  1
  Se  Se205  1  0.08653436  0.08234368  0.30468205  1
  Se  Se206  1  0.07905332  0.07654845  0.79855478  1
  Se  Se207  1  0.09135137  0.41575662  0.31191756  1
  Se  Se208  1  0.08934264  0.42950120  0.79721506  1
  Se  Se209  1  0.07154877  0.73857353  0.30214919  1
  Se  Se210  1  0.09082914  0.75952366  0.81067768  1
  Se  Se211  1  0.41803575  0.07830759  0.30627004  1
  Se  Se212  1  0.40817862  0.07548211  0.79869195  1
  Se  Se213  1  0.42197956  0.41903509  0.29755226  1
  Se  Se214  1  0.42203873  0.41828844  0.81832784  1
  Se  Se215  1  0.41330083  0.75923640  0.30061288  1
  Se  Se216  1  0.41918371  0.74806446  0.80342768  1
  Se  Se217  1  0.76336358  0.08747413  0.30349739  1
  Se  Se218  1  0.74529255  0.07976826  0.80495080  1
  Se  Se219  1  0.74754810  0.41755287  0.29971037  1
  Se  Se220  1  0.75546465  0.43123390  0.80504129  1
  Se  Se221  1  0.73937939  0.74994257  0.30522013  1
  Se  Se222  1  0.76016434  0.75652637  0.80473998  1
  Se  Se223  1  0.25907877  0.08309783  0.20321477  1
  Se  Se224  1  0.25507295  0.07737427  0.69178867  1
  Se  Se225  1  0.25243221  0.41889052  0.20290240  1
  Se  Se226  1  0.25427359  0.41677520  0.68685164  1
  Se  Se227  1  0.25229451  0.76647321  0.21354497  1
  Se  Se228  1  0.25450903  0.74819432  0.69495773  1
  Se  Se229  1  0.58295169  0.08083572  0.19945859  1
  Se  Se230  1  0.58183359  0.07722180  0.68785243  1
  Se  Se231  1  0.60059720  0.40053179  0.20387820  1
  Se  Se232  1  0.57590553  0.42331167  0.70038901  1
  Se  Se233  1  0.58419670  0.75715995  0.19842638  1
  Se  Se234  1  0.58319981  0.76435771  0.68059824  1
  Se  Se235  1  0.92283947  0.08358144  0.20955197  1
  Se  Se236  1  0.92123914  0.07848205  0.69638855  1
  Se  Se237  1  0.91053773  0.42103892  0.18513518  1
  Se  Se238  1  0.91203455  0.41952843  0.69324494  1
  Se  Se239  1  0.91756663  0.74665507  0.20166809  1
  Se  Se240  1  0.91900753  0.77149358  0.68207472  1
  Se  Se241  1  0.09375206  0.23942062  0.18823027  1
  Se  Se242  1  0.09093756  0.24124102  0.68040714  1
  Se  Se243  1  0.08197665  0.58796841  0.20413452  1
  Se  Se244  1  0.09237979  0.57956885  0.67651074  1
  Se  Se245  1  0.07161026  0.92870488  0.20971134  1
  Se  Se246  1  0.08308584  0.91452616  0.68659759  1
  Se  Se247  1  0.41296896  0.25108341  0.20148058  1
  Se  Se248  1  0.41672420  0.24240559  0.68454426  1
  Se  Se249  1  0.43051609  0.58644932  0.21039987  1
  Se  Se250  1  0.41966058  0.58933500  0.69835971  1
  Se  Se251  1  0.41860497  0.92350063  0.19590087  1
  Se  Se252  1  0.41665469  0.91717343  0.69029747  1
  Se  Se253  1  0.75965700  0.24823939  0.21015543  1
  Se  Se254  1  0.75296953  0.23592839  0.68634260  1
  Se  Se255  1  0.74715682  0.58925440  0.20446451  1
  Se  Se256  1  0.75689388  0.58517185  0.68512817  1
  Se  Se257  1  0.74974594  0.91497413  0.20127034  1
  Se  Se258  1  0.73868550  0.90992682  0.68266087  1
