# generated using pymatgen
data_In86Cu29Se144
_symmetry_space_group_name_H-M   'P 1'
_cell_length_a   17.58712502
_cell_length_b   17.58444062
_cell_length_c   23.45543041
_cell_angle_alpha   90.00373095
_cell_angle_beta   89.98906344
_cell_angle_gamma   89.97940743
_symmetry_Int_Tables_number   1
_chemical_formula_structural   In86Cu29Se144
_chemical_formula_sum   'In86 Cu29 Se144'
_cell_volume   7253.82006065
_cell_formula_units_Z   1
loop_
 _symmetry_equiv_pos_site_id
 _symmetry_equiv_pos_as_xyz
  1  'x, y, z'
loop_
 _atom_site_type_symbol
 _atom_site_label
 _atom_site_symmetry_multiplicity
 _atom_site_fract_x
 _atom_site_fract_y
 _atom_site_fract_z
 _atom_site_occupancy
  In  In0  1  -0.00037471  0.17299808  0.12267222  1
  In  In1  1  -0.01252892  0.18286689  0.62492690  1
  In  In2  1  -0.00032657  0.49982196  0.12386480  1
  In  In3  1  -0.00544754  0.51222684  0.62777057  1
  In  In4  1  -0.00103622  0.81793004  0.12501606  1
  In  In5  1  -0.03113103  0.82947481  0.63250032  1
  In  In6  1  0.33790680  0.18466001  0.12528337  1
  In  In7  1  0.35474321  0.18581064  0.61904984  1
  In  In8  1  0.33311816  0.50348691  0.12390612  1
  In  In9  1  0.35179454  0.48369055  0.64409038  1
  In  In10  1  0.31752878  0.82466379  0.11674181  1
  In  In11  1  0.32370387  0.82908518  0.62924592  1
  In  In12  1  0.68486105  0.18375265  0.12108958  1
  In  In13  1  0.66267647  0.17156522  0.63055255  1
  In  In14  1  0.66637060  0.49910653  0.12433037  1
  In  In15  1  0.65510156  0.48961206  0.61508194  1
  In  In16  1  0.65728813  0.82666269  0.12557003  1
  In  In17  1  0.69056140  0.82958716  0.63009718  1
  In  In18  1  0.16944811  0.00197477  0.37276877  1
  In  In19  1  0.15915512  0.00566935  0.88457614  1
  In  In20  1  0.17129283  0.34061562  0.36301672  1
  In  In21  1  0.17286070  0.32632399  0.88512392  1
  In  In22  1  0.15889514  0.65216387  0.36190856  1
  In  In23  1  0.16821326  0.66482826  0.88182571  1
  In  In24  1  0.52379311  0.01401601  0.38231391  1
  In  In25  1  0.51060844  0.00047576  0.86550823  1
  In  In26  1  0.50040311  0.33205719  0.37847201  1
  In  In27  1  0.51843831  0.34382130  0.86176431  1
  In  In28  1  0.49026064  0.64729003  0.36883573  1
  In  In29  1  0.49344613  0.66800371  0.87404725  1
  In  In30  1  0.81084776  0.00766130  0.39276723  1
  In  In31  1  0.84097194  0.00947476  0.87229017  1
  In  In32  1  0.83404893  0.33675644  0.37184658  1
  In  In33  1  0.82749663  0.34147765  0.87752018  1
  In  In34  1  0.83046490  0.66579675  0.37355688  1
  In  In35  1  0.82770173  0.63855602  0.86351990  1
  In  In36  1  -0.01757311  0.17060425  0.37238497  1
  In  In37  1  -0.00533445  0.17382323  0.88628044  1
  In  In38  1  -0.00892183  0.49048279  0.36226223  1
  In  In39  1  -0.01205003  0.51133357  0.88231479  1
  In  In40  1  -0.00839914  0.81835304  0.36967723  1
  In  In41  1  0.01027307  0.83171991  0.87845655  1
  In  In42  1  0.34328379  0.18644583  0.37403957  1
  In  In43  1  0.32987752  0.16827001  0.87517734  1
  In  In44  1  0.33494854  0.49702252  0.37141181  1
  In  In45  1  0.33475071  0.49901721  0.88064920  1
  In  In46  1  0.34339014  0.81380524  0.37815994  1
  In  In47  1  0.33141571  0.82185722  0.87415902  1
  In  In48  1  0.66077140  0.17312272  0.38331324  1
  In  In49  1  0.68300489  0.18794081  0.85831196  1
  In  In50  1  0.66797347  0.49716531  0.37346696  1
  In  In51  1  0.68680608  0.48685443  0.89143687  1
  In  In52  1  0.67711168  0.83685165  0.37790805  1
  In  In53  1  0.66172497  0.82793657  0.86890583  1
  In  In54  1  0.16238519  0.00001983  0.11489464  1
  In  In55  1  0.16847898  -0.00198201  0.62896128  1
  In  In56  1  0.16722948  0.33651952  0.11907713  1
  In  In57  1  0.17313276  0.34928725  0.62873491  1
  In  In58  1  0.16516100  0.66354136  0.12104101  1
  In  In59  1  0.16637259  0.66308355  0.63581052  1
  In  In60  1  0.50773658  -0.00149951  0.12644372  1
  In  In61  1  0.51508647  0.02697262  0.61947447  1
  In  In62  1  0.48758299  0.34890528  0.13649172  1
  In  In63  1  0.49785072  0.33771772  0.62791627  1
  In  In64  1  0.52095729  0.63965072  0.13755777  1
  In  In65  1  0.50123460  0.64937875  0.62331943  1
  In  In66  1  0.82695221  0.01657322  0.12604101  1
  In  In67  1  0.80829710  -0.01095879  0.60823469  1
  In  In68  1  0.83147782  0.33556914  0.12944441  1
  In  In69  1  0.81744847  0.31941675  0.61166205  1
  In  In70  1  0.83815594  0.66250083  0.13025274  1
  In  In71  1  0.83350131  0.66644692  0.62080132  1
  In  In72  1  0.33437408  -0.00830227  0.24890871  1
  In  In73  1  0.16657370  0.49913034  0.49281705  1
  In  In74  1  0.66713066  0.66360636  0.74847267  1
  In  In75  1  0.15951517  0.16900871  0.50959983  1
  In  In76  1  -0.00040771  0.34526812  0.75102110  1
  In  In77  1  -0.00155485  -0.00327694  0.74955316  1
  In  In78  1  0.15761164  0.83054854  0.50124742  1
  In  In79  1  0.49979987  0.16867191  -0.00303187  1
  In  In80  1  0.49514899  0.82591880  -0.00849500  1
  In  In81  1  0.83654542  0.82856606  0.00282264  1
  In  In82  1  0.33787322  0.00044733  0.75167641  1
  In  In83  1  0.66708891  -0.00020824  0.25861882  1
  In  In84  1  -0.00644657  -0.00029388  0.24734673  1
  In  In85  1  0.50593783  0.83297253  0.50049800  1
  Cu  Cu86  1  0.34192685  0.00912374  0.49736006  1
  Cu  Cu87  1  0.16856952  0.17447116  0.24395627  1
  Cu  Cu88  1  0.33413319  0.66495512  0.00170749  1
  Cu  Cu89  1  0.50418659  0.49307755  0.25269056  1
  Cu  Cu90  1  0.82992575  0.50238688  0.24856733  1
  Cu  Cu91  1  0.17142332  0.50446048  0.76004664  1
  Cu  Cu92  1  0.17253199  0.16962612  0.75404807  1
  Cu  Cu93  1  0.32829191  0.00338777  -0.00250035  1
  Cu  Cu94  1  -0.01181422  0.67061442  0.50076441  1
  Cu  Cu95  1  0.50090320  0.83969640  0.74601122  1
  Cu  Cu96  1  0.50026974  0.50404331  0.75284967  1
  Cu  Cu97  1  -0.01279219  -0.00161406  0.49976158  1
  Cu  Cu98  1  -0.00324391  0.00512586  0.00059523  1
  Cu  Cu99  1  0.50574190  0.17261972  0.25278054  1
  Cu  Cu100  1  0.00107155  0.66487263  0.00040931  1
  Cu  Cu101  1  0.83197061  0.83272158  0.25269214  1
  Cu  Cu102  1  0.66456753  0.33556014  0.49713154  1
  Cu  Cu103  1  -0.00154404  0.33480273  0.00553196  1
  Cu  Cu104  1  0.82705483  0.16546697  0.74753935  1
  Cu  Cu105  1  0.17018839  0.50041046  0.23908874  1
  Cu  Cu106  1  0.67365474  0.00486012  -0.00399727  1
  Cu  Cu107  1  0.49364910  0.81543767  0.25000995  1
  Cu  Cu108  1  0.16804720  0.81922407  0.75502933  1
  Cu  Cu109  1  0.32914102  0.65547603  0.50178802  1
  Cu  Cu110  1  -0.00370745  0.33721200  0.49130274  1
  Cu  Cu111  1  0.33469393  0.33788644  0.00215329  1
  Cu  Cu112  1  0.16699236  0.81819875  0.24653373  1
  Cu  Cu113  1  0.66728490  0.66238832  0.49766311  1
  Cu  Cu114  1  0.66569228  0.33439660  0.00046559  1
  Se  Se115  1  0.08110755  0.08936809  0.05272959  1
  Se  Se116  1  0.06706745  0.07188689  0.56455807  1
  Se  Se117  1  0.08336253  0.42112026  0.05259501  1
  Se  Se118  1  0.07386030  0.41313791  0.55685640  1
  Se  Se119  1  0.08487816  0.75117712  0.05110687  1
  Se  Se120  1  0.07199849  0.74344683  0.56465742  1
  Se  Se121  1  0.41106208  0.07502029  0.06039132  1
  Se  Se122  1  0.42370453  0.09379053  0.54866431  1
  Se  Se123  1  0.41876412  0.41994051  0.05531215  1
  Se  Se124  1  0.41550924  0.42267627  0.55880920  1
  Se  Se125  1  0.41938026  0.74074260  0.06330863  1
  Se  Se126  1  0.40717887  0.74388883  0.55758165  1
  Se  Se127  1  0.75188526  0.09114580  0.04967205  1
  Se  Se128  1  0.76512057  0.11221188  0.56228260  1
  Se  Se129  1  0.75034850  0.41480317  0.05600154  1
  Se  Se130  1  0.75091011  0.42040263  0.54734347  1
  Se  Se131  1  0.74261447  0.74207259  0.05957657  1
  Se  Se132  1  0.74976668  0.74633017  0.55005881  1
  Se  Se133  1  0.25203711  0.24948344  0.05122097  1
  Se  Se134  1  0.25466447  0.26513679  0.55630890  1
  Se  Se135  1  0.24870221  0.58075515  0.05248902  1
  Se  Se136  1  0.24960275  0.57993880  0.56439918  1
  Se  Se137  1  0.24672111  0.91592657  0.04851556  1
  Se  Se138  1  0.25875548  0.92604599  0.55289359  1
  Se  Se139  1  0.58018165  0.25976708  0.06219468  1
  Se  Se140  1  0.58536439  0.25792277  0.55938506  1
  Se  Se141  1  0.58146749  0.57552117  0.05227484  1
  Se  Se142  1  0.57882314  0.58003334  0.54602666  1
  Se  Se143  1  0.59035123  0.92215655  0.05020472  1
  Se  Se144  1  0.59067783  0.91521423  0.56734449  1
  Se  Se145  1  0.91141668  0.25253446  0.05629401  1
  Se  Se146  1  0.91556731  0.25022106  0.54382279  1
  Se  Se147  1  0.91667004  0.58587475  0.05583191  1
  Se  Se148  1  0.91206726  0.57891016  0.55103269  1
  Se  Se149  1  0.92090068  0.92544415  0.06570377  1
  Se  Se150  1  0.90957132  0.90977148  0.55161986  1
  Se  Se151  1  0.08307938  0.25586831  0.43671646  1
  Se  Se152  1  0.08296637  0.24984049  0.95270458  1
  Se  Se153  1  0.06914158  0.59055574  0.43986456  1
  Se  Se154  1  0.08432793  0.58017807  0.94872995  1
  Se  Se155  1  0.07212128  0.92326377  0.43799383  1
  Se  Se156  1  0.08019310  0.91774774  0.95150143  1
  Se  Se157  1  0.43440260  0.23657593  0.44924160  1
  Se  Se158  1  0.41564603  0.26280323  0.93791615  1
  Se  Se159  1  0.41259108  0.57571804  0.44658799  1
  Se  Se160  1  0.41922250  0.58597476  0.94720701  1
  Se  Se161  1  0.41425855  0.92327235  0.43713835  1
  Se  Se162  1  0.41011184  0.92818250  0.93505995  1
  Se  Se163  1  0.75250798  0.25677693  0.44414251  1
  Se  Se164  1  0.74759058  0.25127915  0.94475253  1
  Se  Se165  1  0.75089890  0.58091488  0.44288514  1
  Se  Se166  1  0.75851996  0.58675967  0.95075848  1
  Se  Se167  1  0.73907620  0.91451548  0.45757690  1
  Se  Se168  1  0.74890300  0.91832299  0.93823000  1
  Se  Se169  1  0.25218170  0.08570908  0.44191914  1
  Se  Se170  1  0.24706604  0.09102275  0.94685764  1
  Se  Se171  1  0.25874685  0.40286727  0.44235489  1
  Se  Se172  1  0.24876457  0.41977160  0.95014790  1
  Se  Se173  1  0.24597024  0.73453321  0.44231838  1
  Se  Se174  1  0.25149191  0.75198678  0.95008534  1
  Se  Se175  1  0.61084586  0.07220411  0.45626213  1
  Se  Se176  1  0.59238717  0.08388293  0.93615837  1
  Se  Se177  1  0.58223764  0.41997461  0.44434789  1
  Se  Se178  1  0.57980236  0.41514602  0.94711604  1
  Se  Se179  1  0.58356322  0.73863886  0.43531363  1
  Se  Se180  1  0.59629931  0.73754576  0.94300403  1
  Se  Se181  1  0.91165978  0.08834315  0.44748277  1
  Se  Se182  1  0.91007008  0.08673375  0.95020763  1
  Se  Se183  1  0.91426766  0.42478594  0.44249429  1
  Se  Se184  1  0.91657565  0.41453966  0.94686289  1
  Se  Se185  1  0.90780172  0.75439818  0.44566269  1
  Se  Se186  1  0.91848890  0.73966739  0.93791882  1
  Se  Se187  1  0.25503873  0.25119671  0.29988162  1
  Se  Se188  1  0.25194379  0.25544013  0.80688756  1
  Se  Se189  1  0.25304305  0.57723586  0.29999313  1
  Se  Se190  1  0.25536240  0.58762880  0.81195970  1
  Se  Se191  1  0.24419713  0.89870703  0.30981597  1
  Se  Se192  1  0.23854823  0.91561877  0.81075349  1
  Se  Se193  1  0.58762582  0.25291391  0.30788208  1
  Se  Se194  1  0.57791050  0.24344445  0.79596323  1
  Se  Se195  1  0.58722496  0.58112663  0.30198408  1
  Se  Se196  1  0.58384825  0.57776476  0.81479823  1
  Se  Se197  1  0.56886891  0.90443483  0.30971759  1
  Se  Se198  1  0.59064688  0.91614999  0.79743692  1
  Se  Se199  1  0.93235391  0.27049798  0.30362873  1
  Se  Se200  1  0.91372330  0.24365868  0.80675818  1
  Se  Se201  1  0.91372108  0.58714150  0.30156029  1
  Se  Se202  1  0.91599591  0.56644739  0.79568939  1
  Se  Se203  1  0.90257187  0.91989123  0.31462162  1
  Se  Se204  1  0.91246270  0.90523526  0.81015633  1
  Se  Se205  1  0.09050225  0.09161761  0.30466517  1
  Se  Se206  1  0.08504060  0.09420572  0.80951217  1
  Se  Se207  1  0.08614489  0.41973956  0.29577375  1
  Se  Se208  1  0.08989198  0.42207146  0.81866222  1
  Se  Se209  1  0.07662304  0.74315061  0.29968137  1
  Se  Se210  1  0.08163370  0.74160281  0.80917100  1
  Se  Se211  1  0.42768888  0.08255731  0.30905308  1
  Se  Se212  1  0.42675888  0.09658182  0.80547517  1
  Se  Se213  1  0.41864389  0.41162802  0.30569410  1
  Se  Se214  1  0.41596403  0.42110267  0.80656376  1
  Se  Se215  1  0.40744582  0.73396857  0.30053367  1
  Se  Se216  1  0.42199147  0.75667106  0.80206836  1
  Se  Se217  1  0.75691157  0.09498658  0.31097966  1
  Se  Se218  1  0.74963898  0.07752058  0.80234905  1
  Se  Se219  1  0.74981277  0.41740840  0.30242286  1
  Se  Se220  1  0.74216432  0.41379267  0.80627844  1
  Se  Se221  1  0.74576496  0.75119414  0.30462545  1
  Se  Se222  1  0.76136191  0.75283429  0.80598507  1
  Se  Se223  1  0.24683869  0.08537519  0.18811301  1
  Se  Se224  1  0.25017059  0.09367576  0.68908163  1
  Se  Se225  1  0.25323985  0.41346207  0.19011524  1
  Se  Se226  1  0.25010434  0.41603341  0.70743210  1
  Se  Se227  1  0.25363461  0.74044517  0.19291760  1
  Se  Se228  1  0.25691812  0.74210153  0.70227921  1
  Se  Se229  1  0.58427148  0.09261192  0.19120873  1
  Se  Se230  1  0.58526683  0.08756241  0.70223568  1
  Se  Se231  1  0.59067323  0.41367657  0.19823684  1
  Se  Se232  1  0.58176879  0.42233894  0.69683134  1
  Se  Se233  1  0.58850512  0.74368254  0.19965783  1
  Se  Se234  1  0.57732277  0.75465856  0.68491252  1
  Se  Se235  1  0.90567070  0.09997767  0.19787513  1
  Se  Se236  1  0.91095558  0.08686793  0.68916462  1
  Se  Se237  1  0.91588463  0.42169786  0.19516933  1
  Se  Se238  1  0.90761332  0.41223603  0.68053383  1
  Se  Se239  1  0.91625546  0.75010739  0.20004614  1
  Se  Se240  1  0.91913760  0.72737720  0.69938538  1
  Se  Se241  1  0.08451567  0.25413015  0.19008955  1
  Se  Se242  1  0.09135615  0.24809010  0.69222667  1
  Se  Se243  1  0.08207673  0.58531486  0.19258649  1
  Se  Se244  1  0.08428205  0.57733344  0.70144229  1
  Se  Se245  1  0.09116540  0.90951515  0.19162837  1
  Se  Se246  1  0.09046803  0.90039179  0.69161524  1
  Se  Se247  1  0.41598135  0.25241333  0.20297380  1
  Se  Se248  1  0.41169491  0.26180450  0.70007916  1
  Se  Se249  1  0.41770770  0.57622086  0.19982018  1
  Se  Se250  1  0.41678291  0.59167232  0.70316153  1
  Se  Se251  1  0.42422945  0.90136569  0.18691038  1
  Se  Se252  1  0.42342707  0.91791049  0.68201861  1
  Se  Se253  1  0.75027184  0.25427380  0.20109326  1
  Se  Se254  1  0.74927803  0.25693412  0.69796323  1
  Se  Se255  1  0.74634282  0.58471904  0.19490449  1
  Se  Se256  1  0.74669373  0.57319480  0.68346275  1
  Se  Se257  1  0.75402097  0.91202606  0.19041169  1
  Se  Se258  1  0.76397571  0.91685163  0.69788024  1
