# generated using pymatgen
data_In86Cu29Se144
_symmetry_space_group_name_H-M   'P 1'
_cell_length_a   17.57927445
_cell_length_b   17.57440555
_cell_length_c   23.43637224
_cell_angle_alpha   89.97484946
_cell_angle_beta   89.99803268
_cell_angle_gamma   90.01457995
_symmetry_Int_Tables_number   1
_chemical_formula_structural   In86Cu29Se144
_chemical_formula_sum   'In86 Cu29 Se144'
_cell_volume   7240.55608011
_cell_formula_units_Z   1
loop_
 _symmetry_equiv_pos_site_id
 _symmetry_equiv_pos_as_xyz
  1  'x, y, z'
loop_
 _atom_site_type_symbol
 _atom_site_label
 _atom_site_symmetry_multiplicity
 _atom_site_fract_x
 _atom_site_fract_y
 _atom_site_fract_z
 _atom_site_occupancy
  In  In0  1  0.00533691  0.16507496  0.12740258  1
  In  In1  1  0.00955705  0.16711052  0.63911660  1
  In  In2  1  0.00845097  0.49316166  0.13253113  1
  In  In3  1  -0.00217678  0.50156892  0.62221030  1
  In  In4  1  -0.01085579  0.84015438  0.13244883  1
  In  In5  1  -0.00341916  0.82809797  0.62195484  1
  In  In6  1  0.34736239  0.17086061  0.11985796  1
  In  In7  1  0.34081770  0.17222667  0.62942580  1
  In  In8  1  0.32157075  0.50114024  0.11765945  1
  In  In9  1  0.32630234  0.50360901  0.61180718  1
  In  In10  1  0.34823590  0.81772385  0.12466665  1
  In  In11  1  0.32740490  0.81880120  0.61374576  1
  In  In12  1  0.66045118  0.17709034  0.11869247  1
  In  In13  1  0.67441162  0.17266758  0.63133096  1
  In  In14  1  0.66296063  0.51624856  0.12913198  1
  In  In15  1  0.66756221  0.50323567  0.62650270  1
  In  In16  1  0.66286714  0.82289336  0.11872754  1
  In  In17  1  0.65899572  0.81184408  0.62287254  1
  In  In18  1  0.15631143  -0.00558686  0.37074557  1
  In  In19  1  0.15489643  0.00057963  0.86854514  1
  In  In20  1  0.17978949  0.34222688  0.37101184  1
  In  In21  1  0.17953465  0.34034950  0.85987580  1
  In  In22  1  0.14294523  0.67599295  0.39385862  1
  In  In23  1  0.15301178  0.66712840  0.87450535  1
  In  In24  1  0.48607322  -0.01356510  0.37088451  1
  In  In25  1  0.50851213  -0.00338014  0.88268411  1
  In  In26  1  0.49702992  0.36271204  0.37016936  1
  In  In27  1  0.49607743  0.33923103  0.87330091  1
  In  In28  1  0.51185553  0.65030939  0.38090995  1
  In  In29  1  0.50237739  0.65800125  0.87730887  1
  In  In30  1  0.83792662  -0.02103888  0.37863141  1
  In  In31  1  0.83957745  -0.01476204  0.87671454  1
  In  In32  1  0.84823688  0.32931183  0.37636574  1
  In  In33  1  0.83868294  0.34064099  0.86746811  1
  In  In34  1  0.83919063  0.66606671  0.37678512  1
  In  In35  1  0.83972884  0.67544382  0.86665427  1
  In  In36  1  0.01254667  0.16964996  0.36769750  1
  In  In37  1  0.00452659  0.16441543  0.86398122  1
  In  In38  1  -0.00062415  0.49818445  0.38290110  1
  In  In39  1  0.00826147  0.50887020  0.87063296  1
  In  In40  1  -0.00358615  0.82900083  0.37598198  1
  In  In41  1  -0.00364485  0.82673846  0.86876535  1
  In  In42  1  0.32138822  0.17452662  0.37085723  1
  In  In43  1  0.32859145  0.18226387  0.87292048  1
  In  In44  1  0.33484349  0.50348515  0.38467420  1
  In  In45  1  0.34453442  0.49728429  0.88284181  1
  In  In46  1  0.34241248  0.80148031  0.39788349  1
  In  In47  1  0.33900212  0.83483451  0.87721943  1
  In  In48  1  0.66655842  0.16962581  0.37706504  1
  In  In49  1  0.65406581  0.17035020  0.87575960  1
  In  In50  1  0.65875258  0.51389380  0.38085776  1
  In  In51  1  0.65945415  0.49351640  0.86723203  1
  In  In52  1  0.68616911  0.81131761  0.38403185  1
  In  In53  1  0.66859931  0.82910346  0.87251539  1
  In  In54  1  0.15488053  -0.01040167  0.12542106  1
  In  In55  1  0.16167460  -0.01675718  0.62512705  1
  In  In56  1  0.16152050  0.34629532  0.12935006  1
  In  In57  1  0.15849172  0.34485126  0.63587154  1
  In  In58  1  0.16994293  0.65157359  0.12685998  1
  In  In59  1  0.14720198  0.65130388  0.60118883  1
  In  In60  1  0.50105663  -0.00235442  0.11711480  1
  In  In61  1  0.50487813  -0.01890522  0.63115101  1
  In  In62  1  0.49150427  0.33584004  0.11983523  1
  In  In63  1  0.48866287  0.35024525  0.63413108  1
  In  In64  1  0.50208662  0.67410624  0.11560298  1
  In  In65  1  0.51199056  0.67746185  0.62165235  1
  In  In66  1  0.85337948  -0.01204895  0.12490963  1
  In  In67  1  0.84489302  -0.00034797  0.62583723  1
  In  In68  1  0.83942278  0.34362073  0.12776009  1
  In  In69  1  0.82601569  0.34370369  0.63253941  1
  In  In70  1  0.82578927  0.67513613  0.13289688  1
  In  In71  1  0.83912145  0.66088077  0.61907732  1
  In  In72  1  0.17185558  0.82726248  0.00160440  1
  In  In73  1  0.83550907  0.16605085  0.50743889  1
  In  In74  1  0.67062661  0.00284163  0.75702852  1
  In  In75  1  0.82823268  0.50644711  0.00591197  1
  In  In76  1  0.32624568  0.00063017  0.75037308  1
  In  In77  1  0.16663111  0.16666333  -0.00387075  1
  In  In78  1  0.16954513  0.16502872  0.50350238  1
  In  In79  1  0.67015706  0.33943330  0.24507275  1
  In  In80  1  0.66969298  -0.00328791  0.25185655  1
  In  In81  1  0.33064811  0.65487406  0.25428783  1
  In  In82  1  0.31971063  -0.00279640  0.25029948  1
  In  In83  1  0.82936695  0.16198890  -0.00696572  1
  In  In84  1  0.33100199  0.66431441  0.74662093  1
  In  In85  1  0.50130330  0.16817880  0.50271771  1
  Cu  Cu86  1  0.66643961  0.34719392  0.50596439  1
  Cu  Cu87  1  0.84487658  0.16073318  0.25106548  1
  Cu  Cu88  1  0.00276638  0.34002888  0.50566090  1
  Cu  Cu89  1  0.16759111  0.50283509  0.74283752  1
  Cu  Cu90  1  0.65715093  -0.01194628  0.50090187  1
  Cu  Cu91  1  0.83722655  0.50534936  0.74638409  1
  Cu  Cu92  1  0.33488426  0.33890665  0.49792636  1
  Cu  Cu93  1  0.65123145  0.33801704  -0.00293712  1
  Cu  Cu94  1  0.83737060  0.17517204  0.75051687  1
  Cu  Cu95  1  0.33684903  -0.00846006  0.50106162  1
  Cu  Cu96  1  0.49716309  0.17489576  0.75465910  1
  Cu  Cu97  1  0.16526808  0.17452705  0.24570850  1
  Cu  Cu98  1  0.16105661  0.50234977  0.25591344  1
  Cu  Cu99  1  0.49657208  0.17738885  0.24491215  1
  Cu  Cu100  1  0.83883701  0.82588708  0.25537883  1
  Cu  Cu101  1  -0.00500500  -0.00818635  0.49665477  1
  Cu  Cu102  1  0.66971673  0.66181499  0.50166831  1
  Cu  Cu103  1  0.33356041  0.33842450  -0.00560994  1
  Cu  Cu104  1  0.16592797  0.83023398  0.25811151  1
  Cu  Cu105  1  0.00486826  0.33630773  0.00096199  1
  Cu  Cu106  1  0.49983095  0.50126815  0.75110835  1
  Cu  Cu107  1  0.15483177  0.82401670  0.74341493  1
  Cu  Cu108  1  -0.00204066  0.66840036  -0.00167050  1
  Cu  Cu109  1  0.50843688  0.82402344  0.24843076  1
  Cu  Cu110  1  0.83999920  0.49969079  0.25452947  1
  Cu  Cu111  1  0.66720738  0.66925302  -0.00274340  1
  Cu  Cu112  1  0.66988838  -0.00378290  -0.00078775  1
  Cu  Cu113  1  0.33794060  -0.00100622  -0.00079737  1
  Cu  Cu114  1  0.83261298  0.83164812  0.74645120  1
  Se  Se115  1  0.07496056  0.07320306  0.05223353  1
  Se  Se116  1  0.07176090  0.07576197  0.55733304  1
  Se  Se117  1  0.08526705  0.42270972  0.05314640  1
  Se  Se118  1  0.09106105  0.42065273  0.55616847  1
  Se  Se119  1  0.07747116  0.74479489  0.06394731  1
  Se  Se120  1  0.09408938  0.77015039  0.55126198  1
  Se  Se121  1  0.42134068  0.08504265  0.04994631  1
  Se  Se122  1  0.41428874  0.07142845  0.56217027  1
  Se  Se123  1  0.41304878  0.42160308  0.05138640  1
  Se  Se124  1  0.42103064  0.41979086  0.55100888  1
  Se  Se125  1  0.41957575  0.75236566  0.04463912  1
  Se  Se126  1  0.42746207  0.75393122  0.55128743  1
  Se  Se127  1  0.74668660  0.07509836  0.06331790  1
  Se  Se128  1  0.73606978  0.07312290  0.55894399  1
  Se  Se129  1  0.73634562  0.40885986  0.06073351  1
  Se  Se130  1  0.75688191  0.42483758  0.55627205  1
  Se  Se131  1  0.75495932  0.74726101  0.05189113  1
  Se  Se132  1  0.75342528  0.74754661  0.55297659  1
  Se  Se133  1  0.25331160  0.25866455  0.05749858  1
  Se  Se134  1  0.25754899  0.25921816  0.56054785  1
  Se  Se135  1  0.25084467  0.59215133  0.04857978  1
  Se  Se136  1  0.26503881  0.60391514  0.54457472  1
  Se  Se137  1  0.26208712  0.92139209  0.06327029  1
  Se  Se138  1  0.24734937  0.91444269  0.55238015  1
  Se  Se139  1  0.57302281  0.25022628  0.05032259  1
  Se  Se140  1  0.58799211  0.26013861  0.56369742  1
  Se  Se141  1  0.58577598  0.58396543  0.05053892  1
  Se  Se142  1  0.58343489  0.58128891  0.55525045  1
  Se  Se143  1  0.58483358  0.91317833  0.05269662  1
  Se  Se144  1  0.57901849  0.90414643  0.55644617  1
  Se  Se145  1  0.92000981  0.25495473  0.05581533  1
  Se  Se146  1  0.92678764  0.25468118  0.56613518  1
  Se  Se147  1  0.92341285  0.58970102  0.06539777  1
  Se  Se148  1  0.93441405  0.59389593  0.54831818  1
  Se  Se149  1  0.91838072  0.90629135  0.04920490  1
  Se  Se150  1  0.91096009  0.91342402  0.55237130  1
  Se  Se151  1  0.08135619  0.25806826  0.44432213  1
  Se  Se152  1  0.07969662  0.25862155  0.93604424  1
  Se  Se153  1  0.05659103  0.59171894  0.45922937  1
  Se  Se154  1  0.08251713  0.58270708  0.94955951  1
  Se  Se155  1  0.08363626  0.91355006  0.44402366  1
  Se  Se156  1  0.07989272  0.91470405  0.94158917  1
  Se  Se157  1  0.41362606  0.25591743  0.43825053  1
  Se  Se158  1  0.41662716  0.25205790  0.94377014  1
  Se  Se159  1  0.40702211  0.59877756  0.44789600  1
  Se  Se160  1  0.41469850  0.58894055  0.94962981  1
  Se  Se161  1  0.42081261  0.90805228  0.44922821  1
  Se  Se162  1  0.42083637  0.91376918  0.94758448  1
  Se  Se163  1  0.74206433  0.25858484  0.44841795  1
  Se  Se164  1  0.74313987  0.26475020  0.94064339  1
  Se  Se165  1  0.75516691  0.58217767  0.44655706  1
  Se  Se166  1  0.74633217  0.58873273  0.93561940  1
  Se  Se167  1  0.74953282  0.91242431  0.45059318  1
  Se  Se168  1  0.74915361  0.91271991  0.94388099  1
  Se  Se169  1  0.25820883  0.07301245  0.44058642  1
  Se  Se170  1  0.25673854  0.07276474  0.93691184  1
  Se  Se171  1  0.24480921  0.42099890  0.45039759  1
  Se  Se172  1  0.24519744  0.41615587  0.94092098  1
  Se  Se173  1  0.24343211  0.73697424  0.46185776  1
  Se  Se174  1  0.25707092  0.73862200  0.93857909  1
  Se  Se175  1  0.58482134  0.07136871  0.43883048  1
  Se  Se176  1  0.58703969  0.08475393  0.95026889  1
  Se  Se177  1  0.58082052  0.42277017  0.44844721  1
  Se  Se178  1  0.57529654  0.42598218  0.94334389  1
  Se  Se179  1  0.58494384  0.74550705  0.44724224  1
  Se  Se180  1  0.58353484  0.75026873  0.94196244  1
  Se  Se181  1  0.92315124  0.08274204  0.43823185  1
  Se  Se182  1  0.92844905  0.07700333  0.94001208  1
  Se  Se183  1  0.91262305  0.41407956  0.45156980  1
  Se  Se184  1  0.92021559  0.41800796  0.94474580  1
  Se  Se185  1  0.89466040  0.77122234  0.44263597  1
  Se  Se186  1  0.91638369  0.75015469  0.94373398  1
  Se  Se187  1  0.25160069  0.25626496  0.29679231  1
  Se  Se188  1  0.24337600  0.23868032  0.79599374  1
  Se  Se189  1  0.23178047  0.58510808  0.32098051  1
  Se  Se190  1  0.24375184  0.57694230  0.81079863  1
  Se  Se191  1  0.25482084  0.89888821  0.31935076  1
  Se  Se192  1  0.23698437  0.89984899  0.80621389  1
  Se  Se193  1  0.57765047  0.25018168  0.30921813  1
  Se  Se194  1  0.58406849  0.25772029  0.80456567  1
  Se  Se195  1  0.57735028  0.57431373  0.30160809  1
  Se  Se196  1  0.58384183  0.58664660  0.80132336  1
  Se  Se197  1  0.58426086  0.90347587  0.31252787  1
  Se  Se198  1  0.57279375  0.91022179  0.80399692  1
  Se  Se199  1  0.92308692  0.24995074  0.30255394  1
  Se  Se200  1  0.92356421  0.25745490  0.80216256  1
  Se  Se201  1  0.92266226  0.58165526  0.30935757  1
  Se  Se202  1  0.92080813  0.58634592  0.80235276  1
  Se  Se203  1  0.92139521  0.91695526  0.30173819  1
  Se  Se204  1  0.91733505  0.91504389  0.79938574  1
  Se  Se205  1  0.08937791  0.08317907  0.29808102  1
  Se  Se206  1  0.08221558  0.07892935  0.79549629  1
  Se  Se207  1  0.08054191  0.41611140  0.31073203  1
  Se  Se208  1  0.08420541  0.42196946  0.80048642  1
  Se  Se209  1  0.08070226  0.74532591  0.30784326  1
  Se  Se210  1  0.07436346  0.74020882  0.79890019  1
  Se  Se211  1  0.41940189  0.09109690  0.30450807  1
  Se  Se212  1  0.42312833  0.08540649  0.81193203  1
  Se  Se213  1  0.39930702  0.42387536  0.30469789  1
  Se  Se214  1  0.41204505  0.41970417  0.80291380  1
  Se  Se215  1  0.42228003  0.74993552  0.30933966  1
  Se  Se216  1  0.42114094  0.75278735  0.80687096  1
  Se  Se217  1  0.76111897  0.08862023  0.31305393  1
  Se  Se218  1  0.76202889  0.09471740  0.81570887  1
  Se  Se219  1  0.75689547  0.41953684  0.31395461  1
  Se  Se220  1  0.75368736  0.42129788  0.80081780  1
  Se  Se221  1  0.75132191  0.74036990  0.30187154  1
  Se  Se222  1  0.74755919  0.74985437  0.79943863  1
  Se  Se223  1  0.24204493  0.09214352  0.18310774  1
  Se  Se224  1  0.24066377  0.08708146  0.68547619  1
  Se  Se225  1  0.24707692  0.42669190  0.19715635  1
  Se  Se226  1  0.25881120  0.42524151  0.69159924  1
  Se  Se227  1  0.24604223  0.75549588  0.19400797  1
  Se  Se228  1  0.23545932  0.74466905  0.68446172  1
  Se  Se229  1  0.57803152  0.09056901  0.19227448  1
  Se  Se230  1  0.57418310  0.09061370  0.69384264  1
  Se  Se231  1  0.57319451  0.42510947  0.19101304  1
  Se  Se232  1  0.58727331  0.41870341  0.69830042  1
  Se  Se233  1  0.58745394  0.74186603  0.19264523  1
  Se  Se234  1  0.58297549  0.74760633  0.70261441  1
  Se  Se235  1  0.92374519  0.07859531  0.19429560  1
  Se  Se236  1  0.91441507  0.08539737  0.69855958  1
  Se  Se237  1  0.92137592  0.41343222  0.20186013  1
  Se  Se238  1  0.92129734  0.41906019  0.69559543  1
  Se  Se239  1  0.92203528  0.74368812  0.20028922  1
  Se  Se240  1  0.91505397  0.74689342  0.69242372  1
  Se  Se241  1  0.07944573  0.25678971  0.19370963  1
  Se  Se242  1  0.09130690  0.25153431  0.70332102  1
  Se  Se243  1  0.08121993  0.58622637  0.20053937  1
  Se  Se244  1  0.08559959  0.58621124  0.68869589  1
  Se  Se245  1  0.08356461  0.91276248  0.20195806  1
  Se  Se246  1  0.07297736  0.91465403  0.69606208  1
  Se  Se247  1  0.41104028  0.25864518  0.19483532  1
  Se  Se248  1  0.41385036  0.25671556  0.70065534  1
  Se  Se249  1  0.41885054  0.58163715  0.18347542  1
  Se  Se250  1  0.42292989  0.57807948  0.68552663  1
  Se  Se251  1  0.42560693  0.91206090  0.19587833  1
  Se  Se252  1  0.40902888  0.90241217  0.69323281  1
  Se  Se253  1  0.76110068  0.23846407  0.19140492  1
  Se  Se254  1  0.74804821  0.25640885  0.70226769  1
  Se  Se255  1  0.75483258  0.58019466  0.20051883  1
  Se  Se256  1  0.75272368  0.58754935  0.69290809  1
  Se  Se257  1  0.75795171  0.90601145  0.19225427  1
  Se  Se258  1  0.75074385  0.91446288  0.68863376  1
