# generated using pymatgen
data_In86Cu29Se144
_symmetry_space_group_name_H-M   'P 1'
_cell_length_a   17.72715393
_cell_length_b   17.73452312
_cell_length_c   23.57090385
_cell_angle_alpha   89.99289199
_cell_angle_beta   90.03847036
_cell_angle_gamma   90.00881971
_symmetry_Int_Tables_number   1
_chemical_formula_structural   In86Cu29Se144
_chemical_formula_sum   'In86 Cu29 Se144'
_cell_volume   7410.28072344
_cell_formula_units_Z   1
loop_
 _symmetry_equiv_pos_site_id
 _symmetry_equiv_pos_as_xyz
  1  'x, y, z'
loop_
 _atom_site_type_symbol
 _atom_site_label
 _atom_site_symmetry_multiplicity
 _atom_site_fract_x
 _atom_site_fract_y
 _atom_site_fract_z
 _atom_site_occupancy
  In  In0  1  0.00641493  0.16632534  0.12686245  1
  In  In1  1  -0.00784584  0.15662991  0.61920588  1
  In  In2  1  -0.00930047  0.49430658  0.13649608  1
  In  In3  1  -0.00077058  0.50545270  0.61170812  1
  In  In4  1  0.00435025  0.83543778  0.11365037  1
  In  In5  1  0.00211996  0.83733458  0.62949050  1
  In  In6  1  0.32983175  0.17896260  0.13769541  1
  In  In7  1  0.34270810  0.16891424  0.61535554  1
  In  In8  1  0.33707758  0.48737615  0.13021456  1
  In  In9  1  0.31461583  0.49580969  0.61099265  1
  In  In10  1  0.33880616  0.84321306  0.11921025  1
  In  In11  1  0.32689820  0.84480073  0.62398368  1
  In  In12  1  0.67726432  0.17378627  0.13063505  1
  In  In13  1  0.66026404  0.17369923  0.62019953  1
  In  In14  1  0.65896642  0.50036878  0.12670253  1
  In  In15  1  0.65817998  0.49429987  0.61378138  1
  In  In16  1  0.66859249  0.83355933  0.11170752  1
  In  In17  1  0.67560642  0.82869361  0.62889047  1
  In  In18  1  0.18522924  -0.01429137  0.38498624  1
  In  In19  1  0.16460987  0.00468321  0.87901594  1
  In  In20  1  0.17177526  0.32559675  0.37269618  1
  In  In21  1  0.16787548  0.31745017  0.87668792  1
  In  In22  1  0.20169387  0.64141088  0.42379809  1
  In  In23  1  0.16636560  0.67804396  0.87133110  1
  In  In24  1  0.51359875  0.01732520  0.37337893  1
  In  In25  1  0.49688888  -0.01487787  0.86926735  1
  In  In26  1  0.49343937  0.34183503  0.37081098  1
  In  In27  1  0.50033069  0.33797849  0.87191009  1
  In  In28  1  0.50784986  0.63999587  0.38372487  1
  In  In29  1  0.49834416  0.66547551  0.88042377  1
  In  In30  1  0.83115670  -0.00039211  0.37999126  1
  In  In31  1  0.81952981  -0.00677477  0.86186702  1
  In  In32  1  0.84141344  0.32051679  0.37960262  1
  In  In33  1  0.83019513  0.34287597  0.86812923  1
  In  In34  1  0.87637288  0.62510022  0.42594128  1
  In  In35  1  0.84928248  0.66417317  0.86385935  1
  In  In36  1  0.00209955  0.16387531  0.38048241  1
  In  In37  1  0.01668002  0.16435248  0.87765935  1
  In  In38  1  0.02486404  0.48754211  0.38926745  1
  In  In39  1  -0.00955409  0.49752944  0.86800981  1
  In  In40  1  0.00273548  0.82392693  0.38284709  1
  In  In41  1  -0.00223487  0.83291111  0.86981609  1
  In  In42  1  0.33346641  0.16484543  0.37110936  1
  In  In43  1  0.31758989  0.16024225  0.87401916  1
  In  In44  1  0.34922089  0.48573242  0.38342821  1
  In  In45  1  0.34247621  0.50201290  0.87535183  1
  In  In46  1  0.33132116  0.82448312  0.37124227  1
  In  In47  1  0.33431779  0.83635840  0.88431889  1
  In  In48  1  0.63493500  0.21883605  0.43026850  1
  In  In49  1  0.66460929  0.17136023  0.86462975  1
  In  In50  1  0.69504665  0.45470639  0.42946941  1
  In  In51  1  0.66361423  0.48632660  0.86812306  1
  In  In52  1  0.67703485  0.83210961  0.37550223  1
  In  In53  1  0.65874286  0.84067421  0.87688348  1
  In  In54  1  0.17977484  0.01382337  0.11224241  1
  In  In55  1  0.16418038  -0.00847298  0.61772065  1
  In  In56  1  0.16736609  0.33113089  0.13503647  1
  In  In57  1  0.17281739  0.33866887  0.61803962  1
  In  In58  1  0.16220222  0.67795065  0.12522066  1
  In  In59  1  0.14894277  0.65873545  0.61263003  1
  In  In60  1  0.50091223  -0.00708932  0.12419288  1
  In  In61  1  0.49138711  0.01218077  0.62812925  1
  In  In62  1  0.49643525  0.33623150  0.13041892  1
  In  In63  1  0.49868119  0.33247695  0.61820457  1
  In  In64  1  0.50363725  0.67012907  0.11385753  1
  In  In65  1  0.50060095  0.66830400  0.62507613  1
  In  In66  1  0.84235812  -0.00404277  0.11967658  1
  In  In67  1  0.83443583  0.00129437  0.62992643  1
  In  In68  1  0.83092229  0.32882034  0.13953611  1
  In  In69  1  0.81888054  0.32823343  0.60811243  1
  In  In70  1  0.82406014  0.66454721  0.12432318  1
  In  In71  1  0.84726829  0.67764590  0.60840252  1
  In  In72  1  0.83717452  0.16473871  0.00223743  1
  In  In73  1  0.16760879  0.50137720  0.00930879  1
  In  In74  1  0.67173789  0.00542075  0.24898347  1
  In  In75  1  0.33393591  0.00456593  0.74956636  1
  In  In76  1  -0.00126684  0.66671219  0.26363070  1
  In  In77  1  0.49450799  0.16584421  0.00058362  1
  In  In78  1  0.33408849  0.65952290  0.26153254  1
  In  In79  1  0.67117242  0.66528885  0.25673497  1
  In  In80  1  0.66839314  0.66207426  0.73939646  1
  In  In81  1  -0.00216331  0.33242424  0.74541286  1
  In  In82  1  0.49150647  0.84107008  0.50561716  1
  In  In83  1  0.33104606  0.66887510  0.75107425  1
  In  In84  1  0.00424426  0.00054020  0.24570238  1
  In  In85  1  0.83187754  0.50050108  -0.00685936  1
  Cu  Cu86  1  0.33206575  0.33386555  0.00857591  1
  Cu  Cu87  1  0.66347965  -0.00447512  -0.00805416  1
  Cu  Cu88  1  0.82803165  0.48549014  0.26735809  1
  Cu  Cu89  1  0.33651604  0.66850376  -0.00110560  1
  Cu  Cu90  1  0.16666942  0.16853169  0.75111202  1
  Cu  Cu91  1  0.16434064  0.49774884  0.25741632  1
  Cu  Cu92  1  0.83469693  0.82998376  0.74529644  1
  Cu  Cu93  1  -0.00132117  0.66563931  -0.00623346  1
  Cu  Cu94  1  0.50103893  0.17675076  0.74316596  1
  Cu  Cu95  1  -0.00016291  -0.00466585  0.50278332  1
  Cu  Cu96  1  0.83088032  0.17316028  0.74021737  1
  Cu  Cu97  1  0.83114655  0.49637404  0.74097661  1
  Cu  Cu98  1  0.83761489  0.82952208  0.24915943  1
  Cu  Cu99  1  -0.00396536  -0.00750249  -0.00577297  1
  Cu  Cu100  1  0.50876716  0.17648463  0.26272774  1
  Cu  Cu101  1  0.16635788  0.16456079  0.25168683  1
  Cu  Cu102  1  0.00669005  0.33040250  0.49978548  1
  Cu  Cu103  1  0.49430055  0.49334330  0.74493049  1
  Cu  Cu104  1  0.82851362  0.16996044  0.26077846  1
  Cu  Cu105  1  0.17059045  0.83725512  0.25220938  1
  Cu  Cu106  1  0.67132948  0.66927521  -0.00441634  1
  Cu  Cu107  1  0.33189994  0.32964683  0.49625616  1
  Cu  Cu108  1  0.67469396  0.00138338  0.50666047  1
  Cu  Cu109  1  0.16074913  0.83401950  0.74823567  1
  Cu  Cu110  1  0.16468652  0.49865895  0.73814339  1
  Cu  Cu111  1  0.66477781  0.33796367  -0.00314800  1
  Cu  Cu112  1  0.50108067  0.83154027  0.24437711  1
  Cu  Cu113  1  0.66303214  0.66446847  0.50012619  1
  Cu  Cu114  1  0.50057244  0.49363548  0.24719224  1
  Se  Se115  1  0.07009075  0.07639404  0.05479331  1
  Se  Se116  1  0.08319219  0.08058573  0.55365492  1
  Se  Se117  1  0.07452474  0.41358524  0.06569152  1
  Se  Se118  1  0.08631072  0.41861972  0.55079518  1
  Se  Se119  1  0.08276479  0.74557543  0.04840354  1
  Se  Se120  1  0.09908665  0.77501821  0.56047987  1
  Se  Se121  1  0.40905477  0.08494758  0.06709060  1
  Se  Se122  1  0.40762039  0.06894381  0.54959534  1
  Se  Se123  1  0.42016876  0.41630707  0.05659170  1
  Se  Se124  1  0.41000160  0.41477681  0.55293774  1
  Se  Se125  1  0.41757562  0.75461873  0.05217192  1
  Se  Se126  1  0.40309048  0.74480470  0.56048284  1
  Se  Se127  1  0.73884998  0.07405614  0.05748549  1
  Se  Se128  1  0.75182363  0.08572236  0.56229808  1
  Se  Se129  1  0.74847094  0.41094841  0.05955988  1
  Se  Se130  1  0.73947057  0.41674920  0.53978247  1
  Se  Se131  1  0.75588828  0.74790818  0.05013096  1
  Se  Se132  1  0.74331280  0.74991181  0.55190164  1
  Se  Se133  1  0.24940427  0.25394540  0.06311178  1
  Se  Se134  1  0.25067020  0.24886663  0.55270222  1
  Se  Se135  1  0.26160920  0.59242208  0.06567541  1
  Se  Se136  1  0.23800737  0.58497809  0.54470395  1
  Se  Se137  1  0.23066994  0.89834005  0.05917524  1
  Se  Se138  1  0.28680150  0.95704177  0.56087125  1
  Se  Se139  1  0.59178797  0.25417146  0.05845999  1
  Se  Se140  1  0.58411483  0.25573387  0.54618760  1
  Se  Se141  1  0.59259458  0.58574760  0.05258777  1
  Se  Se142  1  0.57644156  0.58747129  0.55330035  1
  Se  Se143  1  0.58113283  0.91810963  0.05058055  1
  Se  Se144  1  0.58965074  0.92304205  0.56522951  1
  Se  Se145  1  0.91856946  0.25849852  0.06334138  1
  Se  Se146  1  0.92072251  0.25163870  0.55350407  1
  Se  Se147  1  0.92332629  0.58632260  0.05803911  1
  Se  Se148  1  0.89994416  0.57048148  0.54452196  1
  Se  Se149  1  0.91232428  0.91136574  0.04809506  1
  Se  Se150  1  0.91693027  0.91877785  0.56141913  1
  Se  Se151  1  0.08793450  0.24852518  0.44435068  1
  Se  Se152  1  0.07764809  0.25646820  0.94777141  1
  Se  Se153  1  0.05628253  0.61596491  0.43620711  1
  Se  Se154  1  0.07880505  0.58122535  0.93802731  1
  Se  Se155  1  0.08114962  0.91787616  0.44455027  1
  Se  Se156  1  0.08041153  0.91387680  0.93937898  1
  Se  Se157  1  0.41495572  0.25281768  0.43827006  1
  Se  Se158  1  0.40609638  0.25702438  0.94134733  1
  Se  Se159  1  0.38152569  0.61224994  0.43411412  1
  Se  Se160  1  0.41748237  0.58192765  0.94833556  1
  Se  Se161  1  0.42087272  0.92250473  0.42983139  1
  Se  Se162  1  0.40829058  0.93222837  0.94522514  1
  Se  Se163  1  0.77709776  0.22768355  0.45105680  1
  Se  Se164  1  0.74659303  0.25674208  0.94030911  1
  Se  Se165  1  0.72975814  0.59900343  0.42583404  1
  Se  Se166  1  0.74408687  0.58849676  0.93088567  1
  Se  Se167  1  0.74764785  0.91714023  0.44778672  1
  Se  Se168  1  0.75248719  0.91649288  0.94189434  1
  Se  Se169  1  0.23844860  0.09948288  0.43955663  1
  Se  Se170  1  0.24419656  0.08643026  0.94836988  1
  Se  Se171  1  0.24908736  0.41355464  0.44291035  1
  Se  Se172  1  0.25483918  0.41405165  0.94467497  1
  Se  Se173  1  0.24138733  0.77645518  0.44964077  1
  Se  Se174  1  0.25079816  0.74557527  0.94483228  1
  Se  Se175  1  0.58794598  0.08154953  0.45441607  1
  Se  Se176  1  0.58749330  0.08339497  0.93748628  1
  Se  Se177  1  0.54806716  0.45030796  0.43499148  1
  Se  Se178  1  0.58126534  0.41864773  0.94381240  1
  Se  Se179  1  0.58093521  0.75109510  0.44158016  1
  Se  Se180  1  0.58474786  0.74947983  0.94344416  1
  Se  Se181  1  0.92046355  0.07693511  0.44570119  1
  Se  Se182  1  0.91718684  0.07617970  0.93532381  1
  Se  Se183  1  0.92348361  0.41165751  0.44526523  1
  Se  Se184  1  0.92561375  0.40513411  0.94223557  1
  Se  Se185  1  0.89460274  0.76771405  0.44295987  1
  Se  Se186  1  0.91650318  0.74633523  0.93905347  1
  Se  Se187  1  0.25302788  0.24878112  0.30018993  1
  Se  Se188  1  0.25186638  0.25074542  0.80184976  1
  Se  Se189  1  0.23696855  0.57975076  0.32046769  1
  Se  Se190  1  0.23988467  0.57401122  0.80713607  1
  Se  Se191  1  0.25765492  0.91648177  0.30369207  1
  Se  Se192  1  0.24501183  0.90969310  0.80832271  1
  Se  Se193  1  0.59135869  0.24744719  0.32543021  1
  Se  Se194  1  0.58141395  0.25805264  0.80161468  1
  Se  Se195  1  0.58338467  0.56834103  0.30667282  1
  Se  Se196  1  0.57424447  0.57689185  0.80354080  1
  Se  Se197  1  0.58332033  0.90917419  0.30510664  1
  Se  Se198  1  0.59497408  0.92653549  0.80274626  1
  Se  Se199  1  0.92475600  0.24437838  0.30678367  1
  Se  Se200  1  0.91166397  0.24285846  0.80900379  1
  Se  Se201  1  0.91079372  0.57338929  0.31944018  1
  Se  Se202  1  0.91818979  0.57592556  0.79262912  1
  Se  Se203  1  0.91457677  0.91350657  0.30683601  1
  Se  Se204  1  0.91389619  0.91432640  0.80117564  1
  Se  Se205  1  0.09211557  0.08016544  0.31160965  1
  Se  Se206  1  0.08706533  0.08289851  0.80368943  1
  Se  Se207  1  0.08340775  0.41095160  0.30711633  1
  Se  Se208  1  0.09153488  0.41899865  0.80598040  1
  Se  Se209  1  0.09657575  0.75509270  0.31268828  1
  Se  Se210  1  0.07989301  0.74780107  0.80062915  1
  Se  Se211  1  0.42342077  0.08588444  0.30342563  1
  Se  Se212  1  0.42576313  0.09660942  0.80868735  1
  Se  Se213  1  0.40864453  0.41767299  0.29725943  1
  Se  Se214  1  0.41256147  0.41616641  0.80350964  1
  Se  Se215  1  0.43601880  0.74754997  0.31040996  1
  Se  Se216  1  0.42073047  0.75651466  0.81133758  1
  Se  Se217  1  0.74745270  0.09065220  0.31732197  1
  Se  Se218  1  0.74986602  0.09165719  0.79836658  1
  Se  Se219  1  0.74652424  0.41245091  0.32809689  1
  Se  Se220  1  0.74858689  0.41560162  0.79507997  1
  Se  Se221  1  0.76638084  0.74920289  0.31187234  1
  Se  Se222  1  0.75261149  0.74996397  0.80559446  1
  Se  Se223  1  0.24715175  0.08224850  0.19518208  1
  Se  Se224  1  0.24624203  0.09174810  0.68840115  1
  Se  Se225  1  0.24743496  0.42017848  0.20008587  1
  Se  Se226  1  0.25193072  0.41664996  0.69165488  1
  Se  Se227  1  0.25249923  0.75158302  0.19588286  1
  Se  Se228  1  0.24235735  0.75553604  0.68884027  1
  Se  Se229  1  0.57615518  0.09512029  0.19168896  1
  Se  Se230  1  0.58074320  0.09111397  0.69140516  1
  Se  Se231  1  0.58843456  0.41288782  0.19657340  1
  Se  Se232  1  0.57942139  0.41811087  0.68754115  1
  Se  Se233  1  0.58539269  0.75380256  0.18807758  1
  Se  Se234  1  0.57228424  0.75955562  0.69518886  1
  Se  Se235  1  0.90290279  0.09191563  0.19399634  1
  Se  Se236  1  0.91827779  0.08583767  0.69784944  1
  Se  Se237  1  0.91279235  0.41308658  0.20633075  1
  Se  Se238  1  0.91055702  0.41641502  0.67987896  1
  Se  Se239  1  0.91670718  0.75045961  0.18833697  1
  Se  Se240  1  0.91593806  0.74664526  0.69118718  1
  Se  Se241  1  0.08096018  0.24664995  0.19948452  1
  Se  Se242  1  0.08870414  0.24464990  0.68647218  1
  Se  Se243  1  0.08990635  0.58007389  0.19485419  1
  Se  Se244  1  0.07773212  0.57911088  0.68879747  1
  Se  Se245  1  0.09129657  0.90860851  0.18736012  1
  Se  Se246  1  0.08553370  0.92431395  0.69607805  1
  Se  Se247  1  0.42420466  0.25218873  0.20244088  1
  Se  Se248  1  0.41571339  0.25209360  0.68797711  1
  Se  Se249  1  0.42668484  0.58318206  0.19027317  1
  Se  Se250  1  0.41384949  0.57618193  0.68788104  1
  Se  Se251  1  0.41827741  0.91590674  0.19525663  1
  Se  Se252  1  0.42466675  0.90974902  0.69615590  1
  Se  Se253  1  0.74385085  0.25281913  0.20775758  1
  Se  Se254  1  0.74831886  0.25512005  0.68785072  1
  Se  Se255  1  0.76172575  0.56758193  0.19718479  1
  Se  Se256  1  0.75696604  0.57718072  0.67741194  1
  Se  Se257  1  0.75757060  0.90754759  0.18888457  1
  Se  Se258  1  0.75065522  0.91539507  0.69693917  1
