# generated using pymatgen
data_In86Cu29Se144
_symmetry_space_group_name_H-M   'P 1'
_cell_length_a   17.57676767
_cell_length_b   17.57738749
_cell_length_c   23.44229335
_cell_angle_alpha   89.99934087
_cell_angle_beta   89.97944399
_cell_angle_gamma   90.02557395
_symmetry_Int_Tables_number   1
_chemical_formula_structural   In86Cu29Se144
_chemical_formula_sum   'In86 Cu29 Se144'
_cell_volume   7242.58105327
_cell_formula_units_Z   1
loop_
 _symmetry_equiv_pos_site_id
 _symmetry_equiv_pos_as_xyz
  1  'x, y, z'
loop_
 _atom_site_type_symbol
 _atom_site_label
 _atom_site_symmetry_multiplicity
 _atom_site_fract_x
 _atom_site_fract_y
 _atom_site_fract_z
 _atom_site_occupancy
  In  In0  1  -0.00091969  0.17802493  0.12249590  1
  In  In1  1  -0.00075133  0.15436615  0.62865876  1
  In  In2  1  -0.00584080  0.51810580  0.11853094  1
  In  In3  1  0.00099145  0.51499808  0.63011855  1
  In  In4  1  0.00408948  0.81165321  0.12322078  1
  In  In5  1  0.01431231  0.82940271  0.62675674  1
  In  In6  1  0.34155835  0.14835052  0.14089925  1
  In  In7  1  0.33593025  0.16785631  0.62057765  1
  In  In8  1  0.34547639  0.48992459  0.13350529  1
  In  In9  1  0.32678625  0.49509136  0.62579850  1
  In  In10  1  0.33300238  0.83482213  0.12400074  1
  In  In11  1  0.34769893  0.84164628  0.60965211  1
  In  In12  1  0.66294601  0.16785543  0.12413324  1
  In  In13  1  0.66521689  0.17736066  0.62642101  1
  In  In14  1  0.65719171  0.49056544  0.11809710  1
  In  In15  1  0.66586867  0.48351813  0.62411306  1
  In  In16  1  0.66073206  0.85090848  0.12812665  1
  In  In17  1  0.65761315  0.84083742  0.62100920  1
  In  In18  1  0.17615169  -0.00521942  0.37920945  1
  In  In19  1  0.16900415  -0.00537903  0.87051988  1
  In  In20  1  0.17070956  0.31547574  0.37931277  1
  In  In21  1  0.17381296  0.31689624  0.87328391  1
  In  In22  1  0.17689030  0.67663260  0.36542189  1
  In  In23  1  0.16486393  0.68104255  0.87751221  1
  In  In24  1  0.49443123  0.00395146  0.37257551  1
  In  In25  1  0.48870642  0.00974349  0.88255657  1
  In  In26  1  0.48849383  0.32137409  0.36589925  1
  In  In27  1  0.50550583  0.32911757  0.87263200  1
  In  In28  1  0.49298917  0.68471798  0.38072852  1
  In  In29  1  0.49667512  0.66615888  0.88890165  1
  In  In30  1  0.82573621  0.01053073  0.37144466  1
  In  In31  1  0.84610953  -0.00202628  0.87637802  1
  In  In32  1  0.83530367  0.34756216  0.37421136  1
  In  In33  1  0.81551481  0.34358427  0.88014336  1
  In  In34  1  0.82875027  0.64754732  0.37271595  1
  In  In35  1  0.84049765  0.65281128  0.87611430  1
  In  In36  1  0.01154741  0.17903199  0.38419214  1
  In  In37  1  0.00480067  0.15126208  0.87847811  1
  In  In38  1  -0.01562628  0.49688308  0.37610880  1
  In  In39  1  -0.01781354  0.50407511  0.87220390  1
  In  In40  1  0.01833930  0.83141266  0.37629914  1
  In  In41  1  0.00994081  0.84026751  0.87018371  1
  In  In42  1  0.33325098  0.16812945  0.37339729  1
  In  In43  1  0.35517894  0.17023060  0.85962825  1
  In  In44  1  0.33525586  0.50177600  0.36381493  1
  In  In45  1  0.34700868  0.49576253  0.87889091  1
  In  In46  1  0.32752816  0.83666553  0.37371096  1
  In  In47  1  0.32575585  0.83938766  0.88124066  1
  In  In48  1  0.65384092  0.15789094  0.36583124  1
  In  In49  1  0.64866667  0.18097547  0.88131438  1
  In  In50  1  0.68233419  0.50043965  0.37412812  1
  In  In51  1  0.67519810  0.48615768  0.87965097  1
  In  In52  1  0.64155673  0.83094086  0.37434453  1
  In  In53  1  0.66223565  0.82275456  0.87760715  1
  In  In54  1  0.19091211  -0.00196776  0.12926528  1
  In  In55  1  0.17244270  0.00123369  0.62274281  1
  In  In56  1  0.17118620  0.33283470  0.13127782  1
  In  In57  1  0.18720359  0.33401809  0.62559483  1
  In  In58  1  0.15793268  0.67779456  0.12935247  1
  In  In59  1  0.15968959  0.66724809  0.62177365  1
  In  In60  1  0.49563945  0.00349752  0.12293608  1
  In  In61  1  0.49048264  -0.00404518  0.61950553  1
  In  In62  1  0.50115650  0.33176960  0.12467865  1
  In  In63  1  0.50625216  0.32319251  0.63217577  1
  In  In64  1  0.49195267  0.65915150  0.12259053  1
  In  In65  1  0.49070036  0.67283608  0.61732846  1
  In  In66  1  0.81838850  0.00027527  0.12631111  1
  In  In67  1  0.83606234  0.01487342  0.63120398  1
  In  In68  1  0.82143558  0.32699321  0.11721121  1
  In  In69  1  0.82203119  0.33253557  0.62737603  1
  In  In70  1  0.84719994  0.66347394  0.12237028  1
  In  In71  1  0.84369076  0.66531205  0.62420660  1
  In  In72  1  0.66169565  0.66590031  0.25232170  1
  In  In73  1  0.00160186  -0.00187629  0.25746323  1
  In  In74  1  0.00192599  0.33220386  0.75132790  1
  In  In75  1  0.66520364  0.00471887  0.74963420  1
  In  In76  1  0.33037784  0.66475902  0.74736390  1
  In  In77  1  0.83496013  0.17138007  0.50305642  1
  In  In78  1  0.16504058  0.50228394  0.50257252  1
  In  In79  1  0.16495695  0.50312363  0.00374011  1
  In  In80  1  0.82838899  0.83277804  0.00116835  1
  In  In81  1  0.17186815  0.15884543  0.00394035  1
  In  In82  1  0.00323489  0.33682480  0.25342867  1
  In  In83  1  0.50443013  0.50396788  0.49209371  1
  In  In84  1  0.83179294  0.83082638  0.50297351  1
  In  In85  1  0.67157396  0.65978950  0.75348194  1
  Cu  Cu86  1  0.00869678  -0.00088288  0.50347696  1
  Cu  Cu87  1  0.66105957  0.00735305  0.00412130  1
  Cu  Cu88  1  0.33224448  0.66768012  0.00539887  1
  Cu  Cu89  1  0.83300811  0.49785847  0.24664055  1
  Cu  Cu90  1  -0.01171683  0.33568423  -0.00012285  1
  Cu  Cu91  1  0.83141029  0.83038896  0.24491858  1
  Cu  Cu92  1  0.82756128  0.16865571  0.24652130  1
  Cu  Cu93  1  0.65439081  -0.00157928  0.49568809  1
  Cu  Cu94  1  0.49033954  0.84351396  0.25028302  1
  Cu  Cu95  1  0.33211107  0.00424726  0.49571152  1
  Cu  Cu96  1  0.33961169  0.32974494  0.49797708  1
  Cu  Cu97  1  0.17608852  0.15866481  0.74894868  1
  Cu  Cu98  1  0.16591791  0.50379262  0.24662444  1
  Cu  Cu99  1  0.84760364  0.83364207  0.74827589  1
  Cu  Cu100  1  0.00166872  0.66670300  0.50048629  1
  Cu  Cu101  1  0.34261261  0.32788368  0.00113257  1
  Cu  Cu102  1  0.16633937  0.50019870  0.74898565  1
  Cu  Cu103  1  0.50505352  0.49020233  0.75318739  1
  Cu  Cu104  1  0.16885034  0.83379957  0.24905391  1
  Cu  Cu105  1  0.66141601  0.66722111  0.00225061  1
  Cu  Cu106  1  0.00146145  -0.00578118  -0.00020622  1
  Cu  Cu107  1  0.49477431  0.83472793  0.74872138  1
  Cu  Cu108  1  0.16964388  0.83824688  0.74797741  1
  Cu  Cu109  1  0.49958244  0.16660706  0.24667893  1
  Cu  Cu110  1  0.66503031  0.32922804  0.49940296  1
  Cu  Cu111  1  0.33703259  -0.00120363  0.00064587  1
  Cu  Cu112  1  0.66212062  0.33276162  0.00037687  1
  Cu  Cu113  1  0.50424254  0.49804905  0.24745326  1
  Cu  Cu114  1  0.83576134  0.16816241  0.75589142  1
  Se  Se115  1  0.07928748  0.07133627  0.06558491  1
  Se  Se116  1  0.08696869  0.08764066  0.55551518  1
  Se  Se117  1  0.07425045  0.40704122  0.06205789  1
  Se  Se118  1  0.08217774  0.41496078  0.56881446  1
  Se  Se119  1  0.08296624  0.74230135  0.04783605  1
  Se  Se120  1  0.08660881  0.75239913  0.54878942  1
  Se  Se121  1  0.41223421  0.08905531  0.05472208  1
  Se  Se122  1  0.41741847  0.08516602  0.54981043  1
  Se  Se123  1  0.41958021  0.41731721  0.05457004  1
  Se  Se124  1  0.41723156  0.41471192  0.55707821  1
  Se  Se125  1  0.41833599  0.75210969  0.05606247  1
  Se  Se126  1  0.41968840  0.74994595  0.54247097  1
  Se  Se127  1  0.75048165  0.08717363  0.05391504  1
  Se  Se128  1  0.73869234  0.07522840  0.55646047  1
  Se  Se129  1  0.74915452  0.41908486  0.04914422  1
  Se  Se130  1  0.75062109  0.41201761  0.54998428  1
  Se  Se131  1  0.73907450  0.74585020  0.06573981  1
  Se  Se132  1  0.74093896  0.74233248  0.56220559  1
  Se  Se133  1  0.25918803  0.25253935  0.06222780  1
  Se  Se134  1  0.25101286  0.24931250  0.54921136  1
  Se  Se135  1  0.25655466  0.58480087  0.06757538  1
  Se  Se136  1  0.26161585  0.59393203  0.55680628  1
  Se  Se137  1  0.25027704  0.91517519  0.05054673  1
  Se  Se138  1  0.25015573  0.91894502  0.54984950  1
  Se  Se139  1  0.57983908  0.24806302  0.05358452  1
  Se  Se140  1  0.58072323  0.24880163  0.55299335  1
  Se  Se141  1  0.57839715  0.58144089  0.05361630  1
  Se  Se142  1  0.58999554  0.58546888  0.56167515  1
  Se  Se143  1  0.57843521  0.91915685  0.05272778  1
  Se  Se144  1  0.57398688  0.91309319  0.54929903  1
  Se  Se145  1  0.91067026  0.24560868  0.05114906  1
  Se  Se146  1  0.92477980  0.25648627  0.56523318  1
  Se  Se147  1  0.90943535  0.58300835  0.04413539  1
  Se  Se148  1  0.91935228  0.58156599  0.55161967  1
  Se  Se149  1  0.92082416  0.91909122  0.06449049  1
  Se  Se150  1  0.91980948  0.92645274  0.56201059  1
  Se  Se151  1  0.07340491  0.27109037  0.45422060  1
  Se  Se152  1  0.07715427  0.25410693  0.94741805  1
  Se  Se153  1  0.07962913  0.58834909  0.43594746  1
  Se  Se154  1  0.07761861  0.58652155  0.93868042  1
  Se  Se155  1  0.08899876  0.91587685  0.44877096  1
  Se  Se156  1  0.08823691  0.91770125  0.94500079  1
  Se  Se157  1  0.42148596  0.24481846  0.44550659  1
  Se  Se158  1  0.41923243  0.24610030  0.94180132  1
  Se  Se159  1  0.40335406  0.59034100  0.44058051  1
  Se  Se160  1  0.41354496  0.57989612  0.95435676  1
  Se  Se161  1  0.41404167  0.91904681  0.44133898  1
  Se  Se162  1  0.41923457  0.91231022  0.94829792  1
  Se  Se163  1  0.74447496  0.25022537  0.43570701  1
  Se  Se164  1  0.74697931  0.24838677  0.94758159  1
  Se  Se165  1  0.75172686  0.57971793  0.44973171  1
  Se  Se166  1  0.74234746  0.58899920  0.94307282  1
  Se  Se167  1  0.74283661  0.92124867  0.43967827  1
  Se  Se168  1  0.73907449  0.92660557  0.94091007  1
  Se  Se169  1  0.24776808  0.09011961  0.44508280  1
  Se  Se170  1  0.26121414  0.08126855  0.93635735  1
  Se  Se171  1  0.25968213  0.41606107  0.44176807  1
  Se  Se172  1  0.25370671  0.40581262  0.94518050  1
  Se  Se173  1  0.23924422  0.75880879  0.44198245  1
  Se  Se174  1  0.25048752  0.75016821  0.95057891  1
  Se  Se175  1  0.57699404  0.08738235  0.44366988  1
  Se  Se176  1  0.57683221  0.08797385  0.94927318  1
  Se  Se177  1  0.58809397  0.40616374  0.43365221  1
  Se  Se178  1  0.57889408  0.41611758  0.94540253  1
  Se  Se179  1  0.59527105  0.73647753  0.44909515  1
  Se  Se180  1  0.57925734  0.75530325  0.95301158  1
  Se  Se181  1  0.92496135  0.07575112  0.44286671  1
  Se  Se182  1  0.91766961  0.08096748  0.95163505  1
  Se  Se183  1  0.91956608  0.41032099  0.44964025  1
  Se  Se184  1  0.91025794  0.42010739  0.94506823  1
  Se  Se185  1  0.92039494  0.74461609  0.43780508  1
  Se  Se186  1  0.92060778  0.75212694  0.93810097  1
  Se  Se187  1  0.26207705  0.26269609  0.30532261  1
  Se  Se188  1  0.25624565  0.24766069  0.79967477  1
  Se  Se189  1  0.25242070  0.58709557  0.29766509  1
  Se  Se190  1  0.24609757  0.57709145  0.81473352  1
  Se  Se191  1  0.24959647  0.92072704  0.30078174  1
  Se  Se192  1  0.25704101  0.91606061  0.80196091  1
  Se  Se193  1  0.58407560  0.25201355  0.29807640  1
  Se  Se194  1  0.58024395  0.24617630  0.79913945  1
  Se  Se195  1  0.57417873  0.57772688  0.31525357  1
  Se  Se196  1  0.57429114  0.57893320  0.81441978  1
  Se  Se197  1  0.57995714  0.92195980  0.30185769  1
  Se  Se198  1  0.57931873  0.90954710  0.80934314  1
  Se  Se199  1  0.91041491  0.24160712  0.31023703  1
  Se  Se200  1  0.91612121  0.24626561  0.81782620  1
  Se  Se201  1  0.91713642  0.58090820  0.29903799  1
  Se  Se202  1  0.91917841  0.58893617  0.79707529  1
  Se  Se203  1  0.90808862  0.90548021  0.31412567  1
  Se  Se204  1  0.92394480  0.92193280  0.80206803  1
  Se  Se205  1  0.08921465  0.09136860  0.31417999  1
  Se  Se206  1  0.08780952  0.08232470  0.80352055  1
  Se  Se207  1  0.09320975  0.42516081  0.31430365  1
  Se  Se208  1  0.09197946  0.42083799  0.81490898  1
  Se  Se209  1  0.08134325  0.74943121  0.29793155  1
  Se  Se210  1  0.08721124  0.75227575  0.80019182  1
  Se  Se211  1  0.41414294  0.08554250  0.30163321  1
  Se  Se212  1  0.41964633  0.06811693  0.79720590  1
  Se  Se213  1  0.41684232  0.41512508  0.29865565  1
  Se  Se214  1  0.41574846  0.41193151  0.80525704  1
  Se  Se215  1  0.41358661  0.75419340  0.30381627  1
  Se  Se216  1  0.42077490  0.75068673  0.81094688  1
  Se  Se217  1  0.74473873  0.08185566  0.29736104  1
  Se  Se218  1  0.75310961  0.08834381  0.81589021  1
  Se  Se219  1  0.74953962  0.41439418  0.29862557  1
  Se  Se220  1  0.75194568  0.42090877  0.80027503  1
  Se  Se221  1  0.75270513  0.75582392  0.31259347  1
  Se  Se222  1  0.76240526  0.75841383  0.80808478  1
  Se  Se223  1  0.23857897  0.08938975  0.20544797  1
  Se  Se224  1  0.25851317  0.08001784  0.69170754  1
  Se  Se225  1  0.25031189  0.41631740  0.19926182  1
  Se  Se226  1  0.25490004  0.41708282  0.70259259  1
  Se  Se227  1  0.25221661  0.75068012  0.19467541  1
  Se  Se228  1  0.24915879  0.75879288  0.68556524  1
  Se  Se229  1  0.58222369  0.08207326  0.19263015  1
  Se  Se230  1  0.57404682  0.08829550  0.68818701  1
  Se  Se231  1  0.58624992  0.41337597  0.19551134  1
  Se  Se232  1  0.58901549  0.40895823  0.69958011  1
  Se  Se233  1  0.57325609  0.75865019  0.19274663  1
  Se  Se234  1  0.57746691  0.75176405  0.69372193  1
  Se  Se235  1  0.91398612  0.08809588  0.19175256  1
  Se  Se236  1  0.92014239  0.08308364  0.70599135  1
  Se  Se237  1  0.91409736  0.41821674  0.18559147  1
  Se  Se238  1  0.91267658  0.42096357  0.69213314  1
  Se  Se239  1  0.91717144  0.74549767  0.19839125  1
  Se  Se240  1  0.92451678  0.74899689  0.69199330  1
  Se  Se241  1  0.09148469  0.23878978  0.19828119  1
  Se  Se242  1  0.09481132  0.24379164  0.69159447  1
  Se  Se243  1  0.07948873  0.58372740  0.19392503  1
  Se  Se244  1  0.08819724  0.59011327  0.69992379  1
  Se  Se245  1  0.08494696  0.91197672  0.18837739  1
  Se  Se246  1  0.08594691  0.92228845  0.69404840  1
  Se  Se247  1  0.41610560  0.25312991  0.19565436  1
  Se  Se248  1  0.39764571  0.26556270  0.69033044  1
  Se  Se249  1  0.41801626  0.58510604  0.20062276  1
  Se  Se250  1  0.42837149  0.57365135  0.69206744  1
  Se  Se251  1  0.40954646  0.92437680  0.19285704  1
  Se  Se252  1  0.41296850  0.91455599  0.69292389  1
  Se  Se253  1  0.74568820  0.25283732  0.19395854  1
  Se  Se254  1  0.75156543  0.24620358  0.70018904  1
  Se  Se255  1  0.75089374  0.57966912  0.18775182  1
  Se  Se256  1  0.75597076  0.57413733  0.68863581  1
  Se  Se257  1  0.74682275  0.91966194  0.20218265  1
  Se  Se258  1  0.75853343  0.90913395  0.69125752  1
