# generated using pymatgen
data_In86Cu29Se144
_symmetry_space_group_name_H-M   'P 1'
_cell_length_a   17.57906336
_cell_length_b   17.57773878
_cell_length_c   23.44442507
_cell_angle_alpha   90.00963651
_cell_angle_beta   90.00084126
_cell_angle_gamma   89.97766155
_symmetry_Int_Tables_number   1
_chemical_formula_structural   In86Cu29Se144
_chemical_formula_sum   'In86 Cu29 Se144'
_cell_volume   7244.33100372
_cell_formula_units_Z   1
loop_
 _symmetry_equiv_pos_site_id
 _symmetry_equiv_pos_as_xyz
  1  'x, y, z'
loop_
 _atom_site_type_symbol
 _atom_site_label
 _atom_site_symmetry_multiplicity
 _atom_site_fract_x
 _atom_site_fract_y
 _atom_site_fract_z
 _atom_site_occupancy
  In  In0  1  0.01315484  0.16845631  0.12090545  1
  In  In1  1  -0.02463773  0.16605813  0.62369253  1
  In  In2  1  -0.02025701  0.49366869  0.12404454  1
  In  In3  1  0.01567699  0.50239947  0.63201087  1
  In  In4  1  0.00069050  0.84082836  0.11556073  1
  In  In5  1  0.00036613  0.83662067  0.62795013  1
  In  In6  1  0.33545396  0.16386226  0.12660628  1
  In  In7  1  0.35138869  0.17224828  0.62669395  1
  In  In8  1  0.34138401  0.49189411  0.13115142  1
  In  In9  1  0.33132535  0.48681176  0.62530978  1
  In  In10  1  0.32144802  0.84156491  0.14198871  1
  In  In11  1  0.33131630  0.83024339  0.60979565  1
  In  In12  1  0.65117153  0.16930945  0.12499913  1
  In  In13  1  0.65931899  0.15172992  0.62498892  1
  In  In14  1  0.67512077  0.51502928  0.12147722  1
  In  In15  1  0.66451210  0.51093050  0.62078515  1
  In  In16  1  0.67089625  0.82628288  0.13416457  1
  In  In17  1  0.68153823  0.84867680  0.61363287  1
  In  In18  1  0.17001777  -0.01874244  0.37110113  1
  In  In19  1  0.15855332  0.01185303  0.88210583  1
  In  In20  1  0.17036618  0.33047770  0.36451990  1
  In  In21  1  0.15488735  0.31468130  0.87828497  1
  In  In22  1  0.17620521  0.67167101  0.36800703  1
  In  In23  1  0.16928263  0.68118600  0.88062534  1
  In  In24  1  0.50196956  -0.00166681  0.37419625  1
  In  In25  1  0.51335230  0.00507824  0.86895951  1
  In  In26  1  0.49503996  0.34088653  0.38008174  1
  In  In27  1  0.49445680  0.33790338  0.88187199  1
  In  In28  1  0.50111223  0.66590982  0.37280989  1
  In  In29  1  0.49052803  0.66266827  0.87867708  1
  In  In30  1  0.82558266  0.00449705  0.37917487  1
  In  In31  1  0.82217210  -0.00651586  0.86800401  1
  In  In32  1  0.83162652  0.32718337  0.37469989  1
  In  In33  1  0.84700561  0.33914819  0.88152153  1
  In  In34  1  0.84012467  0.68203143  0.37471050  1
  In  In35  1  0.84594197  0.65531049  0.88161514  1
  In  In36  1  -0.01130669  0.16759109  0.37905435  1
  In  In37  1  0.01068850  0.17324895  0.87398106  1
  In  In38  1  0.00787847  0.49861282  0.37052910  1
  In  In39  1  -0.01147340  0.49033109  0.87812682  1
  In  In40  1  -0.00160742  0.83004351  0.38504153  1
  In  In41  1  -0.00066597  0.83346878  0.87617294  1
  In  In42  1  0.34612769  0.17534229  0.36891781  1
  In  In43  1  0.32490224  0.17264346  0.88060885  1
  In  In44  1  0.34117653  0.50767016  0.36328128  1
  In  In45  1  0.34502044  0.50181227  0.88238061  1
  In  In46  1  0.33301362  0.83662804  0.37019551  1
  In  In47  1  0.33088308  0.82399389  0.87881110  1
  In  In48  1  0.67414856  0.15521817  0.37980430  1
  In  In49  1  0.66362934  0.15445983  0.87336615  1
  In  In50  1  0.65271121  0.49203732  0.37278886  1
  In  In51  1  0.66828970  0.49862536  0.88451210  1
  In  In52  1  0.66655833  0.83355423  0.37337076  1
  In  In53  1  0.66834417  0.85030041  0.86957053  1
  In  In54  1  0.17232052  0.00449345  0.12092260  1
  In  In55  1  0.16785901  -0.01501683  0.62409819  1
  In  In56  1  0.17303508  0.32518082  0.13086572  1
  In  In57  1  0.17550070  0.34471123  0.62960445  1
  In  In58  1  0.16554063  0.68347027  0.12902329  1
  In  In59  1  0.15546895  0.66698903  0.62735816  1
  In  In60  1  0.49343356  0.00497258  0.13174893  1
  In  In61  1  0.51137911  0.01229860  0.61306341  1
  In  In62  1  0.48983123  0.32444500  0.11829875  1
  In  In63  1  0.49139242  0.32060539  0.61621554  1
  In  In64  1  0.50547027  0.66314225  0.13244835  1
  In  In65  1  0.49670509  0.66766110  0.61103334  1
  In  In66  1  0.83592641  -0.01310410  0.12415178  1
  In  In67  1  0.83666798  0.00200522  0.62941823  1
  In  In68  1  0.83371301  0.35166541  0.12649423  1
  In  In69  1  0.83823738  0.30920308  0.62050671  1
  In  In70  1  0.82069595  0.66184909  0.12266104  1
  In  In71  1  0.83453920  0.68029273  0.62514716  1
  In  In72  1  0.16494442  0.16319487  0.49580746  1
  In  In73  1  -0.00206694  0.66256564  0.24827130  1
  In  In74  1  0.82855408  0.49919378  0.49803600  1
  In  In75  1  0.16805706  0.50211839  0.50455590  1
  In  In76  1  0.66259571  0.33438807  0.24807240  1
  In  In77  1  0.66235604  0.32756013  0.74477002  1
  In  In78  1  0.00193613  0.32945455  0.75091496  1
  In  In79  1  0.49901340  0.83363806  -0.00016652  1
  In  In80  1  0.33371853  0.00116673  0.74806659  1
  In  In81  1  0.66695365  0.67431922  0.74772229  1
  In  In82  1  0.16381269  0.49686841  0.00480702  1
  In  In83  1  0.00408433  0.00351123  0.24716434  1
  In  In84  1  0.83252631  0.16815243  -0.00387105  1
  In  In85  1  0.32809106  0.66405531  0.75482210  1
  Cu  Cu86  1  0.66119298  0.66830242  0.49579467  1
  Cu  Cu87  1  0.33135424  0.32870785  0.00520902  1
  Cu  Cu88  1  0.50084624  0.16222727  0.25042610  1
  Cu  Cu89  1  0.83170271  0.83523694  0.25030702  1
  Cu  Cu90  1  0.16589754  0.16424507  0.75199238  1
  Cu  Cu91  1  0.17256737  0.16387967  0.24710172  1
  Cu  Cu92  1  0.15985620  0.83457249  0.75303948  1
  Cu  Cu93  1  0.83260604  0.16788133  0.25496710  1
  Cu  Cu94  1  0.00003308  0.67311650  0.50508716  1
  Cu  Cu95  1  0.66843226  0.67197081  0.00512527  1
  Cu  Cu96  1  0.33619869  0.66782764  0.48819961  1
  Cu  Cu97  1  0.33677188  -0.00144323  0.49585434  1
  Cu  Cu98  1  0.66719537  0.32496467  0.49603861  1
  Cu  Cu99  1  0.84014314  0.49587037  0.75488351  1
  Cu  Cu100  1  0.66613641  -0.00132586  -0.00314594  1
  Cu  Cu101  1  0.49581336  0.49613982  0.75237458  1
  Cu  Cu102  1  0.33580649  0.33559996  0.49627832  1
  Cu  Cu103  1  0.16701294  0.49413797  0.24605768  1
  Cu  Cu104  1  0.66083572  0.33745117  0.00434092  1
  Cu  Cu105  1  0.66753050  -0.00318871  0.49814471  1
  Cu  Cu106  1  0.00029694  -0.00356815  -0.00282130  1
  Cu  Cu107  1  0.50137957  0.83190119  0.25504616  1
  Cu  Cu108  1  0.83981038  0.83429277  0.74775994  1
  Cu  Cu109  1  0.49953842  0.49930068  0.24898803  1
  Cu  Cu110  1  -0.00184757  0.67091041  0.00449654  1
  Cu  Cu111  1  0.33573909  0.00216507  0.00599032  1
  Cu  Cu112  1  -0.00430105  -0.00473705  0.50212982  1
  Cu  Cu113  1  0.50503137  0.84197004  0.74011711  1
  Cu  Cu114  1  0.33439726  0.66890334  0.00580564  1
  Se  Se115  1  0.08353278  0.07926382  0.05101898  1
  Se  Se116  1  0.07788914  0.07690367  0.56084583  1
  Se  Se117  1  0.07696658  0.40707401  0.06439812  1
  Se  Se118  1  0.07527977  0.40646797  0.55692028  1
  Se  Se119  1  0.08642211  0.75402221  0.05197375  1
  Se  Se120  1  0.08588527  0.75547723  0.55670096  1
  Se  Se121  1  0.42191549  0.08503369  0.05567645  1
  Se  Se122  1  0.41411175  0.08674353  0.54966738  1
  Se  Se123  1  0.41479505  0.41846811  0.05204576  1
  Se  Se124  1  0.41773921  0.41872302  0.55192631  1
  Se  Se125  1  0.41266060  0.75119106  0.06660579  1
  Se  Se126  1  0.41888200  0.75280881  0.54224055  1
  Se  Se127  1  0.74466296  0.07900219  0.05979600  1
  Se  Se128  1  0.74966129  0.07747912  0.55676335  1
  Se  Se129  1  0.74726580  0.42071692  0.05358049  1
  Se  Se130  1  0.74363537  0.40524885  0.56142909  1
  Se  Se131  1  0.75065674  0.75835281  0.05544218  1
  Se  Se132  1  0.74838729  0.74576269  0.55080155  1
  Se  Se133  1  0.24873519  0.24411469  0.05713550  1
  Se  Se134  1  0.25414497  0.25641140  0.55642626  1
  Se  Se135  1  0.25339174  0.58774742  0.06489424  1
  Se  Se136  1  0.26088885  0.59521075  0.55985010  1
  Se  Se137  1  0.25631114  0.91394566  0.05772219  1
  Se  Se138  1  0.24756995  0.91763592  0.54575656  1
  Se  Se139  1  0.57825104  0.24689476  0.04923069  1
  Se  Se140  1  0.58683865  0.24408788  0.55498438  1
  Se  Se141  1  0.58137264  0.58873497  0.05439519  1
  Se  Se142  1  0.58092172  0.58009606  0.54684782  1
  Se  Se143  1  0.58803335  0.92094527  0.06180026  1
  Se  Se144  1  0.58007857  0.91312391  0.54899081  1
  Se  Se145  1  0.91645490  0.25511936  0.06137130  1
  Se  Se146  1  0.92383812  0.25184676  0.54348266  1
  Se  Se147  1  0.91277689  0.58705807  0.05486744  1
  Se  Se148  1  0.92380399  0.58453261  0.56160038  1
  Se  Se149  1  0.91160486  0.91514306  0.04638532  1
  Se  Se150  1  0.91328205  0.91413001  0.55848418  1
  Se  Se151  1  0.08027603  0.26046190  0.43949930  1
  Se  Se152  1  0.07291515  0.25036603  0.95434689  1
  Se  Se153  1  0.07904467  0.59441577  0.44216657  1
  Se  Se154  1  0.07748166  0.58922523  0.94289049  1
  Se  Se155  1  0.08324785  0.91804197  0.44757594  1
  Se  Se156  1  0.08685427  0.91344431  0.94533543  1
  Se  Se157  1  0.42020876  0.24819563  0.44781085  1
  Se  Se158  1  0.41518055  0.24851504  0.94842435  1
  Se  Se159  1  0.41854896  0.57813419  0.44123393  1
  Se  Se160  1  0.41956027  0.58504735  0.95553151  1
  Se  Se161  1  0.41791671  0.91391799  0.44185365  1
  Se  Se162  1  0.41209488  0.92668839  0.93776367  1
  Se  Se163  1  0.75466652  0.24458979  0.44580236  1
  Se  Se164  1  0.73894271  0.26017067  0.93852868  1
  Se  Se165  1  0.74309372  0.58952012  0.43520069  1
  Se  Se166  1  0.74922034  0.58693076  0.94845227  1
  Se  Se167  1  0.75112581  0.91237183  0.44540813  1
  Se  Se168  1  0.75123134  0.91507741  0.94696687  1
  Se  Se169  1  0.25670683  0.07837260  0.43398448  1
  Se  Se170  1  0.25062575  0.08348589  0.95013122  1
  Se  Se171  1  0.25448807  0.41610546  0.43742901  1
  Se  Se172  1  0.25227721  0.40779042  0.94195927  1
  Se  Se173  1  0.24892935  0.75295184  0.44166281  1
  Se  Se174  1  0.25117890  0.75418135  0.95526907  1
  Se  Se175  1  0.58240182  0.08117378  0.44647427  1
  Se  Se176  1  0.58027568  0.08333436  0.94867176  1
  Se  Se177  1  0.58365540  0.41491944  0.45081039  1
  Se  Se178  1  0.57808461  0.42167903  0.94964330  1
  Se  Se179  1  0.58038046  0.75228972  0.44179489  1
  Se  Se180  1  0.59188984  0.74667975  0.93666014  1
  Se  Se181  1  0.91451518  0.08054706  0.44824833  1
  Se  Se182  1  0.92062744  0.07657554  0.93612572  1
  Se  Se183  1  0.92417491  0.41382654  0.44097671  1
  Se  Se184  1  0.91398913  0.42144574  0.95603312  1
  Se  Se185  1  0.91144902  0.75386162  0.45481148  1
  Se  Se186  1  0.91574343  0.75208270  0.94694029  1
  Se  Se187  1  0.25674102  0.24933784  0.29923699  1
  Se  Se188  1  0.24559732  0.24946827  0.80544624  1
  Se  Se189  1  0.24631189  0.58147709  0.29862989  1
  Se  Se190  1  0.24309729  0.57657570  0.81844603  1
  Se  Se191  1  0.25050659  0.91278059  0.29670490  1
  Se  Se192  1  0.24583837  0.91214703  0.81190808  1
  Se  Se193  1  0.57966606  0.24376133  0.31269797  1
  Se  Se194  1  0.57456971  0.24709521  0.81155776  1
  Se  Se195  1  0.58352167  0.58143002  0.30222445  1
  Se  Se196  1  0.57889352  0.57882590  0.80830875  1
  Se  Se197  1  0.58674249  0.91843508  0.30386746  1
  Se  Se198  1  0.58728025  0.92305923  0.79484780  1
  Se  Se199  1  0.91801104  0.25078656  0.30395917  1
  Se  Se200  1  0.90585327  0.24210615  0.80800627  1
  Se  Se201  1  0.90705555  0.57634552  0.30980471  1
  Se  Se202  1  0.92315503  0.58110594  0.80469340  1
  Se  Se203  1  0.91548483  0.91339539  0.30979061  1
  Se  Se204  1  0.91859436  0.91686142  0.80582776  1
  Se  Se205  1  0.09087909  0.09106394  0.31280712  1
  Se  Se206  1  0.08126968  0.08219490  0.80337101  1
  Se  Se207  1  0.08241838  0.41367948  0.29994982  1
  Se  Se208  1  0.08944531  0.41986215  0.81188184  1
  Se  Se209  1  0.08262896  0.75905764  0.30643001  1
  Se  Se210  1  0.08218556  0.74783197  0.80684330  1
  Se  Se211  1  0.41691123  0.07903367  0.30360694  1
  Se  Se212  1  0.41742451  0.09183772  0.81013170  1
  Se  Se213  1  0.41862364  0.41114477  0.30102094  1
  Se  Se214  1  0.41393019  0.41678487  0.80785135  1
  Se  Se215  1  0.41581113  0.74697176  0.30474694  1
  Se  Se216  1  0.42883874  0.76127953  0.80350702  1
  Se  Se217  1  0.74952352  0.08017533  0.30207962  1
  Se  Se218  1  0.74834110  0.08504643  0.80204508  1
  Se  Se219  1  0.75491443  0.42213343  0.30736689  1
  Se  Se220  1  0.75288634  0.41823969  0.80916411  1
  Se  Se221  1  0.75070232  0.74984235  0.30330993  1
  Se  Se222  1  0.76033848  0.75442743  0.81116729  1
  Se  Se223  1  0.25390487  0.07800285  0.19560413  1
  Se  Se224  1  0.24454902  0.09128952  0.68547930  1
  Se  Se225  1  0.25502147  0.41041134  0.19763617  1
  Se  Se226  1  0.24665655  0.42713506  0.70167510  1
  Se  Se227  1  0.25280494  0.74157829  0.20468581  1
  Se  Se228  1  0.24785699  0.76143933  0.69276178  1
  Se  Se229  1  0.58729479  0.08065969  0.19879093  1
  Se  Se230  1  0.56704426  0.08831762  0.69669973  1
  Se  Se231  1  0.57629426  0.42130007  0.18356314  1
  Se  Se232  1  0.57703751  0.42516032  0.68720977  1
  Se  Se233  1  0.58517056  0.74747625  0.20179666  1
  Se  Se234  1  0.58025924  0.75703400  0.68096029  1
  Se  Se235  1  0.91036594  0.09187629  0.18791558  1
  Se  Se236  1  0.92663399  0.07478957  0.69929986  1
  Se  Se237  1  0.91618173  0.41502486  0.20327170  1
  Se  Se238  1  0.90931478  0.41641770  0.68667935  1
  Se  Se239  1  0.91362297  0.75886606  0.18815499  1
  Se  Se240  1  0.92206991  0.74723026  0.69771854  1
  Se  Se241  1  0.08302346  0.24619664  0.19876218  1
  Se  Se242  1  0.08904159  0.24157324  0.68510603  1
  Se  Se243  1  0.08703813  0.57362598  0.18457247  1
  Se  Se244  1  0.09184873  0.58267805  0.70234072  1
  Se  Se245  1  0.09062669  0.90977413  0.19007798  1
  Se  Se246  1  0.08139569  0.92061048  0.69906042  1
  Se  Se247  1  0.41928875  0.24726056  0.19629813  1
  Se  Se248  1  0.41022329  0.26562782  0.69789349  1
  Se  Se249  1  0.41450320  0.58474007  0.19836063  1
  Se  Se250  1  0.42392874  0.58340795  0.69103982  1
  Se  Se251  1  0.41976564  0.91752674  0.20162802  1
  Se  Se252  1  0.41708673  0.91329978  0.68145255  1
  Se  Se253  1  0.75517685  0.24436034  0.18838236  1
  Se  Se254  1  0.75637087  0.23369008  0.69411580  1
  Se  Se255  1  0.74887600  0.58625165  0.19928547  1
  Se  Se256  1  0.76044789  0.57694433  0.69415136  1
  Se  Se257  1  0.74934589  0.92090794  0.19831860  1
  Se  Se258  1  0.75093577  0.91519064  0.69667667  1
