# generated using pymatgen
data_In86Cu29Se144
_symmetry_space_group_name_H-M   'P 1'
_cell_length_a   17.57662812
_cell_length_b   17.58355810
_cell_length_c   23.43764969
_cell_angle_alpha   89.99115161
_cell_angle_beta   89.99882717
_cell_angle_gamma   90.01048117
_symmetry_Int_Tables_number   1
_chemical_formula_structural   In86Cu29Se144
_chemical_formula_sum   'In86 Cu29 Se144'
_cell_volume   7243.63187806
_cell_formula_units_Z   1
loop_
 _symmetry_equiv_pos_site_id
 _symmetry_equiv_pos_as_xyz
  1  'x, y, z'
loop_
 _atom_site_type_symbol
 _atom_site_label
 _atom_site_symmetry_multiplicity
 _atom_site_fract_x
 _atom_site_fract_y
 _atom_site_fract_z
 _atom_site_occupancy
  In  In0  1  -0.00230943  0.16384173  0.11703069  1
  In  In1  1  0.01332760  0.17578130  0.62578469  1
  In  In2  1  0.02170838  0.49834476  0.12133438  1
  In  In3  1  -0.00085930  0.48744142  0.62641368  1
  In  In4  1  -0.00367502  0.84424781  0.13738672  1
  In  In5  1  0.00077435  0.81938903  0.61835075  1
  In  In6  1  0.34250412  0.18243320  0.11446056  1
  In  In7  1  0.34528060  0.17489565  0.62336224  1
  In  In8  1  0.33732502  0.50024325  0.12035804  1
  In  In9  1  0.34015356  0.49355018  0.62526811  1
  In  In10  1  0.33185917  0.81038927  0.13019405  1
  In  In11  1  0.32423174  0.83588221  0.62006362  1
  In  In12  1  0.66549287  0.16140643  0.12084256  1
  In  In13  1  0.66510002  0.18102547  0.62390367  1
  In  In14  1  0.65979228  0.51316406  0.12602469  1
  In  In15  1  0.65866569  0.50133225  0.63080050  1
  In  In16  1  0.66709575  0.83247471  0.12352672  1
  In  In17  1  0.65413184  0.82364619  0.62372107  1
  In  In18  1  0.14882121  -0.00166604  0.36999440  1
  In  In19  1  0.17945684  0.00892585  0.87367134  1
  In  In20  1  0.19024415  0.33665549  0.37334140  1
  In  In21  1  0.16676387  0.33992955  0.87460399  1
  In  In22  1  0.16810342  0.66364472  0.37540862  1
  In  In23  1  0.16827028  0.64902513  0.88047961  1
  In  In24  1  0.51252488  0.00647481  0.37096885  1
  In  In25  1  0.48997415  0.00546775  0.88378217  1
  In  In26  1  0.47356153  0.36021092  0.40233010  1
  In  In27  1  0.49419844  0.33216350  0.87753615  1
  In  In28  1  0.49147427  0.66151079  0.36525406  1
  In  In29  1  0.49362423  0.66243918  0.87555630  1
  In  In30  1  0.83233161  0.00103109  0.36763564  1
  In  In31  1  0.83388457  -0.00090634  0.88320506  1
  In  In32  1  0.82634926  0.32067856  0.37558545  1
  In  In33  1  0.82246848  0.32900814  0.87127741  1
  In  In34  1  0.84227582  0.67560995  0.36231447  1
  In  In35  1  0.82854416  0.67767861  0.88440207  1
  In  In36  1  0.00360171  0.15915137  0.36873347  1
  In  In37  1  -0.01362267  0.18771817  0.89428227  1
  In  In38  1  0.00315906  0.51284846  0.37235630  1
  In  In39  1  0.01815527  0.49597174  0.88201226  1
  In  In40  1  0.01922599  0.84514290  0.35644870  1
  In  In41  1  -0.00761129  0.82323209  0.88303690  1
  In  In42  1  0.33882962  0.18622109  0.37102655  1
  In  In43  1  0.30625574  0.20078767  0.90781914  1
  In  In44  1  0.33156547  0.50189161  0.37713058  1
  In  In45  1  0.32764749  0.49616444  0.87798063  1
  In  In46  1  0.33392468  0.81197771  0.36968756  1
  In  In47  1  0.34511825  0.83679218  0.87623917  1
  In  In48  1  0.65662713  0.16120721  0.37560202  1
  In  In49  1  0.65251770  0.17891799  0.88408262  1
  In  In50  1  0.64766468  0.50157619  0.37744000  1
  In  In51  1  0.64939922  0.48627949  0.86850606  1
  In  In52  1  0.67105541  0.83945848  0.36436388  1
  In  In53  1  0.66655362  0.82713784  0.88201635  1
  In  In54  1  0.15297257  -0.00460074  0.13212184  1
  In  In55  1  0.17643153  0.00178278  0.61653838  1
  In  In56  1  0.18863576  0.35626038  0.09655983  1
  In  In57  1  0.16476632  0.33875669  0.62913575  1
  In  In58  1  0.18095199  0.66375034  0.14156181  1
  In  In59  1  0.18217643  0.66790042  0.61856536  1
  In  In60  1  0.51852813  0.00973172  0.12304003  1
  In  In61  1  0.49698033  0.00413940  0.61774030  1
  In  In62  1  0.48562846  0.33221612  0.10913738  1
  In  In63  1  0.49893921  0.33789672  0.62891372  1
  In  In64  1  0.49711462  0.66489081  0.12323828  1
  In  In65  1  0.50702516  0.65168206  0.63133971  1
  In  In66  1  0.83440465  -0.00094857  0.12559152  1
  In  In67  1  0.83194200  0.00000046  0.62536942  1
  In  In68  1  0.84576661  0.32101658  0.11393014  1
  In  In69  1  0.83205723  0.33943014  0.63784598  1
  In  In70  1  0.82043660  0.67755434  0.13131786  1
  In  In71  1  0.83175207  0.65513032  0.62734900  1
  In  In72  1  0.83043736  0.49904461  0.50195561  1
  In  In73  1  0.33810633  0.00698515  0.74401444  1
  In  In74  1  0.66448395  0.00150875  0.75456981  1
  In  In75  1  0.49631626  0.83218987  0.49554866  1
  In  In76  1  0.00154652  0.65771335  0.75736626  1
  In  In77  1  0.00432215  0.00646642  0.74585880  1
  In  In78  1  0.17095861  0.16879820  0.49893600  1
  In  In79  1  0.82604293  0.16632013  0.49513437  1
  In  In80  1  0.33148760  -0.00614879  0.24573257  1
  In  In81  1  0.84219900  0.83881295  0.48829862  1
  In  In82  1  0.65966041  0.33506329  0.25350494  1
  In  In83  1  0.16339956  0.83417806  0.01006057  1
  In  In84  1  0.82994853  0.49933762  0.00069377  1
  In  In85  1  0.01066104  0.33574621  0.23330950  1
  Cu  Cu86  1  0.16965593  0.17025566  0.24647512  1
  Cu  Cu87  1  0.34421012  -0.00210677  0.00858832  1
  Cu  Cu88  1  0.16653703  0.18018115  0.75764274  1
  Cu  Cu89  1  0.50603931  0.83189969  0.24532691  1
  Cu  Cu90  1  0.83234405  0.17660710  0.75769817  1
  Cu  Cu91  1  0.32535614  -0.00488539  0.49200615  1
  Cu  Cu92  1  0.01929531  0.66436364  0.49540841  1
  Cu  Cu93  1  0.33249340  0.66355595  0.00182277  1
  Cu  Cu94  1  0.66432870  0.33108313  -0.00417124  1
  Cu  Cu95  1  0.50094762  0.82036354  0.75203692  1
  Cu  Cu96  1  0.49211682  0.50001787  0.25032708  1
  Cu  Cu97  1  0.17553513  0.49888133  0.24879759  1
  Cu  Cu98  1  -0.00375264  0.66818237  0.00729944  1
  Cu  Cu99  1  0.82908716  0.83493013  0.24618642  1
  Cu  Cu100  1  0.83686819  0.16289348  0.24503994  1
  Cu  Cu101  1  0.49649006  0.17519921  0.75543789  1
  Cu  Cu102  1  0.67508570  -0.00499968  0.00269565  1
  Cu  Cu103  1  0.65377759  0.66495467  0.00162769  1
  Cu  Cu104  1  0.50096203  0.17565143  0.24265064  1
  Cu  Cu105  1  0.82736658  0.82875360  0.75864820  1
  Cu  Cu106  1  0.66981765  0.66975001  0.49770284  1
  Cu  Cu107  1  0.16846357  0.82571096  0.74367225  1
  Cu  Cu108  1  0.33584867  0.65632393  0.49801927  1
  Cu  Cu109  1  0.00160071  0.33319761  0.50061500  1
  Cu  Cu110  1  0.49459252  0.49877036  0.75303361  1
  Cu  Cu111  1  0.00006067  -0.00557423  0.00585180  1
  Cu  Cu112  1  0.82967960  0.50219897  0.24669039  1
  Cu  Cu113  1  0.17498044  0.49922562  0.75110537  1
  Cu  Cu114  1  0.82966281  0.50159518  0.75444680  1
  Se  Se115  1  0.08744579  0.07675751  0.05451840  1
  Se  Se116  1  0.07392451  0.07742791  0.55405318  1
  Se  Se117  1  0.06105427  0.39616183  0.05024272  1
  Se  Se118  1  0.08401562  0.41565022  0.55411728  1
  Se  Se119  1  0.07795458  0.74317636  0.07058742  1
  Se  Se120  1  0.09443206  0.75038172  0.55223631  1
  Se  Se121  1  0.42644639  0.08632787  0.05713452  1
  Se  Se122  1  0.40256539  0.07526682  0.55266738  1
  Se  Se123  1  0.40304062  0.41537688  0.04367738  1
  Se  Se124  1  0.43771405  0.43173230  0.55612442  1
  Se  Se125  1  0.41607980  0.74946787  0.05216816  1
  Se  Se126  1  0.41430823  0.74018798  0.55954473  1
  Se  Se127  1  0.75549051  0.08359618  0.05448176  1
  Se  Se128  1  0.73952479  0.07660419  0.55991718  1
  Se  Se129  1  0.73984006  0.40910318  0.06255438  1
  Se  Se130  1  0.74382548  0.40871550  0.56226721  1
  Se  Se131  1  0.74405680  0.74550443  0.05145452  1
  Se  Se132  1  0.75367830  0.74736114  0.55594093  1
  Se  Se133  1  0.25094814  0.24496550  0.04150762  1
  Se  Se134  1  0.25735176  0.26124167  0.55707283  1
  Se  Se135  1  0.24561789  0.58900419  0.05935643  1
  Se  Se136  1  0.25416735  0.57370215  0.55378586  1
  Se  Se137  1  0.25975785  0.92062092  0.06800748  1
  Se  Se138  1  0.24456135  0.91145694  0.54549542  1
  Se  Se139  1  0.58474760  0.24878553  0.05444308  1
  Se  Se140  1  0.55869477  0.23328959  0.56188075  1
  Se  Se141  1  0.57284219  0.57691131  0.05115486  1
  Se  Se142  1  0.59157084  0.58666576  0.55430907  1
  Se  Se143  1  0.58527605  0.91546712  0.05344455  1
  Se  Se144  1  0.59188968  0.92170687  0.55343814  1
  Se  Se145  1  0.92503667  0.24672761  0.04236605  1
  Se  Se146  1  0.91757965  0.25645485  0.55934539  1
  Se  Se147  1  0.91558400  0.58616171  0.06663378  1
  Se  Se148  1  0.93045957  0.59123035  0.55561742  1
  Se  Se149  1  0.91711876  0.91106069  0.05812015  1
  Se  Se150  1  0.92590461  0.92478718  0.55869484  1
  Se  Se151  1  0.07893759  0.25690165  0.43531530  1
  Se  Se152  1  0.10963829  0.23257490  0.94077125  1
  Se  Se153  1  0.09469295  0.57083573  0.44674199  1
  Se  Se154  1  0.08167683  0.58543090  0.95645645  1
  Se  Se155  1  0.07745797  0.91511997  0.44251674  1
  Se  Se156  1  0.08122231  0.92240092  0.93856894  1
  Se  Se157  1  0.42087288  0.23971949  0.45152825  1
  Se  Se158  1  0.43994637  0.22768896  0.94533073  1
  Se  Se159  1  0.42509430  0.58185696  0.44348752  1
  Se  Se160  1  0.41302581  0.58033701  0.94614685  1
  Se  Se161  1  0.40904747  0.92011950  0.43117044  1
  Se  Se162  1  0.42003810  0.91139432  0.95252956  1
  Se  Se163  1  0.72966517  0.26131469  0.44720919  1
  Se  Se164  1  0.75288723  0.24765207  0.94840097  1
  Se  Se165  1  0.75199416  0.59322556  0.43559020  1
  Se  Se166  1  0.73481775  0.58382061  0.94030164  1
  Se  Se167  1  0.74035806  0.92803256  0.44130710  1
  Se  Se168  1  0.75432014  0.90925649  0.94733817  1
  Se  Se169  1  0.25307986  0.08067749  0.42994726  1
  Se  Se170  1  0.25685501  0.07342089  0.95235089  1
  Se  Se171  1  0.25956766  0.41333342  0.44880764  1
  Se  Se172  1  0.22893333  0.43464006  0.94628509  1
  Se  Se173  1  0.25372418  0.74333738  0.44656329  1
  Se  Se174  1  0.25155513  0.74880284  0.94306793  1
  Se  Se175  1  0.57759733  0.08417973  0.44903169  1
  Se  Se176  1  0.59012284  0.07492375  0.94672917  1
  Se  Se177  1  0.59049955  0.41630735  0.45383576  1
  Se  Se178  1  0.57749417  0.41587853  0.94857467  1
  Se  Se179  1  0.59052733  0.74701347  0.43475013  1
  Se  Se180  1  0.57378134  0.74919681  0.94543289  1
  Se  Se181  1  0.92282931  0.07655032  0.44153839  1
  Se  Se182  1  0.91901506  0.07902105  0.95046065  1
  Se  Se183  1  0.91954533  0.40900698  0.43749117  1
  Se  Se184  1  0.91725530  0.41217785  0.93862175  1
  Se  Se185  1  0.93228906  0.74167589  0.43805177  1
  Se  Se186  1  0.91133872  0.75234206  0.95792939  1
  Se  Se187  1  0.25493429  0.25502349  0.29531646  1
  Se  Se188  1  0.25771073  0.25408815  0.81080873  1
  Se  Se189  1  0.25433858  0.58417410  0.30460347  1
  Se  Se190  1  0.25318419  0.58615080  0.80468770  1
  Se  Se191  1  0.24619991  0.90999966  0.31171791  1
  Se  Se192  1  0.24642821  0.91129709  0.80219914  1
  Se  Se193  1  0.56779958  0.25252990  0.31454362  1
  Se  Se194  1  0.58478506  0.25657131  0.80547667  1
  Se  Se195  1  0.58204884  0.58178254  0.29923623  1
  Se  Se196  1  0.57930662  0.58429445  0.80439404  1
  Se  Se197  1  0.58354749  0.92049464  0.29837568  1
  Se  Se198  1  0.57140223  0.91123520  0.81124787  1
  Se  Se199  1  0.91680564  0.24972579  0.30108200  1
  Se  Se200  1  0.92226585  0.25470853  0.80812495  1
  Se  Se201  1  0.91857163  0.58136343  0.29810271  1
  Se  Se202  1  0.90847081  0.57558726  0.82060649  1
  Se  Se203  1  0.91386143  0.91783464  0.29989360  1
  Se  Se204  1  0.91547018  0.91202566  0.80770215  1
  Se  Se205  1  0.08343957  0.08571742  0.29415230  1
  Se  Se206  1  0.08611926  0.09353457  0.81234541  1
  Se  Se207  1  0.09041627  0.41844607  0.30760407  1
  Se  Se208  1  0.08436675  0.42000521  0.80165263  1
  Se  Se209  1  0.06704446  0.72420321  0.30803209  1
  Se  Se210  1  0.09158563  0.75547669  0.81232730  1
  Se  Se211  1  0.42030305  0.09063323  0.30258776  1
  Se  Se212  1  0.41462600  0.09389513  0.81282674  1
  Se  Se213  1  0.41674635  0.41541714  0.30926862  1
  Se  Se214  1  0.41275122  0.41573555  0.80836441  1
  Se  Se215  1  0.41822998  0.74761206  0.29328322  1
  Se  Se216  1  0.40991964  0.74591069  0.80465273  1
  Se  Se217  1  0.75036121  0.09253578  0.30585418  1
  Se  Se218  1  0.75446332  0.09136932  0.81412259  1
  Se  Se219  1  0.75581432  0.42469844  0.31182748  1
  Se  Se220  1  0.74472006  0.41446358  0.80251395  1
  Se  Se221  1  0.74632103  0.74867820  0.29824053  1
  Se  Se222  1  0.74405981  0.74479651  0.80833398  1
  Se  Se223  1  0.25159188  0.09164411  0.18452026  1
  Se  Se224  1  0.23843737  0.09843938  0.69091527  1
  Se  Se225  1  0.24899589  0.41567766  0.18727240  1
  Se  Se226  1  0.25482729  0.41403765  0.69643176  1
  Se  Se227  1  0.24251491  0.76287984  0.20826997  1
  Se  Se228  1  0.25750261  0.74717607  0.69387840  1
  Se  Se229  1  0.59004362  0.08949095  0.20015901  1
  Se  Se230  1  0.57137032  0.08821244  0.69505213  1
  Se  Se231  1  0.57185656  0.42027039  0.18831482  1
  Se  Se232  1  0.58272798  0.41641428  0.70170106  1
  Se  Se233  1  0.58508680  0.74559202  0.19088998  1
  Se  Se234  1  0.58757471  0.74135876  0.69880161  1
  Se  Se235  1  0.92241530  0.08312035  0.19191219  1
  Se  Se236  1  0.90716652  0.09857522  0.69137181  1
  Se  Se237  1  0.90729192  0.42436138  0.18416749  1
  Se  Se238  1  0.91903760  0.42012944  0.70423004  1
  Se  Se239  1  0.91476726  0.74886903  0.19782108  1
  Se  Se240  1  0.91130947  0.75258291  0.69687165  1
  Se  Se241  1  0.10067987  0.24716092  0.17618846  1
  Se  Se242  1  0.08108539  0.25797980  0.70060234  1
  Se  Se243  1  0.08495322  0.57931112  0.19976652  1
  Se  Se244  1  0.09115549  0.57870126  0.69005902  1
  Se  Se245  1  0.09098438  0.90927320  0.20652318  1
  Se  Se246  1  0.09054583  0.90944654  0.68642583  1
  Se  Se247  1  0.41700331  0.25893294  0.19171636  1
  Se  Se248  1  0.41288847  0.25595715  0.69983951  1
  Se  Se249  1  0.41250820  0.58424926  0.19360400  1
  Se  Se250  1  0.41255391  0.58264110  0.69831546  1
  Se  Se251  1  0.42669029  0.91230325  0.18395786  1
  Se  Se252  1  0.42751766  0.90610216  0.68954219  1
  Se  Se253  1  0.75687287  0.25099134  0.19127647  1
  Se  Se254  1  0.74608442  0.25167239  0.69992478  1
  Se  Se255  1  0.74288455  0.58644741  0.19838937  1
  Se  Se256  1  0.74809220  0.58303708  0.69845928  1
  Se  Se257  1  0.74620304  0.91957936  0.19320825  1
  Se  Se258  1  0.75308152  0.90672488  0.69306783  1
