# generated using pymatgen
data_In86Cu29Se144
_symmetry_space_group_name_H-M   'P 1'
_cell_length_a   17.57718885
_cell_length_b   17.57956709
_cell_length_c   23.43482843
_cell_angle_alpha   89.96965674
_cell_angle_beta   89.98132043
_cell_angle_gamma   89.98169283
_symmetry_Int_Tables_number   1
_chemical_formula_structural   In86Cu29Se144
_chemical_formula_sum   'In86 Cu29 Se144'
_cell_volume   7241.34546812
_cell_formula_units_Z   1
loop_
 _symmetry_equiv_pos_site_id
 _symmetry_equiv_pos_as_xyz
  1  'x, y, z'
loop_
 _atom_site_type_symbol
 _atom_site_label
 _atom_site_symmetry_multiplicity
 _atom_site_fract_x
 _atom_site_fract_y
 _atom_site_fract_z
 _atom_site_occupancy
  In  In0  1  -0.00891816  0.16196118  0.11543824  1
  In  In1  1  -0.01520132  0.17493974  0.64526350  1
  In  In2  1  -0.01687016  0.50789523  0.11855612  1
  In  In3  1  0.00574179  0.49442332  0.61999302  1
  In  In4  1  0.01323007  0.83745390  0.12178923  1
  In  In5  1  0.02669713  0.81406525  0.65108731  1
  In  In6  1  0.32620479  0.15943954  0.11487538  1
  In  In7  1  0.34442176  0.18255836  0.62747612  1
  In  In8  1  0.34375559  0.49977274  0.12638378  1
  In  In9  1  0.33212295  0.50212234  0.62704529  1
  In  In10  1  0.33733876  0.82877890  0.13181840  1
  In  In11  1  0.31006414  0.82780201  0.62268368  1
  In  In12  1  0.66566535  0.17158704  0.12113580  1
  In  In13  1  0.66871656  0.18250596  0.64026836  1
  In  In14  1  0.66504968  0.49877514  0.12646227  1
  In  In15  1  0.65713113  0.48278970  0.62012726  1
  In  In16  1  0.66361019  0.83419411  0.13035452  1
  In  In17  1  0.67234959  0.83683173  0.62237270  1
  In  In18  1  0.15709157  -0.00869034  0.37189033  1
  In  In19  1  0.17063607  0.01255540  0.87412872  1
  In  In20  1  0.17027381  0.33910429  0.38589017  1
  In  In21  1  0.15777215  0.32878598  0.86464049  1
  In  In22  1  0.17446962  0.66170079  0.38537160  1
  In  In23  1  0.16766465  0.66380304  0.86318909  1
  In  In24  1  0.50074223  0.00464797  0.36243535  1
  In  In25  1  0.51676851  0.00377655  0.87653486  1
  In  In26  1  0.50972405  0.32973349  0.37576144  1
  In  In27  1  0.50050753  0.33440662  0.87446066  1
  In  In28  1  0.49390953  0.65659356  0.36994205  1
  In  In29  1  0.48447642  0.64999792  0.87138176  1
  In  In30  1  0.83188739  0.00085989  0.36539968  1
  In  In31  1  0.85298988  0.03171113  0.85668121  1
  In  In32  1  0.82652873  0.34385341  0.37783678  1
  In  In33  1  0.83732255  0.33333068  0.87229424  1
  In  In34  1  0.82556367  0.66195168  0.37395084  1
  In  In35  1  0.83764104  0.65272740  0.87759617  1
  In  In36  1  0.00729759  0.15675034  0.37407152  1
  In  In37  1  0.00114187  0.17649763  0.87291796  1
  In  In38  1  -0.00389900  0.50047892  0.39221766  1
  In  In39  1  -0.00266663  0.49672213  0.86497490  1
  In  In40  1  -0.00128918  0.84505514  0.37697264  1
  In  In41  1  0.00505144  0.82917196  0.86133088  1
  In  In42  1  0.34401322  0.16889110  0.37323244  1
  In  In43  1  0.32318342  0.17415455  0.88181849  1
  In  In44  1  0.32339850  0.51046400  0.38618114  1
  In  In45  1  0.35051930  0.50183380  0.86667685  1
  In  In46  1  0.32433357  0.82398693  0.37016607  1
  In  In47  1  0.33093443  0.82371913  0.86754703  1
  In  In48  1  0.66530934  0.16912711  0.36201768  1
  In  In49  1  0.67164626  0.17017058  0.88018092  1
  In  In50  1  0.66588599  0.49652393  0.37401810  1
  In  In51  1  0.66961872  0.49070889  0.87749004  1
  In  In52  1  0.66666777  0.83125766  0.36427319  1
  In  In53  1  0.65768782  0.84631309  0.87498736  1
  In  In54  1  0.16082035  0.00273127  0.12865932  1
  In  In55  1  0.16024655  -0.00910981  0.62425641  1
  In  In56  1  0.17911996  0.33016696  0.12310287  1
  In  In57  1  0.15944052  0.34586611  0.62613984  1
  In  In58  1  0.16695671  0.67520721  0.12614928  1
  In  In59  1  0.17317085  0.66593001  0.62921360  1
  In  In60  1  0.49519913  0.00247679  0.12610965  1
  In  In61  1  0.50367215  0.01360722  0.62749284  1
  In  In62  1  0.50970398  0.34729636  0.11551089  1
  In  In63  1  0.47206739  0.38351958  0.67713477  1
  In  In64  1  0.50116692  0.66398880  0.12892194  1
  In  In65  1  0.50001354  0.64263823  0.62825350  1
  In  In66  1  0.82405307  0.00948919  0.12884851  1
  In  In67  1  0.83280128  0.00428898  0.63605290  1
  In  In68  1  0.82343437  0.32356115  0.11520850  1
  In  In69  1  0.82796395  0.33679514  0.63240956  1
  In  In70  1  0.82858524  0.64720855  0.11790655  1
  In  In71  1  0.84964686  0.66023114  0.62800355  1
  In  In72  1  0.50074347  0.83165305  0.00364755  1
  In  In73  1  0.34007029  0.33088082  0.25309282  1
  In  In74  1  -0.00433480  0.67128480  0.24754225  1
  In  In75  1  0.50233266  0.17653891  0.50325165  1
  In  In76  1  0.33318480  -0.00387306  0.75037760  1
  In  In77  1  0.49444964  0.82574675  0.48748265  1
  In  In78  1  0.16627597  0.83027770  -0.00760837  1
  In  In79  1  0.66662024  0.66562076  0.75692746  1
  In  In80  1  0.16576810  0.49487190  -0.00440008  1
  In  In81  1  0.83243594  0.16867115  0.51274561  1
  In  In82  1  0.16321491  0.17513434  0.50959620  1
  In  In83  1  0.83287248  0.83589315  -0.00758679  1
  In  In84  1  0.84049014  0.82983088  0.50597487  1
  In  In85  1  -0.00211398  0.32774859  0.25560694  1
  Cu  Cu86  1  0.67040048  0.64804264  0.49861531  1
  Cu  Cu87  1  -0.00322270  0.00915850  -0.00173221  1
  Cu  Cu88  1  0.49654299  0.83021582  0.74874197  1
  Cu  Cu89  1  0.82476173  0.49420535  0.24936460  1
  Cu  Cu90  1  0.66712551  0.33739206  -0.00269306  1
  Cu  Cu91  1  -0.00174618  -0.00420337  0.50531023  1
  Cu  Cu92  1  0.33440669  0.33023457  -0.00352283  1
  Cu  Cu93  1  0.33475514  0.66825757  0.50299679  1
  Cu  Cu94  1  0.16672000  0.49872157  0.74642708  1
  Cu  Cu95  1  0.50317480  0.50287741  0.25008670  1
  Cu  Cu96  1  0.83044159  0.16431047  0.24113253  1
  Cu  Cu97  1  0.66647740  -0.00228152  0.49654838  1
  Cu  Cu98  1  0.16685341  0.15790213  0.24765992  1
  Cu  Cu99  1  0.49907993  0.16656815  0.24156386  1
  Cu  Cu100  1  0.32206842  0.00035190  0.49531468  1
  Cu  Cu101  1  0.82764559  0.84149709  0.75002205  1
  Cu  Cu102  1  0.50777350  0.16872811  0.75827514  1
  Cu  Cu103  1  0.16814061  0.50867759  0.25934804  1
  Cu  Cu104  1  0.50265984  0.83639136  0.24878780  1
  Cu  Cu105  1  0.83597803  0.50252389  0.74883079  1
  Cu  Cu106  1  0.00193500  0.33427177  -0.00922886  1
  Cu  Cu107  1  0.83561756  0.83471845  0.24680361  1
  Cu  Cu108  1  0.00809387  0.66680997  0.50977273  1
  Cu  Cu109  1  0.67562575  0.01524473  -0.00216538  1
  Cu  Cu110  1  0.66480242  0.33663525  0.50434577  1
  Cu  Cu111  1  0.33675776  -0.00279874  -0.00067179  1
  Cu  Cu112  1  0.66014039  0.65948963  -0.00066313  1
  Cu  Cu113  1  0.17090283  0.83463283  0.25075479  1
  Cu  Cu114  1  0.16937891  0.16641393  0.75002454  1
  Se  Se115  1  0.08729399  0.08344863  0.05369577  1
  Se  Se116  1  0.06773652  0.08593133  0.56533188  1
  Se  Se117  1  0.07490255  0.40852097  0.06194695  1
  Se  Se118  1  0.09097786  0.42075323  0.54747818  1
  Se  Se119  1  0.07317288  0.73766417  0.05085976  1
  Se  Se120  1  0.08748936  0.75409159  0.56162435  1
  Se  Se121  1  0.42038269  0.08166393  0.05093710  1
  Se  Se122  1  0.40539494  0.07785056  0.55464031  1
  Se  Se123  1  0.41195708  0.41771801  0.05047923  1
  Se  Se124  1  0.43076645  0.41511998  0.57455695  1
  Se  Se125  1  0.40693752  0.74015228  0.05655348  1
  Se  Se126  1  0.41666152  0.74690309  0.56366101  1
  Se  Se127  1  0.75869822  0.09480606  0.05329459  1
  Se  Se128  1  0.73554275  0.07641085  0.56378664  1
  Se  Se129  1  0.74878569  0.42130896  0.05381044  1
  Se  Se130  1  0.75623865  0.41505849  0.55414855  1
  Se  Se131  1  0.74046135  0.74737744  0.05462671  1
  Se  Se132  1  0.74413341  0.73444755  0.55850384  1
  Se  Se133  1  0.24702818  0.24848617  0.04755590  1
  Se  Se134  1  0.26161790  0.26489058  0.55841512  1
  Se  Se135  1  0.25056596  0.58443103  0.06068494  1
  Se  Se136  1  0.25116472  0.58489386  0.55611880  1
  Se  Se137  1  0.25533523  0.91594922  0.05839874  1
  Se  Se138  1  0.24261161  0.91731706  0.55015004  1
  Se  Se139  1  0.58324391  0.25268996  0.05061907  1
  Se  Se140  1  0.58618401  0.26134050  0.56806964  1
  Se  Se141  1  0.57887540  0.58100118  0.05778306  1
  Se  Se142  1  0.58078621  0.57343168  0.55209032  1
  Se  Se143  1  0.59633412  0.92718155  0.05428905  1
  Se  Se144  1  0.58000738  0.91954886  0.55313914  1
  Se  Se145  1  0.91859939  0.25371904  0.04844537  1
  Se  Se146  1  0.92772206  0.26007285  0.56239094  1
  Se  Se147  1  0.91478994  0.58637624  0.04267251  1
  Se  Se148  1  0.91872805  0.58033382  0.55223465  1
  Se  Se149  1  0.92092458  0.92407772  0.05804326  1
  Se  Se150  1  0.92299948  0.91784110  0.57016554  1
  Se  Se151  1  0.06882803  0.25563360  0.44358265  1
  Se  Se152  1  0.09031022  0.25032522  0.94436960  1
  Se  Se153  1  0.08776828  0.58314889  0.45273583  1
  Se  Se154  1  0.07965196  0.58659181  0.93578395  1
  Se  Se155  1  0.08314478  0.91629251  0.45060138  1
  Se  Se156  1  0.07362943  0.92533580  0.93857722  1
  Se  Se157  1  0.40673897  0.26440213  0.44505279  1
  Se  Se158  1  0.42041205  0.24781227  0.94466573  1
  Se  Se159  1  0.42010302  0.58623908  0.44981698  1
  Se  Se160  1  0.41591593  0.57510168  0.94930094  1
  Se  Se161  1  0.40910782  0.92856809  0.43554905  1
  Se  Se162  1  0.41170565  0.91779085  0.93608358  1
  Se  Se163  1  0.73832475  0.24728901  0.44493132  1
  Se  Se164  1  0.75487413  0.25576739  0.94640080  1
  Se  Se165  1  0.75750742  0.57145287  0.44417501  1
  Se  Se166  1  0.74744410  0.58083852  0.94587740  1
  Se  Se167  1  0.74839218  0.91669015  0.44067925  1
  Se  Se168  1  0.74979086  0.93303955  0.93542123  1
  Se  Se169  1  0.24676893  0.08797554  0.43852729  1
  Se  Se170  1  0.24975636  0.08208846  0.95068532  1
  Se  Se171  1  0.25004481  0.42042267  0.45264925  1
  Se  Se172  1  0.25550030  0.40915261  0.93327065  1
  Se  Se173  1  0.25156488  0.75451554  0.45113221  1
  Se  Se174  1  0.25824935  0.73485059  0.94090260  1
  Se  Se175  1  0.58732886  0.08136805  0.43910365  1
  Se  Se176  1  0.58082916  0.09169646  0.95020229  1
  Se  Se177  1  0.58285387  0.41629295  0.44620171  1
  Se  Se178  1  0.57863791  0.41899602  0.94703190  1
  Se  Se179  1  0.59747009  0.73743324  0.43906658  1
  Se  Se180  1  0.58504669  0.74149289  0.93719796  1
  Se  Se181  1  0.91650035  0.07448256  0.44534539  1
  Se  Se182  1  0.91642712  0.09412437  0.94425099  1
  Se  Se183  1  0.91538859  0.40644250  0.44938553  1
  Se  Se184  1  0.91943444  0.42041688  0.94064061  1
  Se  Se185  1  0.92716663  0.73934884  0.44166715  1
  Se  Se186  1  0.92744389  0.74646111  0.93801623  1
  Se  Se187  1  0.23843114  0.24429614  0.30961070  1
  Se  Se188  1  0.25387430  0.24966175  0.80222397  1
  Se  Se189  1  0.25481723  0.59134093  0.30788789  1
  Se  Se190  1  0.25329914  0.57543391  0.80227507  1
  Se  Se191  1  0.25183915  0.92012774  0.30487792  1
  Se  Se192  1  0.23692521  0.90883025  0.80659036  1
  Se  Se193  1  0.57819194  0.25197013  0.29721392  1
  Se  Se194  1  0.59119646  0.25390196  0.80909841  1
  Se  Se195  1  0.58883567  0.58462343  0.30407999  1
  Se  Se196  1  0.57617308  0.56748043  0.80515809  1
  Se  Se197  1  0.58822882  0.92101934  0.29896758  1
  Se  Se198  1  0.57813874  0.91744663  0.79843153  1
  Se  Se199  1  0.90385170  0.23710036  0.31275403  1
  Se  Se200  1  0.91298552  0.24773914  0.80141432  1
  Se  Se201  1  0.91411707  0.57056976  0.30703733  1
  Se  Se202  1  0.91873185  0.58942012  0.79864571  1
  Se  Se203  1  0.91877031  0.91634590  0.30123920  1
  Se  Se204  1  0.91661180  0.91859467  0.80304312  1
  Se  Se205  1  0.07973497  0.07674833  0.29994515  1
  Se  Se206  1  0.08468423  0.08805657  0.80530771  1
  Se  Se207  1  0.08591761  0.42504191  0.31321608  1
  Se  Se208  1  0.07962474  0.41448072  0.79630092  1
  Se  Se209  1  0.08815985  0.75372987  0.31157593  1
  Se  Se210  1  0.08716325  0.74727601  0.79510343  1
  Se  Se211  1  0.41334329  0.08786634  0.29739476  1
  Se  Se212  1  0.41996675  0.08686786  0.81263578  1
  Se  Se213  1  0.42148778  0.42621569  0.31382274  1
  Se  Se214  1  0.41959538  0.40851271  0.79718324  1
  Se  Se215  1  0.42154310  0.75354354  0.30576393  1
  Se  Se216  1  0.41782505  0.74428688  0.80117040  1
  Se  Se217  1  0.74718598  0.08110594  0.29783879  1
  Se  Se218  1  0.72339936  0.06306886  0.81331640  1
  Se  Se219  1  0.74289468  0.40940682  0.30200982  1
  Se  Se220  1  0.75417319  0.41962204  0.80380087  1
  Se  Se221  1  0.75633075  0.74836208  0.30112731  1
  Se  Se222  1  0.75633776  0.75928013  0.81552374  1
  Se  Se223  1  0.25424061  0.08118426  0.19270652  1
  Se  Se224  1  0.24979004  0.08982115  0.68632282  1
  Se  Se225  1  0.24400205  0.42453791  0.19816164  1
  Se  Se226  1  0.25163578  0.41404353  0.69627216  1
  Se  Se227  1  0.25080158  0.74695087  0.19894217  1
  Se  Se228  1  0.24750275  0.75169939  0.70186958  1
  Se  Se229  1  0.58529502  0.08403300  0.18991562  1
  Se  Se230  1  0.58572929  0.08649283  0.69944860  1
  Se  Se231  1  0.58234340  0.41553023  0.19690310  1
  Se  Se232  1  0.61440970  0.39553325  0.70262768  1
  Se  Se233  1  0.58338785  0.74842138  0.19689282  1
  Se  Se234  1  0.57965533  0.75197879  0.68783123  1
  Se  Se235  1  0.92120600  0.08322238  0.19371500  1
  Se  Se236  1  0.91388490  0.07929259  0.70807970  1
  Se  Se237  1  0.91049082  0.41624839  0.19108654  1
  Se  Se238  1  0.91915782  0.42089577  0.69352507  1
  Se  Se239  1  0.90821257  0.75597616  0.18084115  1
  Se  Se240  1  0.90960514  0.75250060  0.70084017  1
  Se  Se241  1  0.08928243  0.24456073  0.19003241  1
  Se  Se242  1  0.08945673  0.25282241  0.69656509  1
  Se  Se243  1  0.08536651  0.57450801  0.19069521  1
  Se  Se244  1  0.08276904  0.58029127  0.69127834  1
  Se  Se245  1  0.08362107  0.91516625  0.19848100  1
  Se  Se246  1  0.07566097  0.93366164  0.70199970  1
  Se  Se247  1  0.41945198  0.24823926  0.18142872  1
  Se  Se248  1  0.41986177  0.24832948  0.70686129  1
  Se  Se249  1  0.41520082  0.58435577  0.19942444  1
  Se  Se250  1  0.41213942  0.58252469  0.70155041  1
  Se  Se251  1  0.41653265  0.91808228  0.19626603  1
  Se  Se252  1  0.42064146  0.90931130  0.68356407  1
  Se  Se253  1  0.74731768  0.25308711  0.19400892  1
  Se  Se254  1  0.78154072  0.22954335  0.70098031  1
  Se  Se255  1  0.74776426  0.58386484  0.19649963  1
  Se  Se256  1  0.75011098  0.57918758  0.68884929  1
  Se  Se257  1  0.74933534  0.91777438  0.19534442  1
  Se  Se258  1  0.74048433  0.91919441  0.69685301  1
