# generated using pymatgen
data_In86Cu29Se144
_symmetry_space_group_name_H-M   'P 1'
_cell_length_a   17.57045097
_cell_length_b   17.57117653
_cell_length_c   23.41914475
_cell_angle_alpha   90.00346338
_cell_angle_beta   89.99631264
_cell_angle_gamma   89.98275896
_symmetry_Int_Tables_number   1
_chemical_formula_structural   In86Cu29Se144
_chemical_formula_sum   'In86 Cu29 Se144'
_cell_volume   7230.27406896
_cell_formula_units_Z   1
loop_
 _symmetry_equiv_pos_site_id
 _symmetry_equiv_pos_as_xyz
  1  'x, y, z'
loop_
 _atom_site_type_symbol
 _atom_site_label
 _atom_site_symmetry_multiplicity
 _atom_site_fract_x
 _atom_site_fract_y
 _atom_site_fract_z
 _atom_site_occupancy
  In  In0  1  0.00852706  0.17355495  0.13263981  1
  In  In1  1  -0.01698265  0.14081058  0.59860454  1
  In  In2  1  0.00294067  0.48983596  0.12738518  1
  In  In3  1  -0.00439379  0.51062378  0.63087397  1
  In  In4  1  -0.00399233  0.83952125  0.11978397  1
  In  In5  1  -0.00245285  0.83143132  0.62527954  1
  In  In6  1  0.34471582  0.15960718  0.12995765  1
  In  In7  1  0.33623887  0.16957280  0.61911098  1
  In  In8  1  0.32801369  0.49670774  0.11856658  1
  In  In9  1  0.33248959  0.48461523  0.62896318  1
  In  In10  1  0.32999941  0.83000383  0.11607508  1
  In  In11  1  0.33789933  0.83493456  0.61900601  1
  In  In12  1  0.65431813  0.17629467  0.14064283  1
  In  In13  1  0.66552763  0.15464034  0.61050311  1
  In  In14  1  0.65258338  0.49590840  0.12861548  1
  In  In15  1  0.66280495  0.49903494  0.61567178  1
  In  In16  1  0.66440882  0.83790436  0.12319341  1
  In  In17  1  0.68977005  0.85755056  0.60164197  1
  In  In18  1  0.16331459  0.00291507  0.38553449  1
  In  In19  1  0.15351094  -0.00344528  0.86794615  1
  In  In20  1  0.15877179  0.32057421  0.35541012  1
  In  In21  1  0.18129724  0.32556882  0.87439607  1
  In  In22  1  0.16698280  0.68283982  0.37420837  1
  In  In23  1  0.15902657  0.67946718  0.88469837  1
  In  In24  1  0.51542046  -0.00376685  0.38375062  1
  In  In25  1  0.50810359  -0.00454645  0.87688892  1
  In  In26  1  0.49957320  0.33280043  0.37068300  1
  In  In27  1  0.49444600  0.34316505  0.88470451  1
  In  In28  1  0.49914824  0.66027709  0.37650374  1
  In  In29  1  0.49680404  0.66721746  0.88640720  1
  In  In30  1  0.80838619  0.02912238  0.41950676  1
  In  In31  1  0.82300107  -0.00785900  0.86114497  1
  In  In32  1  0.83344281  0.33290832  0.37880815  1
  In  In33  1  0.82736068  0.33958713  0.87335598  1
  In  In34  1  0.82570068  0.67302230  0.38717673  1
  In  In35  1  0.85827913  0.66790850  0.86702706  1
  In  In36  1  -0.00430124  0.16663207  0.38575995  1
  In  In37  1  0.01212768  0.16096795  0.86603060  1
  In  In38  1  0.00218729  0.48826011  0.37694164  1
  In  In39  1  -0.00397089  0.52396540  0.87080286  1
  In  In40  1  -0.00742700  0.85091893  0.39112183  1
  In  In41  1  -0.00214108  0.83421713  0.87286948  1
  In  In42  1  0.32752242  0.18371172  0.37745744  1
  In  In43  1  0.33317368  0.18045656  0.87092921  1
  In  In44  1  0.34398705  0.48890478  0.37128920  1
  In  In45  1  0.34198580  0.49340016  0.88584971  1
  In  In46  1  0.32996137  0.84038684  0.38177685  1
  In  In47  1  0.33943760  0.82473249  0.88689483  1
  In  In48  1  0.66051171  0.16307957  0.38108833  1
  In  In49  1  0.66916065  0.15400711  0.87202609  1
  In  In50  1  0.66726344  0.49574845  0.37558587  1
  In  In51  1  0.65844477  0.49347119  0.87918523  1
  In  In52  1  0.66117840  0.84645355  0.38803188  1
  In  In53  1  0.66177078  0.84346601  0.87760337  1
  In  In54  1  0.17222374  -0.00061553  0.12716210  1
  In  In55  1  0.14484784  -0.02078131  0.60201214  1
  In  In56  1  0.15675286  0.33991173  0.13477736  1
  In  In57  1  0.17813182  0.32916409  0.62702296  1
  In  In58  1  0.17662136  0.67356678  0.11321680  1
  In  In59  1  0.15334425  0.66472936  0.63126966  1
  In  In60  1  0.50302118  0.01006943  0.12258353  1
  In  In61  1  0.51402369  0.00885710  0.61311869  1
  In  In62  1  0.50186667  0.33110125  0.13092193  1
  In  In63  1  0.49472836  0.32640384  0.61712094  1
  In  In64  1  0.48837096  0.66107172  0.10850650  1
  In  In65  1  0.50560750  0.66984967  0.62039667  1
  In  In66  1  0.82930193  -0.01107619  0.12581728  1
  In  In67  1  0.83678040  -0.00207706  0.62116962  1
  In  In68  1  0.83260089  0.32701534  0.13989761  1
  In  In69  1  0.83611180  0.32980618  0.61075876  1
  In  In70  1  0.82225842  0.67704021  0.12347638  1
  In  In71  1  0.83852124  0.67133983  0.62217691  1
  In  In72  1  0.83072691  0.50595484  -0.00230452  1
  In  In73  1  -0.00670351  0.00565871  0.26125496  1
  In  In74  1  0.17352000  0.16140781  0.00137418  1
  In  In75  1  0.33234445  0.66466086  0.76344626  1
  In  In76  1  0.16816417  0.49784635  0.50501311  1
  In  In77  1  0.00366213  0.32850403  0.74336962  1
  In  In78  1  0.66621561  0.33131211  0.75158394  1
  In  In79  1  0.65989519  0.66244425  0.25137305  1
  In  In80  1  0.33374455  0.66603676  0.23684720  1
  In  In81  1  0.00102484  0.66861655  0.25811753  1
  In  In82  1  0.33252744  0.00482241  0.25386376  1
  In  In83  1  0.66825290  0.67190969  0.74522563  1
  In  In84  1  0.83299721  0.16183072  -0.00077096  1
  In  In85  1  0.32833753  0.00276044  0.74741477  1
  Cu  Cu86  1  0.66364765  0.00123302  0.00019987  1
  Cu  Cu87  1  0.17151884  0.50485014  0.24770470  1
  Cu  Cu88  1  0.83653370  0.16285094  0.73894850  1
  Cu  Cu89  1  0.65821351  0.65909645  0.49832081  1
  Cu  Cu90  1  0.00104191  0.33338320  0.49517184  1
  Cu  Cu91  1  0.33312825  -0.00224742  0.00223900  1
  Cu  Cu92  1  0.49232921  0.49535808  0.75510102  1
  Cu  Cu93  1  0.33815143  0.33756372  0.49627260  1
  Cu  Cu94  1  0.65896570  0.33166147  0.00953347  1
  Cu  Cu95  1  0.66391191  0.33320380  0.49384146  1
  Cu  Cu96  1  -0.00326498  -0.00763415  -0.00536935  1
  Cu  Cu97  1  0.34173940  0.00680412  0.49747740  1
  Cu  Cu98  1  0.00623738  0.33998219  0.00533056  1
  Cu  Cu99  1  0.82756316  0.84185320  0.25349935  1
  Cu  Cu100  1  0.51329374  0.84390587  0.74776470  1
  Cu  Cu101  1  0.50463344  0.16309680  0.25418852  1
  Cu  Cu102  1  0.16567686  0.49593160  0.75217871  1
  Cu  Cu103  1  0.33298133  0.66618174  0.49631267  1
  Cu  Cu104  1  0.16395194  0.15882171  0.73849744  1
  Cu  Cu105  1  0.33630469  0.33039262  0.00404056  1
  Cu  Cu106  1  0.83118915  0.16082950  0.26581285  1
  Cu  Cu107  1  0.50043477  0.16943910  0.73929158  1
  Cu  Cu108  1  0.16110634  0.83088099  0.74975824  1
  Cu  Cu109  1  0.50023132  0.83508707  0.25227716  1
  Cu  Cu110  1  0.00205971  0.67235085  -0.00060476  1
  Cu  Cu111  1  0.83388513  0.49254613  0.25482496  1
  Cu  Cu112  1  0.00092791  0.66717920  0.50509984  1
  Cu  Cu113  1  0.83694447  0.83505244  0.74267283  1
  Cu  Cu114  1  0.67036492  0.67684937  -0.00105069  1
  Se  Se115  1  0.07167982  0.07593211  0.05731629  1
  Se  Se116  1  0.10976180  0.10481171  0.55147600  1
  Se  Se117  1  0.09200052  0.42202809  0.05484466  1
  Se  Se118  1  0.07470526  0.40937470  0.56421830  1
  Se  Se119  1  0.08219905  0.75683114  0.05429809  1
  Se  Se120  1  0.08702761  0.74891190  0.55666282  1
  Se  Se121  1  0.41575468  0.08536885  0.05126108  1
  Se  Se122  1  0.42326018  0.09136275  0.55083634  1
  Se  Se123  1  0.42059253  0.41167755  0.05856111  1
  Se  Se124  1  0.41761325  0.42154084  0.55234912  1
  Se  Se125  1  0.42260201  0.76254919  0.04838420  1
  Se  Se126  1  0.41712636  0.74697436  0.55255028  1
  Se  Se127  1  0.74040666  0.08249036  0.06350502  1
  Se  Se128  1  0.76047166  0.08162525  0.54654957  1
  Se  Se129  1  0.75181637  0.40873100  0.06179787  1
  Se  Se130  1  0.74711833  0.41547644  0.54940617  1
  Se  Se131  1  0.75195158  0.76167904  0.05127135  1
  Se  Se132  1  0.74566294  0.73828240  0.55193192  1
  Se  Se133  1  0.25427424  0.25303865  0.06545304  1
  Se  Se134  1  0.25376625  0.25513360  0.55022285  1
  Se  Se135  1  0.26248646  0.59193339  0.05014692  1
  Se  Se136  1  0.25764959  0.59007410  0.56495936  1
  Se  Se137  1  0.24396760  0.91891195  0.05268660  1
  Se  Se138  1  0.26022743  0.91894951  0.54942701  1
  Se  Se139  1  0.57958594  0.24245425  0.05920670  1
  Se  Se140  1  0.58371763  0.24946749  0.55069382  1
  Se  Se141  1  0.59455467  0.58720760  0.05333139  1
  Se  Se142  1  0.57237350  0.57650351  0.55000453  1
  Se  Se143  1  0.57973364  0.91973306  0.05509155  1
  Se  Se144  1  0.56919212  0.90208581  0.55001956  1
  Se  Se145  1  0.92227018  0.25679467  0.05920097  1
  Se  Se146  1  0.91301081  0.24549863  0.54046516  1
  Se  Se147  1  0.92230098  0.59213403  0.06260398  1
  Se  Se148  1  0.91668391  0.58028346  0.55379431  1
  Se  Se149  1  0.90921124  0.91631165  0.05004034  1
  Se  Se150  1  0.91607642  0.90969346  0.55493176  1
  Se  Se151  1  0.09012220  0.25716475  0.44157214  1
  Se  Se152  1  0.07747168  0.25245071  0.94328990  1
  Se  Se153  1  0.08122898  0.59018972  0.44123370  1
  Se  Se154  1  0.08103240  0.58266003  0.94836089  1
  Se  Se155  1  0.09606135  0.91087260  0.45489097  1
  Se  Se156  1  0.08590216  0.91324504  0.94328655  1
  Se  Se157  1  0.42258133  0.25116646  0.44606950  1
  Se  Se158  1  0.41646121  0.24729783  0.94725789  1
  Se  Se159  1  0.41103788  0.57960457  0.44303451  1
  Se  Se160  1  0.42091208  0.57927019  0.95197297  1
  Se  Se161  1  0.42110272  0.91644338  0.44662282  1
  Se  Se162  1  0.41993181  0.92028603  0.94591973  1
  Se  Se163  1  0.75025397  0.24810556  0.44570888  1
  Se  Se164  1  0.74029647  0.25904530  0.94374153  1
  Se  Se165  1  0.74671378  0.57799614  0.44721413  1
  Se  Se166  1  0.74587196  0.59700473  0.93358513  1
  Se  Se167  1  0.76386003  0.89770445  0.45679425  1
  Se  Se168  1  0.75109548  0.92474575  0.94397122  1
  Se  Se169  1  0.25631489  0.08806333  0.44389451  1
  Se  Se170  1  0.25719659  0.07349005  0.93353614  1
  Se  Se171  1  0.24752815  0.40977559  0.43739199  1
  Se  Se172  1  0.25006673  0.40923645  0.94870244  1
  Se  Se173  1  0.24843983  0.75315520  0.44907897  1
  Se  Se174  1  0.25567239  0.74326748  0.95176218  1
  Se  Se175  1  0.59291205  0.07610093  0.45562937  1
  Se  Se176  1  0.58311061  0.08686701  0.94592566  1
  Se  Se177  1  0.57859277  0.41728522  0.44303373  1
  Se  Se178  1  0.58141971  0.42017018  0.95483402  1
  Se  Se179  1  0.57958530  0.74564969  0.44360451  1
  Se  Se180  1  0.58357623  0.75713994  0.94603737  1
  Se  Se181  1  0.94536954  0.05989940  0.45136871  1
  Se  Se182  1  0.92260898  0.07752728  0.93403629  1
  Se  Se183  1  0.91455025  0.42016089  0.44872670  1
  Se  Se184  1  0.92504624  0.41312512  0.94024112  1
  Se  Se185  1  0.91796422  0.74998339  0.45083670  1
  Se  Se186  1  0.91600534  0.75276780  0.94571747  1
  Se  Se187  1  0.26525342  0.25917534  0.29554138  1
  Se  Se188  1  0.24335811  0.24185144  0.79544149  1
  Se  Se189  1  0.24631144  0.58541278  0.31004092  1
  Se  Se190  1  0.24045212  0.57356435  0.81895589  1
  Se  Se191  1  0.23983848  0.91374664  0.30916368  1
  Se  Se192  1  0.24935015  0.90305179  0.81000244  1
  Se  Se193  1  0.58823768  0.24690642  0.30693910  1
  Se  Se194  1  0.57351438  0.24438874  0.81081277  1
  Se  Se195  1  0.56920795  0.56745693  0.30356043  1
  Se  Se196  1  0.57552202  0.58132443  0.80793580  1
  Se  Se197  1  0.58534895  0.91396633  0.30654055  1
  Se  Se198  1  0.59376860  0.92785259  0.80120806  1
  Se  Se199  1  0.91847811  0.24686339  0.31194663  1
  Se  Se200  1  0.90652554  0.24256662  0.80744984  1
  Se  Se201  1  0.90588766  0.57974145  0.31442393  1
  Se  Se202  1  0.90844126  0.57387020  0.79204883  1
  Se  Se203  1  0.90012103  0.91955443  0.31868494  1
  Se  Se204  1  0.92037071  0.91732130  0.79968812  1
  Se  Se205  1  0.09220276  0.09373927  0.31179535  1
  Se  Se206  1  0.08066035  0.07622414  0.79206171  1
  Se  Se207  1  0.08275685  0.42381663  0.29878332  1
  Se  Se208  1  0.08447172  0.41496901  0.81375035  1
  Se  Se209  1  0.08037546  0.77159168  0.31132275  1
  Se  Se210  1  0.08072786  0.74665241  0.80524210  1
  Se  Se211  1  0.42461194  0.08625736  0.31739310  1
  Se  Se212  1  0.42314829  0.09048884  0.80570599  1
  Se  Se213  1  0.41060513  0.40418269  0.29853599  1
  Se  Se214  1  0.41101694  0.41110181  0.80778871  1
  Se  Se215  1  0.41619164  0.75443533  0.30803187  1
  Se  Se216  1  0.43323133  0.76207127  0.80741250  1
  Se  Se217  1  0.75459128  0.07470079  0.32159257  1
  Se  Se218  1  0.74893870  0.08577229  0.79485834  1
  Se  Se219  1  0.74890068  0.41171032  0.30708445  1
  Se  Se220  1  0.75508823  0.43250026  0.80411416  1
  Se  Se221  1  0.74819515  0.75499695  0.31029607  1
  Se  Se222  1  0.75805768  0.75819783  0.80912247  1
  Se  Se223  1  0.23828699  0.09624636  0.19648276  1
  Se  Se224  1  0.24098380  0.07760938  0.67736253  1
  Se  Se225  1  0.25286080  0.41999760  0.19493313  1
  Se  Se226  1  0.24988306  0.41152104  0.70262577  1
  Se  Se227  1  0.23728315  0.76449306  0.19294107  1
  Se  Se228  1  0.24990832  0.75313920  0.69407525  1
  Se  Se229  1  0.58445924  0.07385628  0.20241295  1
  Se  Se230  1  0.58716600  0.08618452  0.69063403  1
  Se  Se231  1  0.60013644  0.39794755  0.19809787  1
  Se  Se232  1  0.57501549  0.42129209  0.69190251  1
  Se  Se233  1  0.57068377  0.74975607  0.18812450  1
  Se  Se234  1  0.58716125  0.76511397  0.68318796  1
  Se  Se235  1  0.90505814  0.09132675  0.19168252  1
  Se  Se236  1  0.92333092  0.08109689  0.68932344  1
  Se  Se237  1  0.92095407  0.41521325  0.20004534  1
  Se  Se238  1  0.90538577  0.41529584  0.68979738  1
  Se  Se239  1  0.90770019  0.75894225  0.19599140  1
  Se  Se240  1  0.91989944  0.74513186  0.69677672  1
  Se  Se241  1  0.08007186  0.25503110  0.20421218  1
  Se  Se242  1  0.07964498  0.23544696  0.67809518  1
  Se  Se243  1  0.09010775  0.58731371  0.18931474  1
  Se  Se244  1  0.08085681  0.58171176  0.70463344  1
  Se  Se245  1  0.08049279  0.91771933  0.19385105  1
  Se  Se246  1  0.08537817  0.91587002  0.69199718  1
  Se  Se247  1  0.42028198  0.24429046  0.20001377  1
  Se  Se248  1  0.41319647  0.25333746  0.69263180  1
  Se  Se249  1  0.42830399  0.57193181  0.18789205  1
  Se  Se250  1  0.41919174  0.58184881  0.69376414  1
  Se  Se251  1  0.41759118  0.91198883  0.19071399  1
  Se  Se252  1  0.42519552  0.91720838  0.68940369  1
  Se  Se253  1  0.75128623  0.24409824  0.20739664  1
  Se  Se254  1  0.75289474  0.24570502  0.68484695  1
  Se  Se255  1  0.75865256  0.57472860  0.19214340  1
  Se  Se256  1  0.75170102  0.57616861  0.68704526  1
  Se  Se257  1  0.74163963  0.91877343  0.19779573  1
  Se  Se258  1  0.75014701  0.91779714  0.69172961  1
