# generated using pymatgen
data_In86Cu29Se144
_symmetry_space_group_name_H-M   'P 1'
_cell_length_a   17.57403079
_cell_length_b   17.57099745
_cell_length_c   23.43280443
_cell_angle_alpha   90.03858743
_cell_angle_beta   90.02498690
_cell_angle_gamma   90.00877489
_symmetry_Int_Tables_number   1
_chemical_formula_structural   In86Cu29Se144
_chemical_formula_sum   'In86 Cu29 Se144'
_cell_volume   7235.88942595
_cell_formula_units_Z   1
loop_
 _symmetry_equiv_pos_site_id
 _symmetry_equiv_pos_as_xyz
  1  'x, y, z'
loop_
 _atom_site_type_symbol
 _atom_site_label
 _atom_site_symmetry_multiplicity
 _atom_site_fract_x
 _atom_site_fract_y
 _atom_site_fract_z
 _atom_site_occupancy
  In  In0  1  0.00996965  0.16932091  0.12033997  1
  In  In1  1  -0.00264666  0.17399335  0.63068778  1
  In  In2  1  -0.00290405  0.50567381  0.13002469  1
  In  In3  1  0.02174934  0.49491693  0.63711154  1
  In  In4  1  0.00697515  0.82435957  0.12517821  1
  In  In5  1  0.00303157  0.82762371  0.62975316  1
  In  In6  1  0.32577661  0.17618300  0.11714541  1
  In  In7  1  0.34838792  0.17022198  0.62004894  1
  In  In8  1  0.34888690  0.50474931  0.12040458  1
  In  In9  1  0.33803560  0.51022945  0.63018959  1
  In  In10  1  0.32191179  0.81966165  0.12095370  1
  In  In11  1  0.33114067  0.81826921  0.61510973  1
  In  In12  1  0.66824747  0.16619477  0.13438554  1
  In  In13  1  0.66419319  0.18017661  0.62600291  1
  In  In14  1  0.65235218  0.51003438  0.13864898  1
  In  In15  1  0.64924772  0.49458202  0.62545821  1
  In  In16  1  0.66123385  0.83295910  0.13468873  1
  In  In17  1  0.66197494  0.82510565  0.61172756  1
  In  In18  1  0.15675128  -0.01540439  0.37359822  1
  In  In19  1  0.16665221  0.00543570  0.87643299  1
  In  In20  1  0.17003812  0.34916641  0.37667269  1
  In  In21  1  0.16965368  0.33750300  0.86335039  1
  In  In22  1  0.16696937  0.66734798  0.37456132  1
  In  In23  1  0.16831002  0.67269034  0.86842600  1
  In  In24  1  0.51140417  -0.00799898  0.38054226  1
  In  In25  1  0.48949673  -0.01524178  0.87422268  1
  In  In26  1  0.49858084  0.33657549  0.38334331  1
  In  In27  1  0.50624190  0.35883152  0.85113471  1
  In  In28  1  0.50486633  0.65976336  0.37678508  1
  In  In29  1  0.49277596  0.67046874  0.87779550  1
  In  In30  1  0.82218770  0.00337250  0.37384617  1
  In  In31  1  0.83844223  -0.01130235  0.87729863  1
  In  In32  1  0.83667453  0.33993671  0.36975493  1
  In  In33  1  0.84064022  0.33757814  0.86649271  1
  In  In34  1  0.84284852  0.67428378  0.37097516  1
  In  In35  1  0.83152160  0.65824879  0.87587639  1
  In  In36  1  -0.00915844  0.17015172  0.37562269  1
  In  In37  1  0.02012682  0.18106162  0.86501108  1
  In  In38  1  0.00458293  0.50394114  0.37184036  1
  In  In39  1  0.01269419  0.50992849  0.85535420  1
  In  In40  1  0.01538269  0.81850147  0.38686350  1
  In  In41  1  0.00119455  0.84443555  0.86921536  1
  In  In42  1  0.33678940  0.18278354  0.37993061  1
  In  In43  1  0.32335429  0.16522148  0.87522543  1
  In  In44  1  0.31683506  0.52576471  0.39898121  1
  In  In45  1  0.34315288  0.53073338  0.84062975  1
  In  In46  1  0.35963001  0.79245584  0.40618375  1
  In  In47  1  0.34671130  0.81113560  0.87732948  1
  In  In48  1  0.66123675  0.16461533  0.37096542  1
  In  In49  1  0.65395884  0.17694181  0.87790821  1
  In  In50  1  0.65697238  0.49023193  0.37066381  1
  In  In51  1  0.67329489  0.49427750  0.87754726  1
  In  In52  1  0.66898276  0.83356634  0.37306089  1
  In  In53  1  0.64229655  0.81716113  0.87566351  1
  In  In54  1  0.16482285  -0.00071776  0.11544335  1
  In  In55  1  0.16647227  -0.01773356  0.62556876  1
  In  In56  1  0.16720934  0.32735393  0.11946868  1
  In  In57  1  0.16160048  0.35933083  0.64216859  1
  In  In58  1  0.15720077  0.67780198  0.12953963  1
  In  In59  1  0.17308174  0.65947620  0.62886495  1
  In  In60  1  0.51101455  -0.00610642  0.13252034  1
  In  In61  1  0.49251637  -0.00651190  0.61390705  1
  In  In62  1  0.49830910  0.34709575  0.12524124  1
  In  In63  1  0.50181297  0.33855870  0.62995370  1
  In  In64  1  0.49890876  0.66232950  0.12850375  1
  In  In65  1  0.48429374  0.65909734  0.61661851  1
  In  In66  1  0.82750041  -0.01016898  0.12808900  1
  In  In67  1  0.84569224  -0.00447156  0.62682906  1
  In  In68  1  0.83017173  0.33842699  0.13143920  1
  In  In69  1  0.83742116  0.33170961  0.62946613  1
  In  In70  1  0.83482684  0.66576143  0.13291248  1
  In  In71  1  0.83552035  0.68071475  0.62063807  1
  In  In72  1  0.83771058  0.50479305  0.49404001  1
  In  In73  1  0.66924327  0.00042359  0.75833958  1
  In  In74  1  -0.00762173  -0.00187346  0.24610343  1
  In  In75  1  0.66357753  0.66452440  0.74516909  1
  In  In76  1  0.33178631  -0.00554283  0.25657512  1
  In  In77  1  0.33737751  0.34348765  0.25002725  1
  In  In78  1  0.83196169  0.16642522  0.50825436  1
  In  In79  1  0.83145041  0.50416384  0.00397342  1
  In  In80  1  0.48706155  0.16277909  -0.00019049  1
  In  In81  1  0.83396153  0.83072697  0.00709968  1
  In  In82  1  0.33133772  -0.00287204  0.74667773  1
  In  In83  1  0.17344599  0.16733627  0.50148479  1
  In  In84  1  0.83725975  0.16671972  0.00457221  1
  In  In85  1  0.17290068  0.50256849  -0.01735484  1
  Cu  Cu86  1  0.00943978  0.66097467  0.50358096  1
  Cu  Cu87  1  0.65724767  0.33700341  -0.00183315  1
  Cu  Cu88  1  0.33223225  -0.01503091  -0.00319990  1
  Cu  Cu89  1  0.66210769  0.33501375  0.50024432  1
  Cu  Cu90  1  0.50474566  0.16900337  0.25460338  1
  Cu  Cu91  1  0.50687024  0.16864411  0.74712177  1
  Cu  Cu92  1  0.83248195  0.50151101  0.25338036  1
  Cu  Cu93  1  0.15993155  0.17076741  0.24288014  1
  Cu  Cu94  1  0.83217585  0.83483070  0.25284162  1
  Cu  Cu95  1  0.33788345  0.34300676  0.50928998  1
  Cu  Cu96  1  0.17215026  0.82217094  0.25529161  1
  Cu  Cu97  1  0.49869442  0.82692173  0.25916811  1
  Cu  Cu98  1  0.83234505  0.49992929  0.74826851  1
  Cu  Cu99  1  0.16613629  0.83149777  0.74958223  1
  Cu  Cu100  1  0.83606245  0.16577500  0.74881807  1
  Cu  Cu101  1  0.16648621  0.50499320  0.25271931  1
  Cu  Cu102  1  0.33234842  0.66073210  -0.00410588  1
  Cu  Cu103  1  0.16532308  0.16310374  0.74910738  1
  Cu  Cu104  1  0.66547530  0.67020458  0.49804068  1
  Cu  Cu105  1  0.83011736  0.17695254  0.25347281  1
  Cu  Cu106  1  0.00981182  0.00721137  -0.00542393  1
  Cu  Cu107  1  0.00045475  -0.01082892  0.50717979  1
  Cu  Cu108  1  0.83539331  0.83337153  0.74728686  1
  Cu  Cu109  1  0.00861935  0.34091658  -0.01101676  1
  Cu  Cu110  1  0.33551788  0.33462147  -0.01024369  1
  Cu  Cu111  1  0.33179602  -0.00111780  0.50175057  1
  Cu  Cu112  1  0.65730424  -0.01385096  0.00311384  1
  Cu  Cu113  1  0.66399839  -0.00121188  0.49426643  1
  Cu  Cu114  1  0.49552268  0.50185778  0.25420329  1
  Se  Se115  1  0.09060608  0.09255813  0.04866192  1
  Se  Se116  1  0.07816040  0.07841727  0.56173670  1
  Se  Se117  1  0.08230140  0.42174649  0.05442784  1
  Se  Se118  1  0.08955060  0.41961426  0.55772785  1
  Se  Se119  1  0.09050027  0.75722182  0.05155093  1
  Se  Se120  1  0.08674195  0.74513485  0.56190911  1
  Se  Se121  1  0.40605493  0.06676680  0.06362066  1
  Se  Se122  1  0.41901411  0.08587720  0.54652250  1
  Se  Se123  1  0.41629980  0.41375769  0.04854664  1
  Se  Se124  1  0.42304058  0.42485927  0.56133442  1
  Se  Se125  1  0.41276521  0.74065144  0.05644727  1
  Se  Se126  1  0.42202831  0.75196563  0.54366658  1
  Se  Se127  1  0.73855312  0.07284137  0.05680456  1
  Se  Se128  1  0.74012264  0.07275972  0.56380226  1
  Se  Se129  1  0.73768650  0.41366295  0.06106893  1
  Se  Se130  1  0.74832692  0.41346890  0.55758925  1
  Se  Se131  1  0.74126677  0.74184805  0.06339785  1
  Se  Se132  1  0.75561952  0.75278476  0.54479608  1
  Se  Se133  1  0.24982745  0.25533450  0.04377082  1
  Se  Se134  1  0.25262312  0.26108085  0.56528134  1
  Se  Se135  1  0.24948830  0.58591476  0.05863671  1
  Se  Se136  1  0.25688210  0.58513195  0.55661236  1
  Se  Se137  1  0.24526524  0.90883073  0.05299281  1
  Se  Se138  1  0.25023162  0.91303363  0.55248664  1
  Se  Se139  1  0.58546412  0.24888387  0.05875561  1
  Se  Se140  1  0.57920112  0.25303240  0.55531470  1
  Se  Se141  1  0.56665420  0.56509078  0.06090576  1
  Se  Se142  1  0.58607702  0.58705299  0.55425816  1
  Se  Se143  1  0.57702953  0.90600543  0.05911177  1
  Se  Se144  1  0.58068166  0.91429603  0.54740015  1
  Se  Se145  1  0.92647507  0.26837525  0.05476278  1
  Se  Se146  1  0.92909491  0.26225668  0.55376851  1
  Se  Se147  1  0.92610089  0.59746421  0.05633694  1
  Se  Se148  1  0.92535712  0.58381383  0.56353451  1
  Se  Se149  1  0.92921388  0.93052594  0.05786055  1
  Se  Se150  1  0.91544879  0.90544389  0.55737254  1
  Se  Se151  1  0.08243307  0.25338763  0.43998428  1
  Se  Se152  1  0.09516924  0.25670273  0.94143750  1
  Se  Se153  1  0.08685152  0.57943628  0.44438381  1
  Se  Se154  1  0.07122857  0.59372625  0.93813606  1
  Se  Se155  1  0.08855822  0.91155434  0.45424277  1
  Se  Se156  1  0.08589549  0.91649863  0.94291971  1
  Se  Se157  1  0.41633091  0.25482722  0.45449711  1
  Se  Se158  1  0.42120643  0.25788756  0.92980178  1
  Se  Se159  1  0.42464273  0.58880912  0.45420195  1
  Se  Se160  1  0.40487031  0.57606369  0.93524794  1
  Se  Se161  1  0.41577947  0.91968848  0.44511014  1
  Se  Se162  1  0.41971209  0.90296480  0.94826456  1
  Se  Se163  1  0.74749442  0.25639151  0.44227984  1
  Se  Se164  1  0.74704853  0.25933364  0.94417162  1
  Se  Se165  1  0.74286753  0.58947558  0.43501205  1
  Se  Se166  1  0.73596004  0.59554166  0.94894607  1
  Se  Se167  1  0.75160352  0.91664370  0.44493271  1
  Se  Se168  1  0.73885190  0.91299355  0.94027081  1
  Se  Se169  1  0.25451638  0.07488286  0.43495095  1
  Se  Se170  1  0.25516415  0.07847480  0.94831155  1
  Se  Se171  1  0.24815353  0.41736187  0.45445839  1
  Se  Se172  1  0.26848930  0.41928027  0.92458313  1
  Se  Se173  1  0.22892956  0.76163103  0.44692392  1
  Se  Se174  1  0.24786264  0.74609847  0.94460547  1
  Se  Se175  1  0.58283045  0.08950185  0.44626872  1
  Se  Se176  1  0.58390254  0.07121748  0.94177098  1
  Se  Se177  1  0.58024529  0.42353787  0.45099888  1
  Se  Se178  1  0.57726501  0.41556971  0.93980955  1
  Se  Se179  1  0.58471587  0.75324775  0.44198808  1
  Se  Se180  1  0.57425786  0.74339081  0.95285376  1
  Se  Se181  1  0.92316662  0.07271951  0.44689514  1
  Se  Se182  1  0.92566580  0.08594666  0.93648017  1
  Se  Se183  1  0.92842570  0.40770759  0.44291762  1
  Se  Se184  1  0.92400715  0.42355651  0.93635694  1
  Se  Se185  1  0.92119412  0.74216205  0.45090058  1
  Se  Se186  1  0.91910234  0.74945638  0.93843333  1
  Se  Se187  1  0.24315809  0.24710341  0.30406701  1
  Se  Se188  1  0.25221405  0.24477421  0.79996308  1
  Se  Se189  1  0.25280222  0.58166720  0.30834583  1
  Se  Se190  1  0.21166895  0.56603980  0.79763212  1
  Se  Se191  1  0.25209185  0.89894630  0.31699965  1
  Se  Se192  1  0.25041807  0.90705352  0.81253656  1
  Se  Se193  1  0.57913041  0.25809214  0.30975080  1
  Se  Se194  1  0.58852764  0.25468570  0.79952189  1
  Se  Se195  1  0.58651277  0.58381597  0.30218519  1
  Se  Se196  1  0.58163011  0.57817569  0.81170086  1
  Se  Se197  1  0.58446369  0.91679517  0.30305301  1
  Se  Se198  1  0.56955953  0.90283148  0.79946627  1
  Se  Se199  1  0.92105090  0.25474305  0.30273349  1
  Se  Se200  1  0.92088019  0.25006335  0.80120808  1
  Se  Se201  1  0.91966038  0.58453551  0.30362132  1
  Se  Se202  1  0.91127221  0.58889687  0.79952664  1
  Se  Se203  1  0.91625352  0.90941850  0.31570343  1
  Se  Se204  1  0.91529416  0.92294396  0.79802564  1
  Se  Se205  1  0.08689059  0.08848938  0.30626804  1
  Se  Se206  1  0.08392387  0.07710476  0.80128944  1
  Se  Se207  1  0.08496668  0.41665291  0.30219652  1
  Se  Se208  1  0.06772117  0.39894226  0.79815055  1
  Se  Se209  1  0.07792321  0.74477543  0.30349948  1
  Se  Se210  1  0.07809004  0.75348629  0.80308170  1
  Se  Se211  1  0.42074764  0.09176102  0.31309158  1
  Se  Se212  1  0.42572468  0.08843150  0.80722472  1
  Se  Se213  1  0.41242217  0.43115642  0.31969365  1
  Se  Se214  1  0.39489835  0.40960696  0.78993971  1
  Se  Se215  1  0.41458015  0.74298648  0.31043384  1
  Se  Se216  1  0.41009852  0.73270523  0.79770765  1
  Se  Se217  1  0.74911811  0.08696076  0.30190226  1
  Se  Se218  1  0.75833003  0.09536183  0.81743200  1
  Se  Se219  1  0.74786512  0.41530807  0.30257853  1
  Se  Se220  1  0.74999589  0.41689043  0.80242493  1
  Se  Se221  1  0.75001452  0.74816455  0.30408707  1
  Se  Se222  1  0.75161546  0.75821079  0.80911203  1
  Se  Se223  1  0.24562928  0.08812723  0.19040415  1
  Se  Se224  1  0.24542126  0.08886938  0.68424532  1
  Se  Se225  1  0.24393331  0.42703318  0.18631245  1
  Se  Se226  1  0.27727218  0.40760715  0.69957637  1
  Se  Se227  1  0.25480005  0.74067848  0.20000822  1
  Se  Se228  1  0.25254795  0.75280372  0.69534243  1
  Se  Se229  1  0.58471738  0.08249296  0.20127160  1
  Se  Se230  1  0.58024212  0.08085977  0.68883908  1
  Se  Se231  1  0.57808691  0.41289137  0.20354234  1
  Se  Se232  1  0.58544091  0.41470903  0.70260895  1
  Se  Se233  1  0.57967379  0.74571363  0.20001527  1
  Se  Se234  1  0.57565650  0.75330610  0.68476238  1
  Se  Se235  1  0.90558553  0.09686880  0.18734202  1
  Se  Se236  1  0.91928244  0.08297066  0.69633784  1
  Se  Se237  1  0.91666225  0.41985912  0.19707665  1
  Se  Se238  1  0.91842773  0.41900145  0.69490223  1
  Se  Se239  1  0.91696579  0.75687620  0.19611653  1
  Se  Se240  1  0.91769562  0.74498198  0.69892845  1
  Se  Se241  1  0.07925175  0.25794637  0.19271829  1
  Se  Se242  1  0.08687002  0.25194816  0.69637867  1
  Se  Se243  1  0.08241849  0.58655640  0.19725566  1
  Se  Se244  1  0.09410745  0.58464082  0.70653964  1
  Se  Se245  1  0.09733665  0.91154412  0.19606069  1
  Se  Se246  1  0.08064353  0.91674170  0.70007462  1
  Se  Se247  1  0.42188016  0.24216634  0.19081217  1
  Se  Se248  1  0.41919249  0.24847984  0.69636381  1
  Se  Se249  1  0.41168417  0.58409564  0.20021910  1
  Se  Se250  1  0.41483621  0.59716386  0.70181104  1
  Se  Se251  1  0.41897222  0.90454661  0.19412550  1
  Se  Se252  1  0.41961990  0.90747194  0.68746647  1
  Se  Se253  1  0.74479118  0.25757916  0.19897853  1
  Se  Se254  1  0.75237467  0.24992822  0.69713313  1
  Se  Se255  1  0.74944054  0.58559290  0.20027026  1
  Se  Se256  1  0.75601354  0.57740668  0.68323954  1
  Se  Se257  1  0.74665965  0.91844739  0.20186100  1
  Se  Se258  1  0.74870565  0.90967572  0.68948584  1
