# generated using pymatgen
data_In86Cu29Se144
_symmetry_space_group_name_H-M   'P 1'
_cell_length_a   17.58704701
_cell_length_b   17.58880812
_cell_length_c   23.44632432
_cell_angle_alpha   89.99943826
_cell_angle_beta   89.97545061
_cell_angle_gamma   90.00922019
_symmetry_Int_Tables_number   1
_chemical_formula_structural   In86Cu29Se144
_chemical_formula_sum   'In86 Cu29 Se144'
_cell_volume   7252.77255322
_cell_formula_units_Z   1
loop_
 _symmetry_equiv_pos_site_id
 _symmetry_equiv_pos_as_xyz
  1  'x, y, z'
loop_
 _atom_site_type_symbol
 _atom_site_label
 _atom_site_symmetry_multiplicity
 _atom_site_fract_x
 _atom_site_fract_y
 _atom_site_fract_z
 _atom_site_occupancy
  In  In0  1  -0.00558844  0.15375411  0.11250259  1
  In  In1  1  -0.00092994  0.16095638  0.61877165  1
  In  In2  1  0.01271765  0.50318290  0.12574917  1
  In  In3  1  0.00111276  0.50246949  0.62070663  1
  In  In4  1  0.00830968  0.82665500  0.12517902  1
  In  In5  1  0.00205459  0.84962251  0.62979265  1
  In  In6  1  0.32770247  0.16535962  0.12068920  1
  In  In7  1  0.32739528  0.18059392  0.62865524  1
  In  In8  1  0.31830385  0.50018334  0.12758718  1
  In  In9  1  0.33313787  0.48785399  0.61985032  1
  In  In10  1  0.34189004  0.83888055  0.11501384  1
  In  In11  1  0.32776772  0.83181168  0.63373696  1
  In  In12  1  0.66120017  0.16221589  0.11593472  1
  In  In13  1  0.67117437  0.15521888  0.62916057  1
  In  In14  1  0.67726399  0.50446850  0.13157771  1
  In  In15  1  0.67911996  0.51270709  0.62016189  1
  In  In16  1  0.65719379  0.83254955  0.12427745  1
  In  In17  1  0.67625927  0.81858742  0.63608321  1
  In  In18  1  0.16903199  0.00480955  0.36284407  1
  In  In19  1  0.14963672  0.00656201  0.88861691  1
  In  In20  1  0.17567829  0.32447369  0.38463355  1
  In  In21  1  0.17298220  0.32311231  0.87380845  1
  In  In22  1  0.15514175  0.66703743  0.37614259  1
  In  In23  1  0.17566940  0.65467776  0.89147272  1
  In  In24  1  0.49094484  0.01047392  0.37247329  1
  In  In25  1  0.50594073  -0.00957570  0.87904005  1
  In  In26  1  0.49603877  0.34292497  0.37693737  1
  In  In27  1  0.48116241  0.33455542  0.87112096  1
  In  In28  1  0.49865656  0.65504066  0.37505801  1
  In  In29  1  0.49686767  0.67838645  0.86395922  1
  In  In30  1  0.84159788  -0.01182775  0.38072297  1
  In  In31  1  0.84586369  0.00725650  0.86883945  1
  In  In32  1  0.83391932  0.33361270  0.38925460  1
  In  In33  1  0.82616547  0.32448370  0.87139934  1
  In  In34  1  0.83687970  0.67013770  0.37811252  1
  In  In35  1  0.83182871  0.67562975  0.86965568  1
  In  In36  1  0.00794455  0.15884602  0.37637411  1
  In  In37  1  0.01086280  0.14586511  0.89236867  1
  In  In38  1  -0.00452251  0.50683388  0.38461873  1
  In  In39  1  0.01395260  0.51063102  0.87612125  1
  In  In40  1  -0.00199113  0.82492648  0.36543671  1
  In  In41  1  -0.00132813  0.84357912  0.88229358  1
  In  In42  1  0.32317615  0.16169484  0.36678237  1
  In  In43  1  0.31822972  0.18069011  0.87841495  1
  In  In44  1  0.34210310  0.48512157  0.38872929  1
  In  In45  1  0.31349534  0.49437376  0.85943940  1
  In  In46  1  0.31992039  0.83921842  0.37139002  1
  In  In47  1  0.34066906  0.82443027  0.88031035  1
  In  In48  1  0.66512631  0.17762828  0.37802294  1
  In  In49  1  0.67824814  0.15156553  0.88023172  1
  In  In50  1  0.66132501  0.50995295  0.38141429  1
  In  In51  1  0.65815246  0.50459389  0.86552846  1
  In  In52  1  0.68293317  0.83518052  0.37581712  1
  In  In53  1  0.65202344  0.82836797  0.86292887  1
  In  In54  1  0.16460089  0.00142248  0.11902128  1
  In  In55  1  0.15434797  -0.00093104  0.62961368  1
  In  In56  1  0.17363917  0.34101132  0.12097065  1
  In  In57  1  0.18214816  0.33366589  0.61778030  1
  In  In58  1  0.15508048  0.66271039  0.11088201  1
  In  In59  1  0.18030567  0.65663208  0.63412797  1
  In  In60  1  0.49002434  -0.00863631  0.11338250  1
  In  In61  1  0.50414282  0.01074777  0.63407857  1
  In  In62  1  0.49459261  0.31733558  0.12108859  1
  In  In63  1  0.47733361  0.34246592  0.62710182  1
  In  In64  1  0.50378344  0.67819009  0.12469992  1
  In  In65  1  0.51490630  0.65542654  0.63308718  1
  In  In66  1  0.83457331  0.01094243  0.12460500  1
  In  In67  1  0.83750393  -0.00183860  0.62293082  1
  In  In68  1  0.84397971  0.32872456  0.12696661  1
  In  In69  1  0.84413029  0.33933083  0.61634436  1
  In  In70  1  0.83500869  0.66793363  0.13414075  1
  In  In71  1  0.82263812  0.65682227  0.62122149  1
  In  In72  1  0.66872529  -0.00157604  0.24718834  1
  In  In73  1  0.83883688  0.49386507  0.00357429  1
  In  In74  1  0.83426935  0.83727593  -0.00498144  1
  In  In75  1  0.32880775  0.66945939  0.24890140  1
  In  In76  1  0.66104729  0.33832257  0.25675086  1
  In  In77  1  0.00409694  0.33383855  0.25121292  1
  In  In78  1  0.50417957  0.83086144  0.51299627  1
  In  In79  1  0.66608607  0.33401230  0.74550589  1
  In  In80  1  0.49731375  0.50205254  -0.00971003  1
  In  In81  1  0.00056356  0.66829961  0.75139123  1
  In  In82  1  0.16077702  0.82992754  0.50256885  1
  In  In83  1  0.33403617  -0.00022141  0.75868051  1
  In  In84  1  0.50077983  0.17099314  0.50443880  1
  In  In85  1  0.00239447  0.33182515  0.74318322  1
  Cu  Cu86  1  0.49743760  0.49938966  0.25635463  1
  Cu  Cu87  1  0.16583281  0.16578802  0.24464105  1
  Cu  Cu88  1  0.49427975  0.50976668  0.74599739  1
  Cu  Cu89  1  0.66520568  -0.00514725  -0.00318136  1
  Cu  Cu90  1  0.32915882  0.00325907  0.49345334  1
  Cu  Cu91  1  0.50354321  0.16740979  0.75455990  1
  Cu  Cu92  1  0.82891734  0.83722607  0.75036603  1
  Cu  Cu93  1  0.33432576  0.65435113  0.50421851  1
  Cu  Cu94  1  0.00036959  0.32844891  0.00064532  1
  Cu  Cu95  1  -0.00013222  0.00109576  0.49873827  1
  Cu  Cu96  1  0.33337448  0.66620216  -0.00071588  1
  Cu  Cu97  1  0.67051437  0.66864010  0.50160812  1
  Cu  Cu98  1  0.00463126  0.33055621  0.50196937  1
  Cu  Cu99  1  0.50217757  0.83402347  0.24359550  1
  Cu  Cu100  1  0.83284851  0.16600920  0.24841750  1
  Cu  Cu101  1  0.66618886  0.32091905  -0.00332817  1
  Cu  Cu102  1  0.84284070  0.83020571  0.25461537  1
  Cu  Cu103  1  0.66465578  0.66835357  -0.00726608  1
  Cu  Cu104  1  0.84478409  0.16045514  0.74834069  1
  Cu  Cu105  1  0.16599864  0.50267568  0.25098810  1
  Cu  Cu106  1  0.66745916  0.33365312  0.50462505  1
  Cu  Cu107  1  0.48161193  0.16219174  0.24396482  1
  Cu  Cu108  1  0.83663891  0.51389115  0.25834366  1
  Cu  Cu109  1  -0.00504446  0.67299461  0.50163915  1
  Cu  Cu110  1  0.16418744  0.83562185  0.75696597  1
  Cu  Cu111  1  0.16798247  0.83864259  0.24215024  1
  Cu  Cu112  1  0.33370696  0.00428560  -0.00466631  1
  Cu  Cu113  1  0.67799567  0.00052071  0.50463535  1
  Cu  Cu114  1  0.33080944  0.33389138  -0.00329810  1
  Se  Se115  1  0.09445555  0.09204935  0.04850972  1
  Se  Se116  1  0.08805342  0.07925009  0.55146748  1
  Se  Se117  1  0.08061907  0.41557301  0.05363944  1
  Se  Se118  1  0.08399170  0.41383192  0.55774472  1
  Se  Se119  1  0.08995061  0.76273228  0.04670449  1
  Se  Se120  1  0.07772149  0.74159061  0.56903544  1
  Se  Se121  1  0.41661208  0.08780427  0.05080343  1
  Se  Se122  1  0.40944850  0.07575625  0.55989388  1
  Se  Se123  1  0.41101341  0.41591372  0.05745112  1
  Se  Se124  1  0.41521527  0.41360570  0.54496535  1
  Se  Se125  1  0.42218434  0.74714015  0.04995738  1
  Se  Se126  1  0.40732866  0.74083026  0.56443967  1
  Se  Se127  1  0.74684961  0.07834912  0.05173332  1
  Se  Se128  1  0.75781171  0.08880797  0.55508996  1
  Se  Se129  1  0.74008650  0.40325264  0.06008527  1
  Se  Se130  1  0.75253642  0.41973951  0.55347010  1
  Se  Se131  1  0.74571598  0.74242619  0.05695061  1
  Se  Se132  1  0.75209002  0.75384680  0.55431180  1
  Se  Se133  1  0.24764518  0.25213179  0.05178866  1
  Se  Se134  1  0.25374514  0.24327009  0.54777355  1
  Se  Se135  1  0.25081070  0.58066262  0.05135103  1
  Se  Se136  1  0.24491216  0.57714011  0.55540966  1
  Se  Se137  1  0.25328278  0.92017302  0.05141779  1
  Se  Se138  1  0.25534912  0.92195039  0.55862748  1
  Se  Se139  1  0.57665114  0.24360279  0.04829992  1
  Se  Se140  1  0.58898550  0.25799595  0.56888081  1
  Se  Se141  1  0.59126262  0.58409392  0.05632889  1
  Se  Se142  1  0.58482635  0.58385914  0.55158345  1
  Se  Se143  1  0.58248870  0.91034713  0.05014293  1
  Se  Se144  1  0.59371019  0.92724657  0.56577419  1
  Se  Se145  1  0.91166167  0.24824085  0.05152746  1
  Se  Se146  1  0.91750904  0.24614547  0.55095986  1
  Se  Se147  1  0.92204659  0.59132185  0.06035286  1
  Se  Se148  1  0.91508894  0.58403141  0.55397631  1
  Se  Se149  1  0.91986538  0.92095432  0.06094842  1
  Se  Se150  1  0.92004457  0.91467441  0.55210620  1
  Se  Se151  1  0.08291755  0.24492056  0.44647215  1
  Se  Se152  1  0.08715464  0.25005161  0.94663921  1
  Se  Se153  1  0.08216969  0.58922212  0.45215558  1
  Se  Se154  1  0.08105434  0.58137093  0.95625270  1
  Se  Se155  1  0.08064661  0.92049258  0.43669938  1
  Se  Se156  1  0.08066362  0.91231629  0.95690448  1
  Se  Se157  1  0.41059144  0.24856023  0.43762447  1
  Se  Se158  1  0.41617748  0.24995347  0.94673429  1
  Se  Se159  1  0.42337328  0.57932537  0.44989844  1
  Se  Se160  1  0.40665053  0.58814957  0.93147765  1
  Se  Se161  1  0.41328923  0.91679196  0.44345601  1
  Se  Se162  1  0.41738783  0.91521798  0.94779901  1
  Se  Se163  1  0.74813462  0.24644271  0.45236072  1
  Se  Se164  1  0.75645088  0.24292067  0.94664285  1
  Se  Se165  1  0.75388529  0.58560095  0.44637642  1
  Se  Se166  1  0.74646298  0.58272060  0.94001501  1
  Se  Se167  1  0.75537984  0.91262047  0.45156706  1
  Se  Se168  1  0.74227265  0.91851377  0.93158044  1
  Se  Se169  1  0.24426810  0.08181465  0.43990378  1
  Se  Se170  1  0.24738395  0.08822165  0.94685533  1
  Se  Se171  1  0.23146031  0.43143212  0.44685157  1
  Se  Se172  1  0.24984751  0.41680523  0.94108375  1
  Se  Se173  1  0.25870585  0.74063186  0.44473713  1
  Se  Se174  1  0.24973382  0.75488509  0.95149093  1
  Se  Se175  1  0.59104615  0.07435855  0.44446071  1
  Se  Se176  1  0.58202421  0.08205763  0.94661330  1
  Se  Se177  1  0.58760500  0.41282433  0.44486040  1
  Se  Se178  1  0.59169035  0.40590530  0.93703045  1
  Se  Se179  1  0.58777356  0.74775643  0.44124841  1
  Se  Se180  1  0.57993845  0.74907536  0.94035787  1
  Se  Se181  1  0.91607650  0.08424048  0.44420876  1
  Se  Se182  1  0.90765506  0.07898130  0.95217758  1
  Se  Se183  1  0.91943062  0.41754193  0.45279296  1
  Se  Se184  1  0.92364065  0.40767094  0.93652353  1
  Se  Se185  1  0.91910511  0.75840885  0.44490154  1
  Se  Se186  1  0.92351209  0.73711164  0.94422540  1
  Se  Se187  1  0.24276269  0.25161287  0.30157285  1
  Se  Se188  1  0.25902919  0.25981260  0.79744580  1
  Se  Se189  1  0.24868371  0.57877224  0.31406466  1
  Se  Se190  1  0.24194329  0.59796935  0.80357996  1
  Se  Se191  1  0.25305562  0.91997322  0.29526473  1
  Se  Se192  1  0.24164677  0.91495399  0.82025767  1
  Se  Se193  1  0.56559357  0.23884263  0.30549437  1
  Se  Se194  1  0.58478012  0.24800416  0.81481279  1
  Se  Se195  1  0.58522152  0.58340603  0.30285075  1
  Se  Se196  1  0.58049445  0.58990802  0.79865349  1
  Se  Se197  1  0.57750408  0.91174259  0.31140437  1
  Se  Se198  1  0.58574497  0.92836758  0.79945903  1
  Se  Se199  1  0.90785131  0.24859099  0.31072098  1
  Se  Se200  1  0.92012738  0.24194884  0.80960147  1
  Se  Se201  1  0.92639296  0.59130625  0.30916887  1
  Se  Se202  1  0.90986856  0.57406856  0.80920229  1
  Se  Se203  1  0.92185839  0.92228505  0.30217940  1
  Se  Se204  1  0.91934174  0.91185209  0.80389061  1
  Se  Se205  1  0.07902883  0.08420266  0.29695597  1
  Se  Se206  1  0.08503673  0.08638392  0.80947583  1
  Se  Se207  1  0.08745970  0.42383579  0.31409748  1
  Se  Se208  1  0.08948843  0.41921297  0.80791761  1
  Se  Se209  1  0.09179019  0.75181229  0.29902668  1
  Se  Se210  1  0.08615710  0.75283333  0.81742451  1
  Se  Se211  1  0.40492166  0.07514071  0.29845948  1
  Se  Se212  1  0.42144437  0.09320076  0.81777938  1
  Se  Se213  1  0.41109389  0.41592736  0.30457459  1
  Se  Se214  1  0.41490673  0.42198054  0.79864912  1
  Se  Se215  1  0.42268155  0.75851504  0.30990664  1
  Se  Se216  1  0.40461568  0.75158926  0.79816659  1
  Se  Se217  1  0.75252938  0.08903258  0.31156275  1
  Se  Se218  1  0.75471930  0.08274158  0.80066136  1
  Se  Se219  1  0.75963803  0.42340725  0.31303423  1
  Se  Se220  1  0.75777904  0.42449284  0.80423494  1
  Se  Se221  1  0.75395055  0.74931712  0.30447654  1
  Se  Se222  1  0.74665835  0.74917665  0.79983084  1
  Se  Se223  1  0.24843693  0.08152720  0.19108299  1
  Se  Se224  1  0.24639699  0.08486939  0.69364356  1
  Se  Se225  1  0.24775846  0.41522553  0.20063121  1
  Se  Se226  1  0.25596677  0.40909094  0.69435812  1
  Se  Se227  1  0.24616508  0.75484535  0.18196573  1
  Se  Se228  1  0.24538964  0.75260545  0.70301230  1
  Se  Se229  1  0.57314022  0.08568851  0.18958129  1
  Se  Se230  1  0.58970254  0.08489109  0.70512785  1
  Se  Se231  1  0.57252169  0.42159545  0.18822779  1
  Se  Se232  1  0.57711110  0.42616423  0.68753234  1
  Se  Se233  1  0.58892033  0.74689457  0.19953646  1
  Se  Se234  1  0.57077790  0.75964673  0.69717228  1
  Se  Se235  1  0.91870588  0.08723648  0.19544141  1
  Se  Se236  1  0.92479186  0.07753774  0.69236856  1
  Se  Se237  1  0.90981420  0.42984114  0.19529581  1
  Se  Se238  1  0.90777069  0.42866966  0.69333601  1
  Se  Se239  1  0.92439139  0.74881778  0.19729248  1
  Se  Se240  1  0.91037282  0.75606382  0.68918202  1
  Se  Se241  1  0.08432352  0.24547533  0.18444545  1
  Se  Se242  1  0.09156209  0.24328740  0.68429052  1
  Se  Se243  1  0.08942023  0.58873225  0.19534289  1
  Se  Se244  1  0.08990684  0.57058449  0.69796638  1
  Se  Se245  1  0.08185636  0.92103647  0.19126477  1
  Se  Se246  1  0.08146721  0.92084186  0.70614474  1
  Se  Se247  1  0.40530603  0.25307923  0.19347287  1
  Se  Se248  1  0.41945739  0.24697857  0.69992243  1
  Se  Se249  1  0.42280955  0.57881334  0.18959466  1
  Se  Se250  1  0.40821283  0.58336458  0.68775650  1
  Se  Se251  1  0.41779947  0.91601573  0.19226474  1
  Se  Se252  1  0.42424060  0.91256868  0.69576936  1
  Se  Se253  1  0.74773496  0.24592746  0.19228334  1
  Se  Se254  1  0.76590316  0.24583902  0.69016170  1
  Se  Se255  1  0.74820299  0.58959848  0.20318678  1
  Se  Se256  1  0.74170689  0.59257649  0.69936231  1
  Se  Se257  1  0.76109229  0.90587340  0.19001967  1
  Se  Se258  1  0.75056812  0.92149890  0.69375547  1
