# generated using pymatgen
data_In86Cu29Se144
_symmetry_space_group_name_H-M   'P 1'
_cell_length_a   17.59040657
_cell_length_b   17.59070095
_cell_length_c   23.45457401
_cell_angle_alpha   90.00927575
_cell_angle_beta   89.99405312
_cell_angle_gamma   90.01358620
_symmetry_Int_Tables_number   1
_chemical_formula_structural   In86Cu29Se144
_chemical_formula_sum   'In86 Cu29 Se144'
_cell_volume   7257.49177288
_cell_formula_units_Z   1
loop_
 _symmetry_equiv_pos_site_id
 _symmetry_equiv_pos_as_xyz
  1  'x, y, z'
loop_
 _atom_site_type_symbol
 _atom_site_label
 _atom_site_symmetry_multiplicity
 _atom_site_fract_x
 _atom_site_fract_y
 _atom_site_fract_z
 _atom_site_occupancy
  In  In0  1  0.01636093  0.15863728  0.12535728  1
  In  In1  1  -0.01233892  0.16604737  0.62856064  1
  In  In2  1  0.00055852  0.49941239  0.12380409  1
  In  In3  1  -0.00159483  0.51555804  0.62722299  1
  In  In4  1  -0.00539121  0.83736764  0.13032228  1
  In  In5  1  0.00460781  0.83106975  0.63465498  1
  In  In6  1  0.32099997  0.18590052  0.13901880  1
  In  In7  1  0.33288998  0.16747730  0.62250976  1
  In  In8  1  0.33623437  0.49579333  0.11686069  1
  In  In9  1  0.34040660  0.50946565  0.62634855  1
  In  In10  1  0.34827170  0.82104658  0.13744518  1
  In  In11  1  0.34029181  0.81597380  0.62490443  1
  In  In12  1  0.65308951  0.17224679  0.14213093  1
  In  In13  1  0.66828642  0.16377614  0.63252142  1
  In  In14  1  0.65359788  0.49430548  0.11501549  1
  In  In15  1  0.66632780  0.49759955  0.62782637  1
  In  In16  1  0.65993312  0.84430655  0.12727138  1
  In  In17  1  0.65619602  0.84113823  0.62581228  1
  In  In18  1  0.17149568  -0.00149811  0.36302209  1
  In  In19  1  0.15954941  0.00904406  0.88339258  1
  In  In20  1  0.16708202  0.33613477  0.36125676  1
  In  In21  1  0.16678507  0.34146098  0.89098496  1
  In  In22  1  0.17041647  0.66832325  0.36465427  1
  In  In23  1  0.16055223  0.65167069  0.85978399  1
  In  In24  1  0.47979499  -0.02586558  0.34147141  1
  In  In25  1  0.49883885  -0.00928442  0.87920712  1
  In  In26  1  0.50968817  0.34573568  0.36159699  1
  In  In27  1  0.50980975  0.33193596  0.87565633  1
  In  In28  1  0.48154470  0.67005492  0.39583135  1
  In  In29  1  0.50427437  0.66683429  0.87346513  1
  In  In30  1  0.83736328  0.00267055  0.36858161  1
  In  In31  1  0.82729560  -0.00865621  0.87136911  1
  In  In32  1  0.83449153  0.34009957  0.36753397  1
  In  In33  1  0.82956580  0.34653247  0.88122274  1
  In  In34  1  0.83109354  0.65254175  0.37840933  1
  In  In35  1  0.82532989  0.66002319  0.87023179  1
  In  In36  1  -0.00316961  0.16889683  0.36334869  1
  In  In37  1  0.01107604  0.16304859  0.88334037  1
  In  In38  1  -0.00404894  0.49605076  0.36446483  1
  In  In39  1  0.00002595  0.50074947  0.88035067  1
  In  In40  1  0.00896867  0.83765031  0.36576471  1
  In  In41  1  -0.00411088  0.82755550  0.87196855  1
  In  In42  1  0.34910920  0.16940620  0.35278459  1
  In  In43  1  0.32385393  0.16722043  0.88600798  1
  In  In44  1  0.34785693  0.51175619  0.36363484  1
  In  In45  1  0.33136117  0.50761336  0.87768829  1
  In  In46  1  0.34010927  0.82441309  0.36557803  1
  In  In47  1  0.34904845  0.82550607  0.88529801  1
  In  In48  1  0.65463297  0.16385973  0.35856477  1
  In  In49  1  0.66661033  0.16280712  0.86955739  1
  In  In50  1  0.66563950  0.49604164  0.38044958  1
  In  In51  1  0.66577796  0.50442331  0.87372317  1
  In  In52  1  0.64277392  0.82975790  0.36952195  1
  In  In53  1  0.65784853  0.82366668  0.86674975  1
  In  In54  1  0.15780111  0.01003763  0.12457001  1
  In  In55  1  0.17370064  -0.01499952  0.62872583  1
  In  In56  1  0.17151192  0.33155828  0.11907983  1
  In  In57  1  0.17849999  0.33458103  0.62552172  1
  In  In58  1  0.17893491  0.65363404  0.12834590  1
  In  In59  1  0.16880874  0.65862942  0.64222059  1
  In  In60  1  0.50389173  -0.00635632  0.13526724  1
  In  In61  1  0.51054820  -0.00492628  0.62368493  1
  In  In62  1  0.48257441  0.35385220  0.14361388  1
  In  In63  1  0.50067821  0.35887813  0.62709791  1
  In  In64  1  0.49843149  0.66320784  0.11914422  1
  In  In65  1  0.49631785  0.66760833  0.62727079  1
  In  In66  1  0.83557364  0.00644078  0.12750612  1
  In  In67  1  0.83518482  -0.00357457  0.63199458  1
  In  In68  1  0.82294229  0.34420508  0.12937079  1
  In  In69  1  0.81596388  0.33449473  0.62780931  1
  In  In70  1  0.84486858  0.66414493  0.12498462  1
  In  In71  1  0.84441635  0.65532711  0.62803657  1
  In  In72  1  0.33459185  0.34629571  0.75707533  1
  In  In73  1  0.49085529  0.17689786  0.01315299  1
  In  In74  1  0.82779410  0.82493854  0.49970534  1
  In  In75  1  0.16150914  0.15973415  0.47951216  1
  In  In76  1  0.32799499  -0.00149693  0.76460678  1
  In  In77  1  0.83625231  0.16481122  0.00563001  1
  In  In78  1  -0.00288038  0.33047296  0.76548600  1
  In  In79  1  0.50640017  0.16859157  0.48979515  1
  In  In80  1  0.82613054  0.83176163  0.00864734  1
  In  In81  1  0.17103920  0.50585130  0.50508917  1
  In  In82  1  0.16875146  0.83040526  0.00538397  1
  In  In83  1  0.66444287  0.66688661  0.25331614  1
  In  In84  1  0.82072789  0.17304436  0.49627291  1
  In  In85  1  0.17135175  0.82848470  0.49086847  1
  Cu  Cu86  1  0.00281177  0.33415482  0.00416150  1
  Cu  Cu87  1  0.66193339  0.65624548  0.50453225  1
  Cu  Cu88  1  0.33599050  0.66593460  0.00090264  1
  Cu  Cu89  1  0.66094845  0.66598096  -0.00771498  1
  Cu  Cu90  1  -0.00951226  0.34885663  0.49525749  1
  Cu  Cu91  1  0.16758325  0.49731244  0.24092399  1
  Cu  Cu92  1  0.16477716  0.83026733  0.24264863  1
  Cu  Cu93  1  0.34837662  -0.00922857  0.48797983  1
  Cu  Cu94  1  0.83383058  0.15406310  0.75305938  1
  Cu  Cu95  1  0.83241566  0.49618756  0.75314049  1
  Cu  Cu96  1  0.83269718  0.50347499  0.24998447  1
  Cu  Cu97  1  0.15812632  0.16603687  0.75740261  1
  Cu  Cu98  1  0.83886965  0.83260226  0.25081781  1
  Cu  Cu99  1  0.65850894  0.00093133  0.00377534  1
  Cu  Cu100  1  0.66151556  -0.00608991  0.49452749  1
  Cu  Cu101  1  0.65960780  0.34016272  0.50157617  1
  Cu  Cu102  1  0.49995720  0.83540239  0.75167507  1
  Cu  Cu103  1  0.50047761  0.17236162  0.74970440  1
  Cu  Cu104  1  0.84219735  0.17542831  0.24389048  1
  Cu  Cu105  1  0.00250369  0.66099843  -0.00027968  1
  Cu  Cu106  1  0.49913006  0.50633487  0.24659008  1
  Cu  Cu107  1  0.16407340  0.16832208  0.24685408  1
  Cu  Cu108  1  0.33021195  0.33582118  0.49327252  1
  Cu  Cu109  1  0.83242552  0.83347470  0.74821578  1
  Cu  Cu110  1  0.00455784  0.66802442  0.50197151  1
  Cu  Cu111  1  0.66660697  0.34201768  0.00223139  1
  Cu  Cu112  1  0.00090942  0.00614982  0.50671113  1
  Cu  Cu113  1  0.33128354  0.00071415  0.00925668  1
  Cu  Cu114  1  0.16068909  0.83552798  0.75466033  1
  Se  Se115  1  0.08320096  0.08158550  0.04663826  1
  Se  Se116  1  0.08683840  0.08395350  0.56276161  1
  Se  Se117  1  0.08586148  0.41949012  0.05467879  1
  Se  Se118  1  0.07663832  0.41028912  0.56159339  1
  Se  Se119  1  0.07637373  0.74160803  0.06407946  1
  Se  Se120  1  0.08547135  0.74536833  0.56143801  1
  Se  Se121  1  0.40985124  0.07916822  0.07106818  1
  Se  Se122  1  0.41329791  0.07819090  0.55337142  1
  Se  Se123  1  0.42708067  0.41263524  0.05445688  1
  Se  Se124  1  0.40550339  0.41589609  0.55455698  1
  Se  Se125  1  0.41621499  0.75281507  0.05346491  1
  Se  Se126  1  0.43035450  0.75718782  0.55264556  1
  Se  Se127  1  0.73551347  0.08330314  0.06248316  1
  Se  Se128  1  0.74193568  0.07079434  0.55686440  1
  Se  Se129  1  0.75492959  0.42451648  0.05133128  1
  Se  Se130  1  0.74963727  0.41815015  0.55289378  1
  Se  Se131  1  0.73553473  0.73748860  0.06421004  1
  Se  Se132  1  0.74216842  0.73859717  0.56424815  1
  Se  Se133  1  0.25667814  0.24714888  0.05364347  1
  Se  Se134  1  0.25056066  0.24873125  0.54663377  1
  Se  Se135  1  0.25016717  0.58030639  0.04936757  1
  Se  Se136  1  0.25709403  0.60279295  0.56003280  1
  Se  Se137  1  0.25760096  0.91443391  0.06959811  1
  Se  Se138  1  0.26242224  0.92046025  0.55214471  1
  Se  Se139  1  0.59084432  0.26254978  0.06486500  1
  Se  Se140  1  0.58633593  0.25295799  0.56206966  1
  Se  Se141  1  0.57743660  0.58243792  0.04693989  1
  Se  Se142  1  0.57881607  0.57764347  0.56078313  1
  Se  Se143  1  0.57510122  0.91620526  0.05450969  1
  Se  Se144  1  0.57744467  0.91213048  0.54745827  1
  Se  Se145  1  0.92111030  0.25754592  0.06603094  1
  Se  Se146  1  0.91854286  0.25942972  0.55555302  1
  Se  Se147  1  0.91584040  0.57980973  0.05191861  1
  Se  Se148  1  0.91851126  0.58167615  0.54869897  1
  Se  Se149  1  0.92317941  0.92673312  0.05522739  1
  Se  Se150  1  0.92333367  0.91714870  0.55840422  1
  Se  Se151  1  0.06949201  0.26499984  0.43656449  1
  Se  Se152  1  0.08584582  0.24863594  0.95264040  1
  Se  Se153  1  0.08136374  0.58845204  0.43805746  1
  Se  Se154  1  0.08886484  0.58553540  0.94360959  1
  Se  Se155  1  0.07828142  0.92988911  0.44232192  1
  Se  Se156  1  0.07379833  0.91444102  0.94508001  1
  Se  Se157  1  0.41114732  0.25806052  0.43332373  1
  Se  Se158  1  0.40864675  0.26279938  0.94444092  1
  Se  Se159  1  0.41524049  0.56406167  0.45242036  1
  Se  Se160  1  0.42067355  0.58733701  0.94459151  1
  Se  Se161  1  0.42676747  0.90900211  0.43229475  1
  Se  Se162  1  0.41462198  0.92145357  0.95351325  1
  Se  Se163  1  0.73168838  0.25943751  0.43467565  1
  Se  Se164  1  0.74147473  0.25197447  0.94537667  1
  Se  Se165  1  0.74865095  0.57867694  0.45017961  1
  Se  Se166  1  0.75123627  0.58317576  0.94648877  1
  Se  Se167  1  0.74706584  0.91787298  0.43598179  1
  Se  Se168  1  0.73674730  0.91881386  0.94483323  1
  Se  Se169  1  0.26805443  0.07561826  0.43088093  1
  Se  Se170  1  0.24764562  0.08047220  0.95434267  1
  Se  Se171  1  0.24926480  0.41671580  0.43551081  1
  Se  Se172  1  0.25774100  0.42256891  0.94919909  1
  Se  Se173  1  0.26306179  0.73463280  0.43991936  1
  Se  Se174  1  0.24951369  0.73946830  0.94039026  1
  Se  Se175  1  0.58467644  0.07015750  0.43072537  1
  Se  Se176  1  0.58028432  0.08704297  0.94642539  1
  Se  Se177  1  0.57307538  0.41739147  0.44614728  1
  Se  Se178  1  0.58491583  0.41988356  0.94465888  1
  Se  Se179  1  0.58793600  0.74527548  0.44919415  1
  Se  Se180  1  0.57963993  0.75725982  0.94581554  1
  Se  Se181  1  0.92323601  0.08417496  0.44434933  1
  Se  Se182  1  0.91619488  0.07234769  0.94212244  1
  Se  Se183  1  0.90933661  0.42698332  0.43939145  1
  Se  Se184  1  0.91953811  0.41642173  0.94983120  1
  Se  Se185  1  0.92814713  0.74738745  0.43846144  1
  Se  Se186  1  0.91658348  0.74322103  0.94595260  1
  Se  Se187  1  0.25203400  0.25208879  0.29637696  1
  Se  Se188  1  0.24190505  0.24840861  0.81164081  1
  Se  Se189  1  0.24884622  0.57973599  0.29882709  1
  Se  Se190  1  0.26816316  0.59177991  0.80011526  1
  Se  Se191  1  0.25027104  0.90627341  0.30129001  1
  Se  Se192  1  0.23998816  0.90528663  0.82251315  1
  Se  Se193  1  0.57125458  0.24628630  0.29409721  1
  Se  Se194  1  0.58747557  0.25075753  0.80326067  1
  Se  Se195  1  0.57422013  0.58123968  0.31437795  1
  Se  Se196  1  0.60460753  0.60465881  0.80685298  1
  Se  Se197  1  0.60832631  0.93339488  0.29689493  1
  Se  Se198  1  0.58164591  0.92209975  0.80403121  1
  Se  Se199  1  0.92137080  0.26103294  0.29921992  1
  Se  Se200  1  0.90426891  0.23635161  0.81978542  1
  Se  Se201  1  0.91542566  0.58931625  0.30129695  1
  Se  Se202  1  0.91664557  0.57700469  0.80787056  1
  Se  Se203  1  0.92122039  0.92017740  0.30165504  1
  Se  Se204  1  0.91532295  0.91346109  0.80453663  1
  Se  Se205  1  0.08258098  0.08253085  0.30071505  1
  Se  Se206  1  0.07722450  0.07839706  0.80638119  1
  Se  Se207  1  0.08104445  0.41729118  0.29548950  1
  Se  Se208  1  0.09595337  0.42218254  0.81120481  1
  Se  Se209  1  0.08207401  0.74728279  0.29846808  1
  Se  Se210  1  0.07692897  0.74690457  0.80194290  1
  Se  Se211  1  0.41253349  0.07693791  0.28310190  1
  Se  Se212  1  0.42183085  0.09663976  0.81423103  1
  Se  Se213  1  0.41333106  0.41603574  0.29495444  1
  Se  Se214  1  0.43323282  0.42953344  0.81012317  1
  Se  Se215  1  0.42911864  0.73677667  0.30676270  1
  Se  Se216  1  0.41779465  0.75271003  0.80571864  1
  Se  Se217  1  0.76282205  0.09451185  0.30330240  1
  Se  Se218  1  0.74430665  0.07383700  0.80361450  1
  Se  Se219  1  0.74568656  0.42335244  0.30356767  1
  Se  Se220  1  0.74794399  0.41427102  0.80587340  1
  Se  Se221  1  0.75820400  0.75725410  0.31439578  1
  Se  Se222  1  0.75135357  0.75001405  0.80226407  1
  Se  Se223  1  0.24676942  0.08170246  0.19568815  1
  Se  Se224  1  0.24445273  0.09133363  0.69691500  1
  Se  Se225  1  0.25358196  0.41550220  0.18928382  1
  Se  Se226  1  0.24103000  0.43043517  0.69475384  1
  Se  Se227  1  0.25158407  0.74313444  0.19774865  1
  Se  Se228  1  0.24685586  0.75886894  0.69862115  1
  Se  Se229  1  0.60950035  0.05490426  0.19856521  1
  Se  Se230  1  0.57824454  0.08300959  0.69670773  1
  Se  Se231  1  0.59029567  0.42333903  0.19996322  1
  Se  Se232  1  0.59953930  0.40309003  0.69823195  1
  Se  Se233  1  0.57517913  0.75492893  0.19278219  1
  Se  Se234  1  0.58135873  0.75364138  0.69528917  1
  Se  Se235  1  0.92231939  0.08644337  0.19353148  1
  Se  Se236  1  0.92159025  0.07660010  0.69984062  1
  Se  Se237  1  0.91516263  0.42061474  0.19540521  1
  Se  Se238  1  0.91422373  0.41408362  0.69306383  1
  Se  Se239  1  0.91922197  0.74683238  0.19755783  1
  Se  Se240  1  0.91620120  0.74802784  0.69655077  1
  Se  Se241  1  0.08515843  0.25441962  0.19195465  1
  Se  Se242  1  0.08698106  0.24811957  0.69183341  1
  Se  Se243  1  0.08123525  0.58427738  0.19375803  1
  Se  Se244  1  0.07761422  0.58038700  0.70409300  1
  Se  Se245  1  0.08285383  0.91904409  0.19437081  1
  Se  Se246  1  0.08274688  0.92265697  0.70055671  1
  Se  Se247  1  0.44097989  0.23124835  0.19417421  1
  Se  Se248  1  0.41827086  0.25002644  0.69046981  1
  Se  Se249  1  0.41529164  0.58277246  0.18847867  1
  Se  Se250  1  0.41446079  0.58824992  0.69909722  1
  Se  Se251  1  0.41650134  0.91659416  0.20410529  1
  Se  Se252  1  0.41469487  0.91831252  0.69413457  1
  Se  Se253  1  0.74896820  0.25523104  0.19874692  1
  Se  Se254  1  0.75477310  0.24196933  0.70056331  1
  Se  Se255  1  0.74963216  0.57946187  0.18835726  1
  Se  Se256  1  0.75446393  0.57959609  0.69519474  1
  Se  Se257  1  0.76025593  0.91118493  0.19093304  1
  Se  Se258  1  0.74699513  0.91512143  0.69497807  1
