# generated using pymatgen
data_In86Cu29Se144
_symmetry_space_group_name_H-M   'P 1'
_cell_length_a   17.58139789
_cell_length_b   17.58590459
_cell_length_c   23.44131369
_cell_angle_alpha   90.00253760
_cell_angle_beta   90.00396242
_cell_angle_gamma   90.02140845
_symmetry_Int_Tables_number   1
_chemical_formula_structural   In86Cu29Se144
_chemical_formula_sum   'In86 Cu29 Se144'
_cell_volume   7247.69702365
_cell_formula_units_Z   1
loop_
 _symmetry_equiv_pos_site_id
 _symmetry_equiv_pos_as_xyz
  1  'x, y, z'
loop_
 _atom_site_type_symbol
 _atom_site_label
 _atom_site_symmetry_multiplicity
 _atom_site_fract_x
 _atom_site_fract_y
 _atom_site_fract_z
 _atom_site_occupancy
  In  In0  1  0.00184421  0.18475264  0.12302442  1
  In  In1  1  0.00338576  0.17405507  0.63129256  1
  In  In2  1  -0.00069597  0.50185643  0.12139637  1
  In  In3  1  0.00213235  0.50052708  0.62261086  1
  In  In4  1  0.00780666  0.81748236  0.12886942  1
  In  In5  1  0.00990741  0.81446212  0.62945411  1
  In  In6  1  0.33410747  0.16462123  0.13672453  1
  In  In7  1  0.35274047  0.15301332  0.64283529  1
  In  In8  1  0.32426968  0.49440241  0.11665187  1
  In  In9  1  0.32113298  0.50253509  0.62599934  1
  In  In10  1  0.34152970  0.83481132  0.11760694  1
  In  In11  1  0.33307649  0.82749512  0.60553239  1
  In  In12  1  0.66344136  0.15331252  0.12164853  1
  In  In13  1  0.65876177  0.18047041  0.62837479  1
  In  In14  1  0.67448056  0.51032169  0.12122594  1
  In  In15  1  0.66329983  0.48348101  0.62676521  1
  In  In16  1  0.65549443  0.84220111  0.13388001  1
  In  In17  1  0.65844332  0.84354129  0.62483987  1
  In  In18  1  0.17525815  -0.01713702  0.37895176  1
  In  In19  1  0.17842139  -0.01477361  0.87270499  1
  In  In20  1  0.17080702  0.34445836  0.37240758  1
  In  In21  1  0.17700103  0.34130686  0.86712390  1
  In  In22  1  0.15811697  0.67695684  0.37797323  1
  In  In23  1  0.16074814  0.67959980  0.88292801  1
  In  In24  1  0.49217102  -0.00435560  0.37411912  1
  In  In25  1  0.48563459  0.00772742  0.87120573  1
  In  In26  1  0.48484332  0.33846655  0.37591262  1
  In  In27  1  0.50383454  0.33484555  0.86540637  1
  In  In28  1  0.51043926  0.67134987  0.37145307  1
  In  In29  1  0.47799788  0.67231110  0.89906131  1
  In  In30  1  0.82681318  0.01060259  0.36960169  1
  In  In31  1  0.83648302  0.00895599  0.88127501  1
  In  In32  1  0.84838039  0.33229116  0.37395820  1
  In  In33  1  0.83673266  0.33767747  0.87234914  1
  In  In34  1  0.82529124  0.65964510  0.36803103  1
  In  In35  1  0.83742195  0.65013705  0.87851770  1
  In  In36  1  -0.01151648  0.17289567  0.37319002  1
  In  In37  1  -0.01630466  0.17437216  0.87566984  1
  In  In38  1  0.00158971  0.50136389  0.37294311  1
  In  In39  1  0.00231026  0.50083142  0.87427991  1
  In  In40  1  0.02228724  0.82292886  0.37199793  1
  In  In41  1  0.02857854  0.82917175  0.87619766  1
  In  In42  1  0.34029858  0.17284602  0.37491694  1
  In  In43  1  0.34583018  0.16389248  0.85536387  1
  In  In44  1  0.32888355  0.48638616  0.37500490  1
  In  In45  1  0.33497285  0.49642630  0.88641980  1
  In  In46  1  0.31533508  0.84503339  0.39153047  1
  In  In47  1  0.32599107  0.84411449  0.88235708  1
  In  In48  1  0.66386161  0.15181722  0.37287831  1
  In  In49  1  0.66761918  0.19057435  0.86546612  1
  In  In50  1  0.66602269  0.51599148  0.37328676  1
  In  In51  1  0.66881485  0.49445241  0.88246539  1
  In  In52  1  0.65635028  0.82933255  0.36714332  1
  In  In53  1  0.65896180  0.82110111  0.87877220  1
  In  In54  1  0.18246811  -0.00303473  0.12946814  1
  In  In55  1  0.18376684  -0.00695790  0.62471479  1
  In  In56  1  0.15434888  0.34129777  0.13098289  1
  In  In57  1  0.16061850  0.34023087  0.63199732  1
  In  In58  1  0.17003685  0.65454045  0.11196386  1
  In  In59  1  0.16935746  0.65431884  0.61223448  1
  In  In60  1  0.49987408  -0.00373208  0.12956410  1
  In  In61  1  0.47939046  -0.01257263  0.60696136  1
  In  In62  1  0.48548887  0.32684730  0.12544573  1
  In  In63  1  0.50856859  0.32500042  0.63821649  1
  In  In64  1  0.49991326  0.67686077  0.11913008  1
  In  In65  1  0.48487924  0.67747400  0.62134367  1
  In  In66  1  0.82124872  -0.00163451  0.12248261  1
  In  In67  1  0.83116159  0.00791477  0.62521580  1
  In  In68  1  0.84054855  0.34901885  0.11469420  1
  In  In69  1  0.82174689  0.34068244  0.63343802  1
  In  In70  1  0.84360839  0.65741149  0.13251167  1
  In  In71  1  0.85413924  0.66507629  0.62828381  1
  In  In72  1  0.00729269  0.00343961  0.74953303  1
  In  In73  1  0.83560931  0.82903321  0.01116271  1
  In  In74  1  0.00019595  -0.00040174  0.25435346  1
  In  In75  1  0.50549668  0.16825019  -0.01103825  1
  In  In76  1  0.16600668  0.16581155  -0.00210266  1
  In  In77  1  0.49569689  0.50367876  0.50207344  1
  In  In78  1  0.66719710  0.33482406  0.24474567  1
  In  In79  1  0.66800896  0.65460152  0.76220378  1
  In  In80  1  0.32779867  0.66595086  0.74942819  1
  In  In81  1  0.66227933  0.00586628  0.75182697  1
  In  In82  1  0.82829987  0.17252039  0.50322514  1
  In  In83  1  0.83213891  0.82871202  0.49961594  1
  In  In84  1  0.33006137  0.66993115  0.24793309  1
  In  In85  1  0.17208904  0.16548933  0.50494117  1
  Cu  Cu86  1  0.33088487  0.32974983  0.50364456  1
  Cu  Cu87  1  0.17021764  0.16895636  0.25472359  1
  Cu  Cu88  1  0.16394768  0.17079570  0.75001532  1
  Cu  Cu89  1  0.49720333  0.50307103  0.25166112  1
  Cu  Cu90  1  0.15936359  0.50502737  0.75031084  1
  Cu  Cu91  1  0.00299291  0.65882226  0.49873565  1
  Cu  Cu92  1  0.50043720  0.49553666  0.75868826  1
  Cu  Cu93  1  0.16136046  0.50034888  0.24479243  1
  Cu  Cu94  1  0.67358743  0.66220901  0.49827047  1
  Cu  Cu95  1  0.83113321  0.83238423  0.24732553  1
  Cu  Cu96  1  0.66602487  0.33618450  0.50487502  1
  Cu  Cu97  1  0.49467254  0.83777089  0.24875940  1
  Cu  Cu98  1  0.49808516  0.16383795  0.25148771  1
  Cu  Cu99  1  0.00642461  0.00027825  -0.00490773  1
  Cu  Cu100  1  0.65132718  -0.00200548  0.49490430  1
  Cu  Cu101  1  0.66773004  0.33839896  -0.00631780  1
  Cu  Cu102  1  -0.00162161  0.66270694  0.00110720  1
  Cu  Cu103  1  0.00324593  -0.00839415  0.50178190  1
  Cu  Cu104  1  0.83716319  0.49690350  0.75245324  1
  Cu  Cu105  1  0.33667868  0.00028247  -0.00042665  1
  Cu  Cu106  1  0.00515957  0.34395860  0.50008023  1
  Cu  Cu107  1  0.84697236  0.83536942  0.75248762  1
  Cu  Cu108  1  -0.00247204  0.34302231  -0.00142043  1
  Cu  Cu109  1  0.66136551  0.66514590  0.00417299  1
  Cu  Cu110  1  0.32653858  0.33437060  0.00083114  1
  Cu  Cu111  1  0.83281464  0.17055656  0.24784684  1
  Cu  Cu112  1  0.66493686  -0.00069864  0.00352127  1
  Cu  Cu113  1  0.84016193  0.49899671  0.24641433  1
  Cu  Cu114  1  0.49402655  0.82996691  0.74464733  1
  Se  Se115  1  0.08055536  0.07775245  0.06391783  1
  Se  Se116  1  0.07506674  0.07600040  0.56358247  1
  Se  Se117  1  0.08574452  0.42002397  0.05278603  1
  Se  Se118  1  0.09155218  0.42141781  0.55438482  1
  Se  Se119  1  0.08400844  0.74779471  0.05068582  1
  Se  Se120  1  0.08442849  0.74699783  0.54979326  1
  Se  Se121  1  0.41476343  0.08630241  0.05744467  1
  Se  Se122  1  0.41228236  0.09574349  0.55272827  1
  Se  Se123  1  0.41665583  0.41213716  0.05260690  1
  Se  Se124  1  0.41444801  0.40961791  0.56466591  1
  Se  Se125  1  0.41989512  0.75431310  0.04752557  1
  Se  Se126  1  0.42134393  0.74702317  0.53946829  1
  Se  Se127  1  0.75244551  0.08537473  0.04867533  1
  Se  Se128  1  0.73411701  0.07611523  0.55560956  1
  Se  Se129  1  0.74751732  0.42272988  0.04968830  1
  Se  Se130  1  0.75328710  0.41847357  0.55334876  1
  Se  Se131  1  0.74118033  0.74271600  0.06854448  1
  Se  Se132  1  0.74536237  0.74218059  0.56645390  1
  Se  Se133  1  0.25313186  0.25143458  0.06362178  1
  Se  Se134  1  0.25534842  0.25290983  0.56988657  1
  Se  Se135  1  0.26721082  0.59000967  0.04343328  1
  Se  Se136  1  0.26983102  0.58910464  0.54745709  1
  Se  Se137  1  0.25124728  0.91890153  0.05189807  1
  Se  Se138  1  0.24898220  0.91973726  0.54494336  1
  Se  Se139  1  0.59005747  0.25725947  0.05651526  1
  Se  Se140  1  0.57854086  0.25522860  0.55454487  1
  Se  Se141  1  0.57770811  0.58053198  0.05582934  1
  Se  Se142  1  0.59021753  0.59016216  0.56391666  1
  Se  Se143  1  0.58075048  0.91833230  0.05631298  1
  Se  Se144  1  0.57721371  0.90687926  0.54745531  1
  Se  Se145  1  0.91661332  0.25412358  0.04973232  1
  Se  Se146  1  0.92379578  0.26063502  0.55886565  1
  Se  Se147  1  0.91113277  0.58167347  0.05234376  1
  Se  Se148  1  0.91555386  0.58013092  0.55167448  1
  Se  Se149  1  0.93048166  0.92349509  0.06360991  1
  Se  Se150  1  0.92084868  0.91726732  0.56449999  1
  Se  Se151  1  0.07758511  0.25279727  0.44287344  1
  Se  Se152  1  0.07833992  0.25944339  0.93979712  1
  Se  Se153  1  0.08718833  0.57895932  0.44314281  1
  Se  Se154  1  0.08308575  0.58363114  0.94521256  1
  Se  Se155  1  0.08492100  0.91005597  0.44842064  1
  Se  Se156  1  0.09503933  0.91729796  0.94964805  1
  Se  Se157  1  0.41795211  0.25220320  0.44997707  1
  Se  Se158  1  0.40433431  0.25457704  0.93770561  1
  Se  Se159  1  0.41398458  0.58610689  0.43283811  1
  Se  Se160  1  0.39930838  0.58303598  0.96298899  1
  Se  Se161  1  0.42935247  0.90195440  0.44534017  1
  Se  Se162  1  0.42347793  0.92002824  0.94638393  1
  Se  Se163  1  0.74030286  0.25828756  0.43659153  1
  Se  Se164  1  0.75132103  0.25406028  0.94234427  1
  Se  Se165  1  0.75646090  0.57931442  0.44694439  1
  Se  Se166  1  0.74622836  0.58498781  0.94966028  1
  Se  Se167  1  0.74472839  0.92366723  0.44006778  1
  Se  Se168  1  0.74627044  0.91582469  0.94365404  1
  Se  Se169  1  0.25855427  0.07847714  0.44194139  1
  Se  Se170  1  0.26349115  0.08466050  0.93700654  1
  Se  Se171  1  0.24842744  0.41440299  0.45145426  1
  Se  Se172  1  0.24022709  0.41620494  0.94963841  1
  Se  Se173  1  0.25265856  0.73762856  0.44927430  1
  Se  Se174  1  0.26183783  0.74441939  0.94600052  1
  Se  Se175  1  0.57321964  0.08610908  0.44315960  1
  Se  Se176  1  0.59704699  0.07640970  0.93220564  1
  Se  Se177  1  0.58897677  0.41518155  0.43957840  1
  Se  Se178  1  0.57402034  0.41374966  0.94346666  1
  Se  Se179  1  0.59179575  0.74688215  0.44574729  1
  Se  Se180  1  0.57920580  0.75268083  0.95460444  1
  Se  Se181  1  0.92125578  0.07497911  0.44642881  1
  Se  Se182  1  0.91916574  0.08670281  0.95183833  1
  Se  Se183  1  0.91729863  0.42007654  0.44497144  1
  Se  Se184  1  0.91303768  0.42359122  0.94359781  1
  Se  Se185  1  0.92314198  0.74254228  0.43830576  1
  Se  Se186  1  0.92202236  0.74928406  0.94086246  1
  Se  Se187  1  0.25195490  0.25406929  0.30865274  1
  Se  Se188  1  0.25293816  0.25183657  0.79979180  1
  Se  Se189  1  0.24303856  0.57584647  0.30796914  1
  Se  Se190  1  0.24327786  0.57762145  0.81401540  1
  Se  Se191  1  0.25238588  0.90897774  0.30497775  1
  Se  Se192  1  0.26073319  0.91495983  0.79986178  1
  Se  Se193  1  0.57813426  0.24901196  0.30976493  1
  Se  Se194  1  0.55716115  0.22806171  0.80044481  1
  Se  Se195  1  0.58487726  0.58704406  0.29817169  1
  Se  Se196  1  0.56496620  0.58354786  0.82338631  1
  Se  Se197  1  0.58117850  0.92147391  0.30155874  1
  Se  Se198  1  0.57580827  0.90500960  0.80740586  1
  Se  Se199  1  0.91920840  0.25351867  0.29661065  1
  Se  Se200  1  0.91647038  0.25596360  0.80121299  1
  Se  Se201  1  0.91884876  0.58420890  0.30294173  1
  Se  Se202  1  0.91972365  0.58385548  0.80252506  1
  Se  Se203  1  0.90997964  0.90717307  0.31451744  1
  Se  Se204  1  0.91987766  0.91492383  0.81693150  1
  Se  Se205  1  0.09047435  0.08892929  0.31689271  1
  Se  Se206  1  0.09139805  0.09111852  0.81730345  1
  Se  Se207  1  0.08109163  0.41590790  0.30206540  1
  Se  Se208  1  0.08123922  0.41635713  0.80362401  1
  Se  Se209  1  0.08831227  0.74410236  0.29520232  1
  Se  Se210  1  0.09042632  0.74676785  0.79983155  1
  Se  Se211  1  0.41293675  0.08262454  0.30492089  1
  Se  Se212  1  0.41645820  0.07130743  0.78865754  1
  Se  Se213  1  0.41285178  0.41679738  0.29947748  1
  Se  Se214  1  0.40733845  0.41941965  0.80877732  1
  Se  Se215  1  0.41681685  0.75814738  0.31124857  1
  Se  Se216  1  0.42152712  0.75069372  0.81092359  1
  Se  Se217  1  0.74701939  0.08523502  0.29576016  1
  Se  Se218  1  0.75876411  0.09218173  0.80812174  1
  Se  Se219  1  0.75618633  0.42167836  0.30840136  1
  Se  Se220  1  0.74688448  0.42114325  0.80613812  1
  Se  Se221  1  0.74708005  0.74992802  0.30251190  1
  Se  Se222  1  0.76226445  0.75608770  0.81159779  1
  Se  Se223  1  0.25098922  0.08158270  0.20401677  1
  Se  Se224  1  0.24484693  0.08357529  0.69872307  1
  Se  Se225  1  0.25004693  0.41795025  0.19384794  1
  Se  Se226  1  0.24699816  0.42225792  0.69997872  1
  Se  Se227  1  0.24440269  0.75263746  0.18109963  1
  Se  Se228  1  0.24653609  0.75055597  0.68145734  1
  Se  Se229  1  0.58208135  0.08314900  0.19660308  1
  Se  Se230  1  0.57547661  0.07323392  0.67794008  1
  Se  Se231  1  0.57463915  0.42357409  0.18704433  1
  Se  Se232  1  0.58758681  0.41512536  0.70612122  1
  Se  Se233  1  0.57678131  0.74953340  0.19779150  1
  Se  Se234  1  0.58308618  0.74661156  0.69487052  1
  Se  Se235  1  0.91400818  0.08785415  0.18786259  1
  Se  Se236  1  0.90770413  0.09278555  0.69683067  1
  Se  Se237  1  0.92131447  0.41499774  0.19287954  1
  Se  Se238  1  0.91880791  0.41872375  0.69332188  1
  Se  Se239  1  0.91845031  0.74889865  0.19972088  1
  Se  Se240  1  0.92560062  0.74507799  0.70408333  1
  Se  Se241  1  0.08423344  0.24873093  0.20075827  1
  Se  Se242  1  0.07891421  0.25639348  0.70219771  1
  Se  Se243  1  0.08548144  0.58557146  0.18775119  1
  Se  Se244  1  0.08528936  0.58720437  0.68935388  1
  Se  Se245  1  0.08985793  0.91194809  0.19427756  1
  Se  Se246  1  0.09376507  0.90899724  0.69306434  1
  Se  Se247  1  0.41431670  0.25194795  0.20364161  1
  Se  Se248  1  0.40333006  0.26649735  0.70042344  1
  Se  Se249  1  0.41778637  0.57861091  0.18664816  1
  Se  Se250  1  0.42672612  0.57543275  0.69323204  1
  Se  Se251  1  0.40913221  0.91846572  0.19512243  1
  Se  Se252  1  0.41318727  0.90270446  0.68316426  1
  Se  Se253  1  0.75547593  0.24691153  0.18225125  1
  Se  Se254  1  0.75254919  0.24249306  0.69668002  1
  Se  Se255  1  0.75014698  0.58257330  0.19939791  1
  Se  Se256  1  0.75522552  0.57743798  0.69077654  1
  Se  Se257  1  0.74913938  0.92037590  0.19847872  1
  Se  Se258  1  0.76006229  0.90969197  0.69565467  1
