# generated using pymatgen
data_In86Cu29Se144
_symmetry_space_group_name_H-M   'P 1'
_cell_length_a   17.56209023
_cell_length_b   17.56133120
_cell_length_c   23.40688912
_cell_angle_alpha   89.98330762
_cell_angle_beta   89.96571631
_cell_angle_gamma   90.00206837
_symmetry_Int_Tables_number   1
_chemical_formula_structural   In86Cu29Se144
_chemical_formula_sum   'In86 Cu29 Se144'
_cell_volume   7219.00327947
_cell_formula_units_Z   1
loop_
 _symmetry_equiv_pos_site_id
 _symmetry_equiv_pos_as_xyz
  1  'x, y, z'
loop_
 _atom_site_type_symbol
 _atom_site_label
 _atom_site_symmetry_multiplicity
 _atom_site_fract_x
 _atom_site_fract_y
 _atom_site_fract_z
 _atom_site_occupancy
  In  In0  1  -0.01332313  0.17105938  0.13243718  1
  In  In1  1  -0.01026191  0.18129641  0.61820313  1
  In  In2  1  0.00179864  0.49784831  0.13134714  1
  In  In3  1  0.00546898  0.49117776  0.61500888  1
  In  In4  1  -0.00897904  0.83085589  0.13603468  1
  In  In5  1  -0.00183777  0.83011579  0.61592669  1
  In  In6  1  0.34647235  0.14506527  0.12551039  1
  In  In7  1  0.34332397  0.16287614  0.62278094  1
  In  In8  1  0.34535343  0.52260196  0.10866360  1
  In  In9  1  0.33583894  0.50447700  0.61683056  1
  In  In10  1  0.33399631  0.82947335  0.11410145  1
  In  In11  1  0.32424855  0.84159310  0.62125890  1
  In  In12  1  0.66218486  0.16055557  0.13043621  1
  In  In13  1  0.67857213  0.15636578  0.63161884  1
  In  In14  1  0.64758383  0.50968294  0.13056409  1
  In  In15  1  0.65303184  0.50479645  0.62326845  1
  In  In16  1  0.67339025  0.83497899  0.12637105  1
  In  In17  1  0.67689547  0.83941883  0.62381847  1
  In  In18  1  0.15529925  -0.01340480  0.36141624  1
  In  In19  1  0.16661527  -0.01728883  0.88617118  1
  In  In20  1  0.16826313  0.34906180  0.37295559  1
  In  In21  1  0.18117213  0.33549573  0.88050532  1
  In  In22  1  0.17035931  0.67089479  0.37132261  1
  In  In23  1  0.17034998  0.66611323  0.89867178  1
  In  In24  1  0.50362213  0.01289805  0.34645995  1
  In  In25  1  0.51968449  -0.01705522  0.89773279  1
  In  In26  1  0.51827064  0.33818473  0.36594372  1
  In  In27  1  0.51166429  0.32193342  0.88812988  1
  In  In28  1  0.49839716  0.66770935  0.36486703  1
  In  In29  1  0.51255883  0.66433198  0.90603450  1
  In  In30  1  0.83754964  -0.00271118  0.37197498  1
  In  In31  1  0.83562391  0.00844557  0.88653250  1
  In  In32  1  0.82323251  0.32216624  0.36839061  1
  In  In33  1  0.81001257  0.34091799  0.87509088  1
  In  In34  1  0.85533298  0.68773642  0.34697271  1
  In  In35  1  0.83690006  0.66894877  0.88030106  1
  In  In36  1  -0.01445242  0.15222149  0.36316230  1
  In  In37  1  -0.00101933  0.15004701  0.88329718  1
  In  In38  1  0.01120921  0.51071093  0.36434911  1
  In  In39  1  -0.00326010  0.51425714  0.87948349  1
  In  In40  1  -0.00086337  0.83955545  0.36835795  1
  In  In41  1  -0.00279952  0.83221928  0.89194997  1
  In  In42  1  0.34507284  0.15823070  0.36440051  1
  In  In43  1  0.34408380  0.17308637  0.88550008  1
  In  In44  1  0.32793158  0.51490422  0.37695906  1
  In  In45  1  0.33772472  0.50475823  0.89681352  1
  In  In46  1  0.32877523  0.82497182  0.36128655  1
  In  In47  1  0.34707927  0.82362514  0.90933208  1
  In  In48  1  0.66640780  0.17452436  0.36620623  1
  In  In49  1  0.67390306  0.16766796  0.88179885  1
  In  In50  1  0.66662481  0.49989219  0.36982438  1
  In  In51  1  0.67203457  0.48627120  0.87922152  1
  In  In52  1  0.69108459  0.85191094  0.34820850  1
  In  In53  1  0.66916835  0.83687500  0.88619111  1
  In  In54  1  0.17904426  -0.02026043  0.13342214  1
  In  In55  1  0.17304148  -0.01242944  0.61457031  1
  In  In56  1  0.15468561  0.33937616  0.12657554  1
  In  In57  1  0.15287361  0.34208958  0.61544061  1
  In  In58  1  0.16644221  0.66716734  0.12417460  1
  In  In59  1  0.16377552  0.66691650  0.61239113  1
  In  In60  1  0.50605248  0.00017200  0.12270596  1
  In  In61  1  0.50672354  0.01100084  0.62583476  1
  In  In62  1  0.50846166  0.33867736  0.12257995  1
  In  In63  1  0.49878608  0.34252006  0.62459313  1
  In  In64  1  0.50079591  0.66738067  0.11623392  1
  In  In65  1  0.51320316  0.65780390  0.62064616  1
  In  In66  1  0.82477370  -0.00529386  0.13496146  1
  In  In67  1  0.82035272  -0.01183493  0.61310187  1
  In  In68  1  0.83346425  0.32288226  0.13136991  1
  In  In69  1  0.83650362  0.32513111  0.62227552  1
  In  In70  1  0.81351293  0.69072785  0.14796630  1
  In  In71  1  0.82560377  0.67634712  0.62046553  1
  In  In72  1  -0.00864858  0.66993026  0.75294273  1
  In  In73  1  0.49484113  0.82476387  0.48809849  1
  In  In74  1  0.34628354  -0.00780465  0.76984938  1
  In  In75  1  0.32935005  0.33366472  0.24417832  1
  In  In76  1  -0.00721600  0.33264937  0.74469067  1
  In  In77  1  0.34040691  0.33617939  0.74923911  1
  In  In78  1  0.50408842  0.17021406  0.49291266  1
  In  In79  1  0.16351442  0.16837438  0.49942681  1
  In  In80  1  0.83288956  0.50633645  0.49299995  1
  In  In81  1  0.83050443  0.50634510  0.00546573  1
  In  In82  1  -0.00704375  -0.00262104  0.75094920  1
  In  In83  1  0.16452505  0.16660451  0.00867666  1
  In  In84  1  0.33647017  0.66888384  0.76890225  1
  In  In85  1  0.66516521  0.66734972  0.75804266  1
  Cu  Cu86  1  0.66836059  0.67129415  0.49013251  1
  Cu  Cu87  1  0.33716602  0.34396626  0.49496651  1
  Cu  Cu88  1  0.16673024  0.82399606  0.75331021  1
  Cu  Cu89  1  0.16144349  0.16750697  0.24255502  1
  Cu  Cu90  1  0.67023233  -0.00624689  0.49314948  1
  Cu  Cu91  1  0.17455149  0.15319342  0.74608736  1
  Cu  Cu92  1  0.16049459  0.50009482  0.75286560  1
  Cu  Cu93  1  0.82755555  0.16231028  0.24963059  1
  Cu  Cu94  1  0.00306374  0.67265458  0.48731368  1
  Cu  Cu95  1  0.17126650  0.50693338  0.24755126  1
  Cu  Cu96  1  0.66879959  0.33057717  0.00569161  1
  Cu  Cu97  1  0.50571088  0.83745739  0.76158054  1
  Cu  Cu98  1  -0.00205694  0.33551617  0.48981901  1
  Cu  Cu99  1  -0.00507778  -0.00252529  0.48959446  1
  Cu  Cu100  1  -0.00461381  -0.00229588  0.01554137  1
  Cu  Cu101  1  0.66789714  0.33413672  0.49391395  1
  Cu  Cu102  1  0.33348199  0.33573184  0.00871276  1
  Cu  Cu103  1  0.49539481  0.50362449  0.24385708  1
  Cu  Cu104  1  0.67465245  0.00333872  0.00700858  1
  Cu  Cu105  1  0.83028186  0.17021915  0.75593373  1
  Cu  Cu106  1  0.52349413  0.16318345  0.75955829  1
  Cu  Cu107  1  -0.00633146  0.66854091  0.01237999  1
  Cu  Cu108  1  0.16854846  0.83190231  0.24503964  1
  Cu  Cu109  1  0.49722704  0.82781173  0.23532741  1
  Cu  Cu110  1  0.49794598  0.49873001  0.75436524  1
  Cu  Cu111  1  0.83201372  0.48797377  0.24705957  1
  Cu  Cu112  1  0.33416143  0.66474470  0.49134278  1
  Cu  Cu113  1  0.32687791  -0.01150490  0.48445313  1
  Cu  Cu114  1  -0.00608988  0.33357121  0.00573458  1
  Se  Se115  1  0.08062023  0.07789865  0.07196578  1
  Se  Se116  1  0.07125616  0.07500874  0.55805346  1
  Se  Se117  1  0.07733839  0.42035366  0.05341788  1
  Se  Se118  1  0.08414991  0.42099888  0.53765249  1
  Se  Se119  1  0.07600392  0.75453519  0.06313246  1
  Se  Se120  1  0.08498251  0.75421361  0.54651729  1
  Se  Se121  1  0.41974380  0.07342283  0.04761219  1
  Se  Se122  1  0.40878862  0.06918595  0.54662191  1
  Se  Se123  1  0.42287577  0.41966457  0.05428364  1
  Se  Se124  1  0.42297711  0.42210314  0.55139564  1
  Se  Se125  1  0.40920969  0.73887794  0.04478075  1
  Se  Se126  1  0.40930615  0.74050134  0.56126012  1
  Se  Se127  1  0.75576350  0.08646038  0.06272492  1
  Se  Se128  1  0.74548129  0.08359575  0.54883677  1
  Se  Se129  1  0.74411289  0.41444403  0.06683521  1
  Se  Se130  1  0.74582862  0.41585247  0.55628808  1
  Se  Se131  1  0.75906969  0.75186675  0.05816354  1
  Se  Se132  1  0.74529888  0.75405157  0.54866569  1
  Se  Se133  1  0.25766854  0.25392258  0.06962908  1
  Se  Se134  1  0.26094984  0.26035439  0.55780312  1
  Se  Se135  1  0.22808961  0.56986170  0.05363700  1
  Se  Se136  1  0.24999406  0.58274092  0.54898065  1
  Se  Se137  1  0.24389195  0.91320107  0.04947840  1
  Se  Se138  1  0.24636918  0.90579775  0.54019473  1
  Se  Se139  1  0.58496079  0.24568954  0.05721259  1
  Se  Se140  1  0.59112816  0.25454032  0.56030611  1
  Se  Se141  1  0.57660499  0.57545626  0.04874854  1
  Se  Se142  1  0.58839856  0.58480826  0.54306195  1
  Se  Se143  1  0.59011434  0.91589701  0.05514397  1
  Se  Se144  1  0.58101740  0.92007693  0.55288881  1
  Se  Se145  1  0.91207830  0.24757728  0.05496097  1
  Se  Se146  1  0.91179616  0.25498962  0.54255199  1
  Se  Se147  1  0.91072358  0.59265136  0.07322213  1
  Se  Se148  1  0.92561342  0.59624099  0.55502937  1
  Se  Se149  1  0.90936607  0.91262821  0.06412875  1
  Se  Se150  1  0.91569228  0.91462752  0.54942658  1
  Se  Se151  1  0.07748243  0.25062848  0.43141221  1
  Se  Se152  1  0.07727854  0.25723202  0.94265170  1
  Se  Se153  1  0.08767121  0.58525257  0.44080231  1
  Se  Se154  1  0.07423428  0.58321582  0.95668088  1
  Se  Se155  1  0.08423108  0.91545663  0.44258666  1
  Se  Se156  1  0.07882737  0.91651641  0.95961569  1
  Se  Se157  1  0.41015419  0.25994829  0.43432248  1
  Se  Se158  1  0.42054937  0.25100665  0.95855584  1
  Se  Se159  1  0.42537716  0.58640213  0.44220489  1
  Se  Se160  1  0.39750539  0.60796933  0.96048998  1
  Se  Se161  1  0.41909192  0.92354178  0.42449872  1
  Se  Se162  1  0.40538822  0.94054855  0.95984518  1
  Se  Se163  1  0.74638819  0.24481630  0.44428750  1
  Se  Se164  1  0.75661689  0.25144482  0.95232902  1
  Se  Se165  1  0.75439674  0.59779595  0.42811095  1
  Se  Se166  1  0.73784613  0.59234642  0.94387115  1
  Se  Se167  1  0.75196535  0.91017664  0.43961844  1
  Se  Se168  1  0.75688880  0.91881609  0.95240093  1
  Se  Se169  1  0.24909409  0.08043262  0.43297585  1
  Se  Se170  1  0.25244828  0.08049594  0.94420623  1
  Se  Se171  1  0.24936533  0.42537086  0.44496687  1
  Se  Se172  1  0.24695212  0.41744456  0.95667950  1
  Se  Se173  1  0.25467201  0.75303297  0.44138023  1
  Se  Se174  1  0.23313734  0.76557370  0.96287548  1
  Se  Se175  1  0.58514342  0.07137016  0.43438626  1
  Se  Se176  1  0.59127904  0.08887879  0.95352741  1
  Se  Se177  1  0.58531447  0.41942145  0.44348064  1
  Se  Se178  1  0.58616827  0.41723563  0.95295606  1
  Se  Se179  1  0.59544954  0.75391460  0.42645697  1
  Se  Se180  1  0.58173465  0.76922796  0.96006513  1
  Se  Se181  1  0.91068802  0.08640336  0.44498840  1
  Se  Se182  1  0.91765896  0.08561270  0.96050451  1
  Se  Se183  1  0.91839027  0.41630859  0.42921909  1
  Se  Se184  1  0.91754218  0.41255362  0.94090251  1
  Se  Se185  1  0.91497165  0.75157516  0.43639238  1
  Se  Se186  1  0.91016690  0.74741871  0.95545181  1
  Se  Se187  1  0.24003928  0.24388367  0.30796331  1
  Se  Se188  1  0.24915618  0.23851626  0.80680569  1
  Se  Se189  1  0.25507541  0.59037715  0.30000546  1
  Se  Se190  1  0.23926040  0.57339786  0.81932002  1
  Se  Se191  1  0.25340299  0.91881370  0.29603312  1
  Se  Se192  1  0.25114403  0.89463531  0.81734125  1
  Se  Se193  1  0.56078160  0.22967574  0.30130185  1
  Se  Se194  1  0.59595766  0.25735920  0.81102371  1
  Se  Se195  1  0.58299489  0.58086533  0.30023961  1
  Se  Se196  1  0.57032831  0.58200598  0.81851365  1
  Se  Se197  1  0.57926032  0.91161245  0.29018649  1
  Se  Se198  1  0.59049912  0.92014298  0.81270361  1
  Se  Se199  1  0.91386136  0.24960191  0.29922733  1
  Se  Se200  1  0.91602744  0.24469653  0.81643284  1
  Se  Se201  1  0.91933601  0.57565467  0.29320124  1
  Se  Se202  1  0.90008171  0.57218752  0.80534130  1
  Se  Se203  1  0.91108743  0.91410408  0.29929932  1
  Se  Se204  1  0.91209786  0.90929267  0.81670685  1
  Se  Se205  1  0.08045648  0.08124425  0.29751103  1
  Se  Se206  1  0.09585666  0.07978206  0.81065191  1
  Se  Se207  1  0.08761074  0.41843924  0.29672566  1
  Se  Se208  1  0.08456405  0.41661785  0.81260433  1
  Se  Se209  1  0.08645441  0.75272912  0.30356465  1
  Se  Se210  1  0.08737989  0.74857072  0.81738207  1
  Se  Se211  1  0.40197145  0.07846638  0.28419346  1
  Se  Se212  1  0.43727566  0.08951452  0.82038659  1
  Se  Se213  1  0.41647367  0.42402591  0.30822783  1
  Se  Se214  1  0.41939579  0.42232455  0.82020979  1
  Se  Se215  1  0.41571799  0.74644486  0.29388215  1
  Se  Se216  1  0.43071099  0.75781149  0.82572646  1
  Se  Se217  1  0.74731828  0.08034863  0.30628901  1
  Se  Se218  1  0.75437371  0.08335441  0.81187296  1
  Se  Se219  1  0.74404752  0.41052780  0.30224322  1
  Se  Se220  1  0.74827519  0.42447255  0.79824156  1
  Se  Se221  1  0.73439390  0.73150076  0.29459369  1
  Se  Se222  1  0.75814338  0.75933327  0.81098491  1
  Se  Se223  1  0.24763911  0.08435865  0.19384455  1
  Se  Se224  1  0.25677835  0.07280565  0.69013328  1
  Se  Se225  1  0.25035424  0.43028228  0.18323925  1
  Se  Se226  1  0.24195269  0.42335224  0.68983113  1
  Se  Se227  1  0.25242486  0.75204223  0.18982540  1
  Se  Se228  1  0.24903852  0.74650646  0.69305548  1
  Se  Se229  1  0.58998563  0.06861325  0.19857571  1
  Se  Se230  1  0.59375817  0.07454698  0.70039335  1
  Se  Se231  1  0.58182437  0.41370739  0.20119427  1
  Se  Se232  1  0.58080257  0.41966626  0.69717691  1
  Se  Se233  1  0.58503656  0.74427060  0.18757549  1
  Se  Se234  1  0.57600577  0.75739839  0.69290826  1
  Se  Se235  1  0.91508694  0.07883395  0.20027540  1
  Se  Se236  1  0.91218173  0.09556527  0.69114982  1
  Se  Se237  1  0.92025306  0.40750566  0.19586718  1
  Se  Se238  1  0.90777177  0.43056186  0.68709096  1
  Se  Se239  1  0.91827825  0.74853918  0.21164568  1
  Se  Se240  1  0.90625568  0.76397234  0.69267116  1
  Se  Se241  1  0.07717347  0.25460061  0.19615587  1
  Se  Se242  1  0.09493379  0.24042720  0.69022676  1
  Se  Se243  1  0.08231055  0.58764238  0.19671565  1
  Se  Se244  1  0.08474778  0.58008273  0.69014784  1
  Se  Se245  1  0.07855741  0.91821537  0.20018763  1
  Se  Se246  1  0.09195450  0.90793221  0.69264082  1
  Se  Se247  1  0.42287823  0.24545798  0.18828663  1
  Se  Se248  1  0.43471751  0.23610856  0.69701449  1
  Se  Se249  1  0.41600225  0.58996366  0.19104097  1
  Se  Se250  1  0.41907606  0.58293145  0.69586874  1
  Se  Se251  1  0.41417765  0.91337642  0.18419714  1
  Se  Se252  1  0.42463858  0.90883024  0.69299925  1
  Se  Se253  1  0.74326642  0.24847044  0.19948090  1
  Se  Se254  1  0.75278477  0.25253368  0.69576087  1
  Se  Se255  1  0.74869330  0.57385558  0.19662593  1
  Se  Se256  1  0.75070860  0.58244454  0.68854688  1
  Se  Se257  1  0.75060350  0.90715990  0.20496180  1
  Se  Se258  1  0.75008795  0.92226308  0.69528250  1
