# generated using pymatgen
data_In86Cu29Se144
_symmetry_space_group_name_H-M   'P 1'
_cell_length_a   17.57983846
_cell_length_b   17.58303284
_cell_length_c   23.43585720
_cell_angle_alpha   89.97411278
_cell_angle_beta   89.99469939
_cell_angle_gamma   90.00272275
_symmetry_Int_Tables_number   1
_chemical_formula_structural   In86Cu29Se144
_chemical_formula_sum   'In86 Cu29 Se144'
_cell_volume   7244.18384862
_cell_formula_units_Z   1
loop_
 _symmetry_equiv_pos_site_id
 _symmetry_equiv_pos_as_xyz
  1  'x, y, z'
loop_
 _atom_site_type_symbol
 _atom_site_label
 _atom_site_symmetry_multiplicity
 _atom_site_fract_x
 _atom_site_fract_y
 _atom_site_fract_z
 _atom_site_occupancy
  In  In0  1  0.02413091  0.16791412  0.12634093  1
  In  In1  1  0.00892190  0.15775433  0.62123795  1
  In  In2  1  0.00143853  0.48663933  0.12445467  1
  In  In3  1  0.00687170  0.50410664  0.63169099  1
  In  In4  1  0.00185235  0.84502841  0.10709716  1
  In  In5  1  -0.00230006  0.82428464  0.62682445  1
  In  In6  1  0.32908206  0.17895068  0.12890341  1
  In  In7  1  0.33823371  0.17221497  0.61704538  1
  In  In8  1  0.33532448  0.50862789  0.12619977  1
  In  In9  1  0.33905623  0.49487459  0.63042334  1
  In  In10  1  0.31975523  0.82035947  0.11671791  1
  In  In11  1  0.32616877  0.82348070  0.62206728  1
  In  In12  1  0.66125305  0.17082477  0.13566761  1
  In  In13  1  0.64970717  0.16798991  0.62134604  1
  In  In14  1  0.64226364  0.52323144  0.14556994  1
  In  In15  1  0.65704760  0.51519001  0.62708353  1
  In  In16  1  0.66012635  0.83592318  0.12189184  1
  In  In17  1  0.66389577  0.83260078  0.62978907  1
  In  In18  1  0.17591650  -0.00368951  0.37734821  1
  In  In19  1  0.18972288  -0.01756803  0.90868835  1
  In  In20  1  0.17375426  0.32677684  0.36054966  1
  In  In21  1  0.18332708  0.32361363  0.88283639  1
  In  In22  1  0.18160501  0.66717703  0.37241824  1
  In  In23  1  0.16914392  0.66449444  0.87770170  1
  In  In24  1  0.50997675  -0.01190482  0.38188345  1
  In  In25  1  0.50051411  -0.02484575  0.87884005  1
  In  In26  1  0.49194229  0.33083066  0.37078827  1
  In  In27  1  0.49990624  0.35274178  0.87945859  1
  In  In28  1  0.49969637  0.66773347  0.37792113  1
  In  In29  1  0.49884972  0.66620572  0.87448719  1
  In  In30  1  0.82995760  -0.00753310  0.36905677  1
  In  In31  1  0.81489238  -0.00259979  0.87203347  1
  In  In32  1  0.83532663  0.33597524  0.36675722  1
  In  In33  1  0.82848227  0.32885219  0.87917246  1
  In  In34  1  0.81253430  0.67244285  0.37463243  1
  In  In35  1  0.84571569  0.67128274  0.86808775  1
  In  In36  1  0.01306702  0.17780270  0.36724545  1
  In  In37  1  0.01298922  0.16949568  0.87628302  1
  In  In38  1  0.01344408  0.49689432  0.37139979  1
  In  In39  1  0.00091353  0.51522283  0.87531670  1
  In  In40  1  0.00541686  0.84093301  0.37324732  1
  In  In41  1  0.01548284  0.82332311  0.89066295  1
  In  In42  1  0.32506636  0.17522177  0.37454024  1
  In  In43  1  0.32418033  0.16234448  0.87682341  1
  In  In44  1  0.35547192  0.51418949  0.35595738  1
  In  In45  1  0.33397685  0.50169467  0.87525621  1
  In  In46  1  0.33784472  0.83277198  0.37734037  1
  In  In47  1  0.34554302  0.82451699  0.88709704  1
  In  In48  1  0.65886107  0.15444283  0.37018288  1
  In  In49  1  0.67463152  0.16648030  0.87546230  1
  In  In50  1  0.63379485  0.48162308  0.35098826  1
  In  In51  1  0.65223995  0.50287047  0.87785624  1
  In  In52  1  0.64985225  0.80160718  0.35128559  1
  In  In53  1  0.66399501  0.82634107  0.87591387  1
  In  In54  1  0.16743944  -0.00332263  0.10998560  1
  In  In55  1  0.17147600  0.00046611  0.61779823  1
  In  In56  1  0.16678925  0.33551553  0.12493085  1
  In  In57  1  0.18218026  0.33885834  0.62431690  1
  In  In58  1  0.18064248  0.67813305  0.11944200  1
  In  In59  1  0.16349348  0.67295004  0.63216493  1
  In  In60  1  0.50979321  -0.00001852  0.12690229  1
  In  In61  1  0.50309693  0.00041035  0.62188294  1
  In  In62  1  0.47689443  0.36215768  0.15173563  1
  In  In63  1  0.48462937  0.32746330  0.61589145  1
  In  In64  1  0.49184445  0.66582707  0.12501106  1
  In  In65  1  0.49654369  0.66728729  0.62404522  1
  In  In66  1  0.83136108  -0.01728491  0.12366159  1
  In  In67  1  0.82993344  -0.01507590  0.62672479  1
  In  In68  1  0.83114846  0.33734814  0.13503705  1
  In  In69  1  0.84120786  0.33289154  0.62073319  1
  In  In70  1  0.81882432  0.67682839  0.12445234  1
  In  In71  1  0.82604889  0.66888123  0.63990468  1
  In  In72  1  0.83870523  0.16137763  0.00290257  1
  In  In73  1  0.49720704  0.16850302  0.00859277  1
  In  In74  1  0.33567154  -0.00497457  0.75983399  1
  In  In75  1  0.00072899  -0.00274432  0.76016823  1
  In  In76  1  0.83233434  0.83468159  0.50051738  1
  In  In77  1  0.00071400  0.34225668  0.75103695  1
  In  In78  1  0.17733792  0.49524347  0.49586895  1
  In  In79  1  0.83027320  0.50205226  0.00093339  1
  In  In80  1  0.00330946  -0.00028820  0.23810613  1
  In  In81  1  0.82988350  0.16254930  0.48292349  1
  In  In82  1  0.33147643  0.00121223  0.24562217  1
  In  In83  1  -0.00199263  0.66620614  0.24439730  1
  In  In84  1  0.82605445  0.50453837  0.50578422  1
  In  In85  1  0.66273133  0.33775722  0.75455767  1
  Cu  Cu86  1  0.65868544  0.34188541  0.01436770  1
  Cu  Cu87  1  0.65861823  0.67165848  0.00271448  1
  Cu  Cu88  1  0.49783073  0.16630803  0.74257710  1
  Cu  Cu89  1  0.16281376  0.82680741  0.75543757  1
  Cu  Cu90  1  0.33712986  0.66962572  0.49818076  1
  Cu  Cu91  1  0.33564338  0.65963882  -0.00129737  1
  Cu  Cu92  1  0.33471743  0.34010006  0.00788801  1
  Cu  Cu93  1  0.50287237  0.82622080  0.75147893  1
  Cu  Cu94  1  0.17048163  0.49358813  0.24646537  1
  Cu  Cu95  1  0.00504472  0.67491600  0.50597056  1
  Cu  Cu96  1  0.49586530  0.82775299  0.24973981  1
  Cu  Cu97  1  0.65524094  0.66299310  0.49689452  1
  Cu  Cu98  1  0.33879853  0.00010045  0.49822003  1
  Cu  Cu99  1  0.65124741  0.33993155  0.49455541  1
  Cu  Cu100  1  0.00905576  0.33111889  0.00224465  1
  Cu  Cu101  1  0.82700597  0.16342202  0.74884183  1
  Cu  Cu102  1  0.83444126  0.16375883  0.25161717  1
  Cu  Cu103  1  0.82810727  0.83041845  0.75355078  1
  Cu  Cu104  1  0.17044622  0.50576446  0.75315090  1
  Cu  Cu105  1  0.50038430  0.16208942  0.25380622  1
  Cu  Cu106  1  0.66291680  -0.00557607  -0.00009560  1
  Cu  Cu107  1  0.00673473  0.32928003  0.49065434  1
  Cu  Cu108  1  0.01775461  0.00464157  0.49458671  1
  Cu  Cu109  1  0.17284069  0.16782540  0.75276558  1
  Cu  Cu110  1  0.33348880  0.33414166  0.49348934  1
  Cu  Cu111  1  0.83404675  0.50532775  0.24750234  1
  Cu  Cu112  1  0.66553695  -0.00177384  0.50030096  1
  Cu  Cu113  1  0.49443655  0.50511326  0.75096811  1
  Cu  Cu114  1  0.00446620  0.66458916  0.00031530  1
  Se  Se115  1  0.06607836  0.07160331  0.05149645  1
  Se  Se116  1  0.09576565  0.09062419  0.54896561  1
  Se  Se117  1  0.08931824  0.42041364  0.05136205  1
  Se  Se118  1  0.07706006  0.41129386  0.55715338  1
  Se  Se119  1  0.08799420  0.75049470  0.05095543  1
  Se  Se120  1  0.09010591  0.75663444  0.55703788  1
  Se  Se121  1  0.40714753  0.07808374  0.06595211  1
  Se  Se122  1  0.42044948  0.08341486  0.55385068  1
  Se  Se123  1  0.42126896  0.42068961  0.05939562  1
  Se  Se124  1  0.41022576  0.42116216  0.55010732  1
  Se  Se125  1  0.41574609  0.74767799  0.05108521  1
  Se  Se126  1  0.41899177  0.75327895  0.55328706  1
  Se  Se127  1  0.73672797  0.08170912  0.05961271  1
  Se  Se128  1  0.75026106  0.07831577  0.55753124  1
  Se  Se129  1  0.74242840  0.42367378  0.06958671  1
  Se  Se130  1  0.73541591  0.40681051  0.56096754  1
  Se  Se131  1  0.74575758  0.75648492  0.04999259  1
  Se  Se132  1  0.74439459  0.73703772  0.55669185  1
  Se  Se133  1  0.24939743  0.25277831  0.05396631  1
  Se  Se134  1  0.24960991  0.25372693  0.55038484  1
  Se  Se135  1  0.24884494  0.58071618  0.05270004  1
  Se  Se136  1  0.25474669  0.59039594  0.56018441  1
  Se  Se137  1  0.25364636  0.91421593  0.04656686  1
  Se  Se138  1  0.25512974  0.91657781  0.55313810  1
  Se  Se139  1  0.57664068  0.26231872  0.07182333  1
  Se  Se140  1  0.57610482  0.25019323  0.54925996  1
  Se  Se141  1  0.58097829  0.58353958  0.05634704  1
  Se  Se142  1  0.57311535  0.58040790  0.55137767  1
  Se  Se143  1  0.57393523  0.91462749  0.05022678  1
  Se  Se144  1  0.58696577  0.91314158  0.55675388  1
  Se  Se145  1  0.92128296  0.25876772  0.06187523  1
  Se  Se146  1  0.92410432  0.24855931  0.54943431  1
  Se  Se147  1  0.92085594  0.59029690  0.06330651  1
  Se  Se148  1  0.92254722  0.59406639  0.56282169  1
  Se  Se149  1  0.90644673  0.91860311  0.04366722  1
  Se  Se150  1  0.93191287  0.92779740  0.55445292  1
  Se  Se151  1  0.09598549  0.25252642  0.43980902  1
  Se  Se152  1  0.09051621  0.24695650  0.94897956  1
  Se  Se153  1  0.08049006  0.59125429  0.44468933  1
  Se  Se154  1  0.08758076  0.58019315  0.94912586  1
  Se  Se155  1  0.09233394  0.91093354  0.44489999  1
  Se  Se156  1  0.07207570  0.92588934  0.95637513  1
  Se  Se157  1  0.41688124  0.24653508  0.44397902  1
  Se  Se158  1  0.41307583  0.25972879  0.94332295  1
  Se  Se159  1  0.41443066  0.58202648  0.44399226  1
  Se  Se160  1  0.42138945  0.57926798  0.94452750  1
  Se  Se161  1  0.42032673  0.91146823  0.44876499  1
  Se  Se162  1  0.39581529  0.93696158  0.94809186  1
  Se  Se163  1  0.73780785  0.26303067  0.43677228  1
  Se  Se164  1  0.73678509  0.25981965  0.95396238  1
  Se  Se165  1  0.73361488  0.57870081  0.43854646  1
  Se  Se166  1  0.74246023  0.59358492  0.94109961  1
  Se  Se167  1  0.73996218  0.91608198  0.43826232  1
  Se  Se168  1  0.74584220  0.91255678  0.94562134  1
  Se  Se169  1  0.25436527  0.08295887  0.44487034  1
  Se  Se170  1  0.24707066  0.10040226  0.95617865  1
  Se  Se171  1  0.26319592  0.41594019  0.42726385  1
  Se  Se172  1  0.25340257  0.41980225  0.94799562  1
  Se  Se173  1  0.25054781  0.75130145  0.44659067  1
  Se  Se174  1  0.25029886  0.74638425  0.94855606  1
  Se  Se175  1  0.58244020  0.08418227  0.44905276  1
  Se  Se176  1  0.58589012  0.08121398  0.94123732  1
  Se  Se177  1  0.57052630  0.42237193  0.43989517  1
  Se  Se178  1  0.58164115  0.42315040  0.95482270  1
  Se  Se179  1  0.58373507  0.75734587  0.44399968  1
  Se  Se180  1  0.57498670  0.75272426  0.94625940  1
  Se  Se181  1  0.93090988  0.07367453  0.43193768  1
  Se  Se182  1  0.91765532  0.07809546  0.93232162  1
  Se  Se183  1  0.92109916  0.41668944  0.44294705  1
  Se  Se184  1  0.92425836  0.40821228  0.94252253  1
  Se  Se185  1  0.92193939  0.74272712  0.43952063  1
  Se  Se186  1  0.91505930  0.74438409  0.94860582  1
  Se  Se187  1  0.25589569  0.24404393  0.29322936  1
  Se  Se188  1  0.25820489  0.25182320  0.80293601  1
  Se  Se189  1  0.24921385  0.58257101  0.29819657  1
  Se  Se190  1  0.25446673  0.58836337  0.80612200  1
  Se  Se191  1  0.24487355  0.90597862  0.30361570  1
  Se  Se192  1  0.24092068  0.90737709  0.81739276  1
  Se  Se193  1  0.58331960  0.24770738  0.30618497  1
  Se  Se194  1  0.57242526  0.24414903  0.81212128  1
  Se  Se195  1  0.60382446  0.61252557  0.30895234  1
  Se  Se196  1  0.58201240  0.58488579  0.80264112  1
  Se  Se197  1  0.57968326  0.91407060  0.30140109  1
  Se  Se198  1  0.58548799  0.91228621  0.80309949  1
  Se  Se199  1  0.91830268  0.24917716  0.30213192  1
  Se  Se200  1  0.90995832  0.24186337  0.80682863  1
  Se  Se201  1  0.91125788  0.58094433  0.31449100  1
  Se  Se202  1  0.91411764  0.57580703  0.80136318  1
  Se  Se203  1  0.91425010  0.90801229  0.29938094  1
  Se  Se204  1  0.91159168  0.90417741  0.81635790  1
  Se  Se205  1  0.09347787  0.08205380  0.30434572  1
  Se  Se206  1  0.10118256  0.08206341  0.81306870  1
  Se  Se207  1  0.08360007  0.41346750  0.29906075  1
  Se  Se208  1  0.09485968  0.42057562  0.81462671  1
  Se  Se209  1  0.08924637  0.75252909  0.30639821  1
  Se  Se210  1  0.07935128  0.74565019  0.80968228  1
  Se  Se211  1  0.42156550  0.07980106  0.31420272  1
  Se  Se212  1  0.42954356  0.08824317  0.81395881  1
  Se  Se213  1  0.42742024  0.41759584  0.29400865  1
  Se  Se214  1  0.41519425  0.41704792  0.80357544  1
  Se  Se215  1  0.41430102  0.74747233  0.30685623  1
  Se  Se216  1  0.41398850  0.75080158  0.80632758  1
  Se  Se217  1  0.75111127  0.07984313  0.30316399  1
  Se  Se218  1  0.74074005  0.08220272  0.79942837  1
  Se  Se219  1  0.75179567  0.42053427  0.30146560  1
  Se  Se220  1  0.75570273  0.42478614  0.81352579  1
  Se  Se221  1  0.77033176  0.76353793  0.29632066  1
  Se  Se222  1  0.74645064  0.74425257  0.80586869  1
  Se  Se223  1  0.23624579  0.08670995  0.18745011  1
  Se  Se224  1  0.25129256  0.08461557  0.69270880  1
  Se  Se225  1  0.25594456  0.41519212  0.19173160  1
  Se  Se226  1  0.25076260  0.41828213  0.70040577  1
  Se  Se227  1  0.25992154  0.74185208  0.19814615  1
  Se  Se228  1  0.25135198  0.75067637  0.70083211  1
  Se  Se229  1  0.58423613  0.07923286  0.20161931  1
  Se  Se230  1  0.58360436  0.08093797  0.69523365  1
  Se  Se231  1  0.60333142  0.40127286  0.19861764  1
  Se  Se232  1  0.57045048  0.41811818  0.68977226  1
  Se  Se233  1  0.57983038  0.75012658  0.19104725  1
  Se  Se234  1  0.58419434  0.74377985  0.69505106  1
  Se  Se235  1  0.90924399  0.09157812  0.18245199  1
  Se  Se236  1  0.91209955  0.08611169  0.69118240  1
  Se  Se237  1  0.91929188  0.41864469  0.20095594  1
  Se  Se238  1  0.90275509  0.42764380  0.69358456  1
  Se  Se239  1  0.91821611  0.76102480  0.18225796  1
  Se  Se240  1  0.91788121  0.75172382  0.70107520  1
  Se  Se241  1  0.07834200  0.26306383  0.19702565  1
  Se  Se242  1  0.08965461  0.24525349  0.69249588  1
  Se  Se243  1  0.09116878  0.57732163  0.18672677  1
  Se  Se244  1  0.08369011  0.58686241  0.70133274  1
  Se  Se245  1  0.09494640  0.90545520  0.18518355  1
  Se  Se246  1  0.09079054  0.91321742  0.69339702  1
  Se  Se247  1  0.41548363  0.24558721  0.20281487  1
  Se  Se248  1  0.41226384  0.25039560  0.69401316  1
  Se  Se249  1  0.43036120  0.57148849  0.19734204  1
  Se  Se250  1  0.41213710  0.58870908  0.69603275  1
  Se  Se251  1  0.41868450  0.90727489  0.18677539  1
  Se  Se252  1  0.42056191  0.90938714  0.69283270  1
  Se  Se253  1  0.75052536  0.25022977  0.20121217  1
  Se  Se254  1  0.75186570  0.24762322  0.68805991  1
  Se  Se255  1  0.75121355  0.59310846  0.19974776  1
  Se  Se256  1  0.74608152  0.57691820  0.69909232  1
  Se  Se257  1  0.73518005  0.92413345  0.19214765  1
  Se  Se258  1  0.74696115  0.91523573  0.69996580  1
