# generated using pymatgen
data_In86Cu29Se144
_symmetry_space_group_name_H-M   'P 1'
_cell_length_a   17.59032969
_cell_length_b   17.58520982
_cell_length_c   23.45779990
_cell_angle_alpha   90.01414886
_cell_angle_beta   90.02102630
_cell_angle_gamma   90.00142334
_symmetry_Int_Tables_number   1
_chemical_formula_structural   In86Cu29Se144
_chemical_formula_sum   'In86 Cu29 Se144'
_cell_volume   7256.19204739
_cell_formula_units_Z   1
loop_
 _symmetry_equiv_pos_site_id
 _symmetry_equiv_pos_as_xyz
  1  'x, y, z'
loop_
 _atom_site_type_symbol
 _atom_site_label
 _atom_site_symmetry_multiplicity
 _atom_site_fract_x
 _atom_site_fract_y
 _atom_site_fract_z
 _atom_site_occupancy
  In  In0  1  -0.00741999  0.15534328  0.12109150  1
  In  In1  1  -0.01895331  0.13249627  0.60006799  1
  In  In2  1  0.00253878  0.50114046  0.11651295  1
  In  In3  1  -0.00284304  0.51295620  0.62718694  1
  In  In4  1  0.00996753  0.84552716  0.11796265  1
  In  In5  1  -0.01695886  0.85167258  0.63943611  1
  In  In6  1  0.34057760  0.17432583  0.11975140  1
  In  In7  1  0.32577654  0.16255412  0.61470216  1
  In  In8  1  0.32718801  0.50613266  0.13012006  1
  In  In9  1  0.34875140  0.49914914  0.62682836  1
  In  In10  1  0.31039002  0.82833557  0.12304180  1
  In  In11  1  0.33810200  0.83161231  0.64227713  1
  In  In12  1  0.67585637  0.17531026  0.11948290  1
  In  In13  1  0.66357333  0.16293017  0.62523168  1
  In  In14  1  0.66282275  0.49381264  0.12148474  1
  In  In15  1  0.66249279  0.49520201  0.61900804  1
  In  In16  1  0.68139848  0.82957413  0.11733178  1
  In  In17  1  0.68373001  0.83578111  0.62597819  1
  In  In18  1  0.16431206  0.01114996  0.37602749  1
  In  In19  1  0.16495093  0.00143925  0.87598070  1
  In  In20  1  0.16975148  0.31907581  0.36959680  1
  In  In21  1  0.16734298  0.33264030  0.88652635  1
  In  In22  1  0.16815346  0.65599426  0.37151371  1
  In  In23  1  0.16472546  0.66960687  0.87665665  1
  In  In24  1  0.50568094  0.00944792  0.38108593  1
  In  In25  1  0.50831948  0.00331915  0.86407287  1
  In  In26  1  0.50178999  0.33092707  0.37432856  1
  In  In27  1  0.48742037  0.33078229  0.87280014  1
  In  In28  1  0.48422466  0.66260750  0.37742191  1
  In  In29  1  0.50019381  0.67969716  0.86492912  1
  In  In30  1  0.84399150  -0.00175576  0.38681192  1
  In  In31  1  0.83186073  0.00274008  0.87162711  1
  In  In32  1  0.82563551  0.33889932  0.37932070  1
  In  In33  1  0.83446433  0.32730805  0.88191224  1
  In  In34  1  0.83127229  0.66750915  0.38263871  1
  In  In35  1  0.84138738  0.65672433  0.88324222  1
  In  In36  1  0.00594569  0.15747023  0.38301117  1
  In  In37  1  0.00199596  0.16238681  0.87742752  1
  In  In38  1  -0.00391429  0.49552783  0.37706449  1
  In  In39  1  -0.00668362  0.50404437  0.88100102  1
  In  In40  1  -0.00644863  0.83758691  0.37758205  1
  In  In41  1  0.00166235  0.83558927  0.87525321  1
  In  In42  1  0.32658295  0.17822473  0.38607320  1
  In  In43  1  0.33702748  0.16241074  0.88100454  1
  In  In44  1  0.34382225  0.50293075  0.37301065  1
  In  In45  1  0.32275961  0.49481490  0.87421975  1
  In  In46  1  0.33246280  0.82618120  0.37078811  1
  In  In47  1  0.32763203  0.82664486  0.86677343  1
  In  In48  1  0.65787025  0.17643551  0.38252806  1
  In  In49  1  0.67780363  0.15162546  0.88137832  1
  In  In50  1  0.67343333  0.48831308  0.37892603  1
  In  In51  1  0.67546851  0.51155999  0.87540487  1
  In  In52  1  0.67300865  0.84375257  0.37758141  1
  In  In53  1  0.66284568  0.84759443  0.87259513  1
  In  In54  1  0.15083600  -0.01271860  0.11732243  1
  In  In55  1  0.16100481  0.01011922  0.63394649  1
  In  In56  1  0.17335638  0.34096427  0.12058934  1
  In  In57  1  0.17279147  0.31621111  0.62042858  1
  In  In58  1  0.17873531  0.67792412  0.11578669  1
  In  In59  1  0.15919115  0.67268777  0.63632140  1
  In  In60  1  0.48772342  0.00801851  0.12151187  1
  In  In61  1  0.48888995  0.00761672  0.63930126  1
  In  In62  1  0.51124699  0.32774682  0.13272462  1
  In  In63  1  0.49555813  0.33766818  0.61527784  1
  In  In64  1  0.49556139  0.65356054  0.12198794  1
  In  In65  1  0.49733569  0.65435405  0.62882341  1
  In  In66  1  0.84437035  0.00765987  0.11800655  1
  In  In67  1  0.83742727  -0.00007362  0.62998009  1
  In  In68  1  0.82932734  0.32660573  0.12244692  1
  In  In69  1  0.82894498  0.32641369  0.61891630  1
  In  In70  1  0.83428017  0.67423073  0.10639888  1
  In  In71  1  0.83601221  0.67775365  0.62265221  1
  In  In72  1  0.33143740  0.33635943  0.74495396  1
  In  In73  1  0.66358350  0.33040000  0.73908142  1
  In  In74  1  0.66801903  0.67175284  0.75032731  1
  In  In75  1  0.50676416  0.83316245  0.50047560  1
  In  In76  1  0.16202611  0.84204505  0.50378236  1
  In  In77  1  0.66409501  0.66084443  0.24291744  1
  In  In78  1  0.00257847  0.32476315  0.75362255  1
  In  In79  1  0.66382759  0.00352090  0.25701313  1
  In  In80  1  0.00250788  0.32829694  0.25355423  1
  In  In81  1  0.50289908  0.49914780  -0.00267510  1
  In  In82  1  0.32657800  0.00025852  0.25003685  1
  In  In83  1  0.00725146  0.67397808  0.24100402  1
  In  In84  1  0.50183697  0.83784747  -0.01079389  1
  In  In85  1  0.16499664  0.49417604  0.49965534  1
  Cu  Cu86  1  0.18239845  0.50023204  0.24680807  1
  Cu  Cu87  1  0.83439728  0.50044655  0.25185396  1
  Cu  Cu88  1  0.33461940  0.33284327  0.00224568  1
  Cu  Cu89  1  0.83655210  0.50173667  0.75345862  1
  Cu  Cu90  1  0.00472842  0.66650176  -0.00339671  1
  Cu  Cu91  1  -0.01067749  0.67529002  0.50613484  1
  Cu  Cu92  1  0.66612144  0.32853741  0.00279778  1
  Cu  Cu93  1  0.16614031  0.50792526  0.75256864  1
  Cu  Cu94  1  0.66694599  0.33657458  0.49969060  1
  Cu  Cu95  1  0.49111746  0.82359937  0.24832861  1
  Cu  Cu96  1  0.32683229  0.00604317  -0.00134035  1
  Cu  Cu97  1  0.83123092  0.16501598  0.24662732  1
  Cu  Cu98  1  0.49907839  0.49413289  0.25010162  1
  Cu  Cu99  1  0.16756212  0.16135689  0.74964526  1
  Cu  Cu100  1  -0.00282534  0.33298043  0.49488318  1
  Cu  Cu101  1  0.67484945  0.00040209  0.50494716  1
  Cu  Cu102  1  0.50291990  0.16641669  0.75115680  1
  Cu  Cu103  1  0.66634116  0.65860901  0.50403648  1
  Cu  Cu104  1  0.33158566  0.66058231  0.50344526  1
  Cu  Cu105  1  -0.00143614  0.32850135  0.00132096  1
  Cu  Cu106  1  0.66517496  0.00463507  -0.00511922  1
  Cu  Cu107  1  0.33103016  0.66924212  -0.00341456  1
  Cu  Cu108  1  -0.00321109  -0.00179233  -0.00579894  1
  Cu  Cu109  1  0.83986692  0.83511664  0.75248633  1
  Cu  Cu110  1  0.83616674  0.83852195  0.25149422  1
  Cu  Cu111  1  0.50109512  0.17306912  0.25236160  1
  Cu  Cu112  1  0.33481248  0.00236659  0.50682975  1
  Cu  Cu113  1  0.16850440  0.16284840  0.24932800  1
  Cu  Cu114  1  0.16484528  0.83545872  0.75652723  1
  Se  Se115  1  0.07992530  0.08155202  0.05025309  1
  Se  Se116  1  0.10738136  0.09471241  0.55323311  1
  Se  Se117  1  0.08393045  0.41440993  0.05138021  1
  Se  Se118  1  0.07291574  0.40881467  0.56266233  1
  Se  Se119  1  0.08425905  0.75164309  0.05196281  1
  Se  Se120  1  0.07312860  0.75230982  0.56460841  1
  Se  Se121  1  0.41579032  0.08795490  0.04743091  1
  Se  Se122  1  0.42496849  0.08164276  0.55651841  1
  Se  Se123  1  0.41629242  0.41401836  0.06274866  1
  Se  Se124  1  0.39818268  0.40743748  0.55104498  1
  Se  Se125  1  0.41410089  0.74862518  0.05591435  1
  Se  Se126  1  0.40975209  0.74879109  0.55926146  1
  Se  Se127  1  0.74916119  0.08227332  0.05390039  1
  Se  Se128  1  0.75439819  0.08444230  0.56004872  1
  Se  Se129  1  0.74895695  0.41378723  0.05479392  1
  Se  Se130  1  0.75247399  0.41824070  0.55328999  1
  Se  Se131  1  0.75073432  0.75549134  0.04027876  1
  Se  Se132  1  0.74827963  0.74937869  0.55052025  1
  Se  Se133  1  0.24827500  0.24950390  0.05304160  1
  Se  Se134  1  0.26720114  0.26393929  0.54778257  1
  Se  Se135  1  0.25382834  0.58167612  0.05197728  1
  Se  Se136  1  0.24521632  0.58896938  0.56358443  1
  Se  Se137  1  0.24687389  0.91707004  0.04951077  1
  Se  Se138  1  0.26006135  0.91870132  0.56692853  1
  Se  Se139  1  0.57884827  0.24741671  0.05442040  1
  Se  Se140  1  0.58813168  0.25347642  0.55718826  1
  Se  Se141  1  0.59547563  0.59426226  0.05188993  1
  Se  Se142  1  0.57689141  0.58033093  0.55394857  1
  Se  Se143  1  0.58729229  0.92514122  0.05969346  1
  Se  Se144  1  0.58837011  0.92419403  0.56407429  1
  Se  Se145  1  0.91438224  0.24593185  0.05526704  1
  Se  Se146  1  0.91734124  0.24966545  0.55108780  1
  Se  Se147  1  0.91953074  0.58211250  0.04845062  1
  Se  Se148  1  0.91053135  0.58343228  0.55524061  1
  Se  Se149  1  0.91460214  0.91414479  0.05007946  1
  Se  Se150  1  0.91263293  0.91418921  0.55744212  1
  Se  Se151  1  0.08554471  0.25288535  0.44454464  1
  Se  Se152  1  0.08198774  0.24584924  0.94808984  1
  Se  Se153  1  0.07146381  0.59408146  0.44652151  1
  Se  Se154  1  0.08737816  0.58002144  0.94550320  1
  Se  Se155  1  0.07225991  0.93175606  0.44627036  1
  Se  Se156  1  0.08558500  0.91567932  0.94580312  1
  Se  Se157  1  0.44136523  0.22914271  0.44086346  1
  Se  Se158  1  0.41796242  0.25073527  0.94843251  1
  Se  Se159  1  0.41705325  0.57853377  0.45250076  1
  Se  Se160  1  0.41433314  0.59182527  0.93673274  1
  Se  Se161  1  0.40799131  0.92096761  0.44156689  1
  Se  Se162  1  0.40670517  0.92707963  0.93561715  1
  Se  Se163  1  0.75086578  0.25085650  0.44887636  1
  Se  Se164  1  0.74959463  0.24502118  0.94860973  1
  Se  Se165  1  0.75006472  0.57920334  0.44604408  1
  Se  Se166  1  0.75682105  0.57549147  0.95081250  1
  Se  Se167  1  0.75400835  0.91473290  0.45077656  1
  Se  Se168  1  0.74871056  0.92050415  0.94356094  1
  Se  Se169  1  0.25228410  0.07995943  0.44787806  1
  Se  Se170  1  0.24249035  0.08986477  0.94641603  1
  Se  Se171  1  0.25312697  0.41125285  0.43530603  1
  Se  Se172  1  0.25132317  0.41906977  0.95182442  1
  Se  Se173  1  0.25059773  0.74231980  0.44559157  1
  Se  Se174  1  0.24950976  0.75501004  0.94438941  1
  Se  Se175  1  0.58860677  0.08240399  0.45263796  1
  Se  Se176  1  0.57533124  0.08267540  0.94374300  1
  Se  Se177  1  0.58034178  0.41716953  0.44596845  1
  Se  Se178  1  0.59169829  0.40728926  0.93659651  1
  Se  Se179  1  0.59260539  0.73940567  0.43742187  1
  Se  Se180  1  0.59456042  0.74121425  0.93899848  1
  Se  Se181  1  0.91195904  0.09386483  0.45254356  1
  Se  Se182  1  0.91258061  0.08409059  0.94450524  1
  Se  Se183  1  0.91320511  0.42044137  0.44715795  1
  Se  Se184  1  0.91638636  0.41328727  0.94731997  1
  Se  Se185  1  0.91164697  0.75647942  0.44695345  1
  Se  Se186  1  0.92036497  0.75083030  0.94514086  1
  Se  Se187  1  0.25660112  0.24324635  0.30033354  1
  Se  Se188  1  0.24368784  0.24840315  0.80896084  1
  Se  Se189  1  0.25862610  0.58480145  0.30400283  1
  Se  Se190  1  0.25060187  0.58663910  0.80734081  1
  Se  Se191  1  0.23799482  0.90955168  0.31003396  1
  Se  Se192  1  0.24902427  0.92232356  0.80524278  1
  Se  Se193  1  0.59001684  0.25322878  0.30292063  1
  Se  Se194  1  0.58178083  0.24693169  0.81098145  1
  Se  Se195  1  0.57808088  0.57800798  0.31068028  1
  Se  Se196  1  0.57764263  0.57481539  0.80492623  1
  Se  Se197  1  0.56787202  0.90549908  0.30857331  1
  Se  Se198  1  0.57069346  0.90213523  0.79889085  1
  Se  Se199  1  0.90957737  0.24279444  0.31252329  1
  Se  Se200  1  0.90505083  0.23857151  0.80787243  1
  Se  Se201  1  0.91526125  0.58508108  0.30609118  1
  Se  Se202  1  0.91982065  0.58452801  0.80538404  1
  Se  Se203  1  0.91482034  0.92129758  0.30724280  1
  Se  Se204  1  0.92110898  0.92046735  0.80601863  1
  Se  Se205  1  0.08111020  0.08577791  0.30317617  1
  Se  Se206  1  0.08200661  0.08343237  0.80499185  1
  Se  Se207  1  0.09478468  0.42724913  0.30715672  1
  Se  Se208  1  0.09086515  0.42059683  0.81108831  1
  Se  Se209  1  0.08916663  0.75646546  0.31160397  1
  Se  Se210  1  0.08096706  0.74881197  0.80596517  1
  Se  Se211  1  0.42109424  0.08768667  0.30858413  1
  Se  Se212  1  0.41438099  0.08871914  0.80477642  1
  Se  Se213  1  0.41654208  0.41181006  0.30444680  1
  Se  Se214  1  0.42256329  0.42861382  0.80329305  1
  Se  Se215  1  0.41016605  0.74095950  0.30163717  1
  Se  Se216  1  0.41845231  0.75663894  0.79683695  1
  Se  Se217  1  0.75590213  0.09005086  0.31542123  1
  Se  Se218  1  0.73789913  0.07207633  0.80243399  1
  Se  Se219  1  0.75127296  0.41555455  0.30171813  1
  Se  Se220  1  0.75451376  0.41706706  0.80678902  1
  Se  Se221  1  0.75285817  0.75434825  0.30505452  1
  Se  Se222  1  0.76007299  0.75450480  0.81366567  1
  Se  Se223  1  0.24371363  0.08604375  0.18266977  1
  Se  Se224  1  0.25917239  0.08646860  0.69591954  1
  Se  Se225  1  0.25817211  0.40804589  0.19653148  1
  Se  Se226  1  0.23586233  0.42525998  0.68705330  1
  Se  Se227  1  0.24889112  0.74359905  0.19872883  1
  Se  Se228  1  0.24679208  0.74964260  0.70369179  1
  Se  Se229  1  0.57727850  0.08954120  0.19119949  1
  Se  Se230  1  0.58831504  0.08294479  0.69988963  1
  Se  Se231  1  0.59009454  0.41810783  0.19857600  1
  Se  Se232  1  0.56812403  0.42647823  0.69166011  1
  Se  Se233  1  0.57714074  0.75767518  0.18445622  1
  Se  Se234  1  0.58091295  0.75624688  0.68526768  1
  Se  Se235  1  0.91652064  0.08018905  0.19822759  1
  Se  Se236  1  0.92955463  0.08014444  0.69369218  1
  Se  Se237  1  0.91702869  0.42131090  0.19197935  1
  Se  Se238  1  0.91171097  0.41743350  0.69197675  1
  Se  Se239  1  0.90768177  0.75827765  0.18589204  1
  Se  Se240  1  0.91769651  0.74499979  0.70001399  1
  Se  Se241  1  0.08846863  0.24318989  0.18765491  1
  Se  Se242  1  0.08572954  0.23711962  0.68837257  1
  Se  Se243  1  0.09542210  0.57532405  0.18783333  1
  Se  Se244  1  0.07585632  0.58654269  0.70218114  1
  Se  Se245  1  0.08345513  0.91407358  0.19743115  1
  Se  Se246  1  0.08500218  0.92002118  0.70059597  1
  Se  Se247  1  0.41584920  0.25126268  0.19618111  1
  Se  Se248  1  0.42311549  0.24415552  0.68912663  1
  Se  Se249  1  0.41843325  0.58244939  0.19814990  1
  Se  Se250  1  0.40248076  0.59451252  0.69900345  1
  Se  Se251  1  0.41712582  0.90812783  0.18833464  1
  Se  Se252  1  0.42050227  0.91566115  0.70687174  1
  Se  Se253  1  0.74883373  0.25153497  0.19748136  1
  Se  Se254  1  0.76301005  0.23725495  0.69449177  1
  Se  Se255  1  0.76365391  0.58010060  0.18477855  1
  Se  Se256  1  0.75385362  0.57613059  0.68997737  1
  Se  Se257  1  0.75291261  0.91767465  0.19231579  1
  Se  Se258  1  0.75348381  0.91753734  0.70115741  1
