# generated using pymatgen
data_In86Cu29Se144
_symmetry_space_group_name_H-M   'P 1'
_cell_length_a   17.59656708
_cell_length_b   17.59901961
_cell_length_c   23.45968993
_cell_angle_alpha   90.01925086
_cell_angle_beta   89.98618481
_cell_angle_gamma   89.98349249
_symmetry_Int_Tables_number   1
_chemical_formula_structural   In86Cu29Se144
_chemical_formula_sum   'In86 Cu29 Se144'
_cell_volume   7265.05049246
_cell_formula_units_Z   1
loop_
 _symmetry_equiv_pos_site_id
 _symmetry_equiv_pos_as_xyz
  1  'x, y, z'
loop_
 _atom_site_type_symbol
 _atom_site_label
 _atom_site_symmetry_multiplicity
 _atom_site_fract_x
 _atom_site_fract_y
 _atom_site_fract_z
 _atom_site_occupancy
  In  In0  1  0.00086716  0.16855719  0.11913544  1
  In  In1  1  0.00234478  0.16632199  0.63213189  1
  In  In2  1  0.01172161  0.50862383  0.13022311  1
  In  In3  1  -0.00723092  0.48948416  0.61927077  1
  In  In4  1  -0.01260410  0.83831068  0.13388869  1
  In  In5  1  0.01208093  0.84984163  0.61920215  1
  In  In6  1  0.32925985  0.16041887  0.11673476  1
  In  In7  1  0.32009639  0.14920586  0.62365849  1
  In  In8  1  0.32082198  0.49898447  0.12475578  1
  In  In9  1  0.33449522  0.51622720  0.62640161  1
  In  In10  1  0.35145283  0.82424935  0.11660372  1
  In  In11  1  0.33085991  0.83898790  0.63259067  1
  In  In12  1  0.66419956  0.16152206  0.12746347  1
  In  In13  1  0.65833958  0.16472300  0.60772752  1
  In  In14  1  0.67316323  0.49646801  0.13437202  1
  In  In15  1  0.68102649  0.49940066  0.61810203  1
  In  In16  1  0.66011727  0.84394370  0.13236909  1
  In  In17  1  0.66371090  0.83828538  0.62128804  1
  In  In18  1  0.15770217  0.00557175  0.38684174  1
  In  In19  1  0.19178367  0.02355609  0.83918488  1
  In  In20  1  0.17058496  0.32955218  0.38646181  1
  In  In21  1  0.14875656  0.33251155  0.86300463  1
  In  In22  1  0.15320280  0.67255809  0.38946852  1
  In  In23  1  0.17223761  0.66725359  0.86571905  1
  In  In24  1  0.50763958  -0.01380081  0.38070804  1
  In  In25  1  0.50241032  -0.00216382  0.87177291  1
  In  In26  1  0.51405380  0.31419241  0.38362596  1
  In  In27  1  0.48773720  0.32367172  0.87465865  1
  In  In28  1  0.51658537  0.67243513  0.37409844  1
  In  In29  1  0.50649948  0.67325235  0.87105331  1
  In  In30  1  0.82305068  0.00670587  0.38235935  1
  In  In31  1  0.83850506  0.01133499  0.86375173  1
  In  In32  1  0.82159324  0.33104284  0.38220275  1
  In  In33  1  0.82803008  0.31146398  0.87371609  1
  In  In34  1  0.83282281  0.66871009  0.38121800  1
  In  In35  1  0.83388485  0.68407238  0.87223928  1
  In  In36  1  -0.00348212  0.16935127  0.38176123  1
  In  In37  1  0.00281718  0.16018205  0.86787091  1
  In  In38  1  -0.01533345  0.50608100  0.38865186  1
  In  In39  1  0.01444824  0.49970326  0.86997327  1
  In  In40  1  0.00460406  0.82871453  0.38663659  1
  In  In41  1  -0.00477312  0.84458517  0.87144723  1
  In  In42  1  0.33193031  0.16670297  0.38357898  1
  In  In43  1  0.34265983  0.15862179  0.87947709  1
  In  In44  1  0.32952632  0.49433759  0.38208015  1
  In  In45  1  0.32214220  0.49784106  0.86881974  1
  In  In46  1  0.32821714  0.83503384  0.38525172  1
  In  In47  1  0.33775187  0.84390190  0.86444331  1
  In  In48  1  0.67075960  0.15563694  0.37151054  1
  In  In49  1  0.67157002  0.15497187  0.87981855  1
  In  In50  1  0.68059273  0.51657912  0.36862571  1
  In  In51  1  0.65925023  0.50514801  0.87314366  1
  In  In52  1  0.66902169  0.83273723  0.38020836  1
  In  In53  1  0.66145408  0.82935034  0.86546902  1
  In  In54  1  0.15873965  0.00623459  0.12026242  1
  In  In55  1  0.16549668  0.00336527  0.63725383  1
  In  In56  1  0.17078636  0.33283732  0.12612822  1
  In  In57  1  0.14565711  0.30758854  0.61834317  1
  In  In58  1  0.16919518  0.66566156  0.12910169  1
  In  In59  1  0.18236672  0.68099574  0.61738840  1
  In  In60  1  0.50590284  0.00644507  0.11485584  1
  In  In61  1  0.50062501  0.00167135  0.62404592  1
  In  In62  1  0.51451177  0.32834508  0.12947389  1
  In  In63  1  0.51189102  0.31788566  0.61816404  1
  In  In64  1  0.50118069  0.67830848  0.11924317  1
  In  In65  1  0.48688213  0.68479101  0.63192423  1
  In  In66  1  0.81977816  0.00494550  0.13421922  1
  In  In67  1  0.83319821  0.00009743  0.62143119  1
  In  In68  1  0.83082807  0.31778702  0.12821337  1
  In  In69  1  0.83622027  0.33952598  0.61307826  1
  In  In70  1  0.82200755  0.69165580  0.14992277  1
  In  In71  1  0.82365754  0.66051978  0.61729093  1
  In  In72  1  -0.01046782  0.00100003  0.26195851  1
  In  In73  1  0.82877102  0.84380551  0.00941397  1
  In  In74  1  0.33264796  0.00439753  0.24330987  1
  In  In75  1  0.33845958  0.66519379  0.24448542  1
  In  In76  1  0.49839707  0.50639281  0.49936280  1
  In  In77  1  -0.00246421  0.66955590  0.74207697  1
  In  In78  1  0.17091768  0.84004707  -0.01171303  1
  In  In79  1  0.49672524  0.49220238  -0.00408463  1
  In  In80  1  0.84406092  0.49854342  0.00694326  1
  In  In81  1  0.33202960  0.33785129  0.74380204  1
  In  In82  1  0.67139903  0.33544603  0.74448179  1
  In  In83  1  0.34319394  0.32946534  0.26099402  1
  In  In84  1  0.16933652  0.49843564  0.00262651  1
  In  In85  1  -0.00600955  0.33912200  0.26022082  1
  Cu  Cu86  1  0.16472489  0.50020715  0.74192862  1
  Cu  Cu87  1  0.66539052  0.31673407  0.00290352  1
  Cu  Cu88  1  0.00045911  0.01407383  -0.00656163  1
  Cu  Cu89  1  0.50775470  0.83189259  0.25337934  1
  Cu  Cu90  1  -0.00463204  0.66114974  0.50700929  1
  Cu  Cu91  1  0.33034201  -0.00263713  -0.01082901  1
  Cu  Cu92  1  0.50630943  0.49732877  0.25218732  1
  Cu  Cu93  1  0.32869539  0.67541670  0.50489947  1
  Cu  Cu94  1  0.00325505  0.32516616  0.50015935  1
  Cu  Cu95  1  0.33059623  0.32286733  0.00155249  1
  Cu  Cu96  1  0.82196592  0.83250688  0.74167859  1
  Cu  Cu97  1  0.66351425  0.00101096  0.49980192  1
  Cu  Cu98  1  0.00496243  0.67349133  0.00851594  1
  Cu  Cu99  1  0.50732729  0.15654419  0.25093638  1
  Cu  Cu100  1  0.50558070  0.83878789  0.74867106  1
  Cu  Cu101  1  0.33098847  0.33481162  0.50394693  1
  Cu  Cu102  1  0.16372573  0.50754081  0.25901517  1
  Cu  Cu103  1  0.00213740  0.00086545  0.50650393  1
  Cu  Cu104  1  0.83602044  0.50379592  0.25777654  1
  Cu  Cu105  1  0.66574287  0.66231231  -0.00410388  1
  Cu  Cu106  1  0.83742871  0.49879189  0.74350548  1
  Cu  Cu107  1  0.66280788  0.67373153  0.49920596  1
  Cu  Cu108  1  0.33264148  0.00180469  0.50642444  1
  Cu  Cu109  1  0.50683028  0.51111301  0.74530527  1
  Cu  Cu110  1  -0.00472471  0.32435924  -0.00829595  1
  Cu  Cu111  1  0.66487969  -0.00333083  -0.00138510  1
  Cu  Cu112  1  0.83538709  0.16731950  0.74526103  1
  Cu  Cu113  1  0.16469088  0.83490332  0.25868291  1
  Cu  Cu114  1  0.50420531  0.16172726  0.74672041  1
  Se  Se115  1  0.08764992  0.09172034  0.04879007  1
  Se  Se116  1  0.08539551  0.08254796  0.56246378  1
  Se  Se117  1  0.07027563  0.40663458  0.05603607  1
  Se  Se118  1  0.08443498  0.41145983  0.55357163  1
  Se  Se119  1  0.08588648  0.75854038  0.06251187  1
  Se  Se120  1  0.08001370  0.74814962  0.55577957  1
  Se  Se121  1  0.41098628  0.07806523  0.04912058  1
  Se  Se122  1  0.41901188  0.08814639  0.55469382  1
  Se  Se123  1  0.40697903  0.40542330  0.06244379  1
  Se  Se124  1  0.41423935  0.41268208  0.56342880  1
  Se  Se125  1  0.42084760  0.74303354  0.04316872  1
  Se  Se126  1  0.41183842  0.76040922  0.55603818  1
  Se  Se127  1  0.74640040  0.07751629  0.05634937  1
  Se  Se128  1  0.75344095  0.08257193  0.54889366  1
  Se  Se129  1  0.74249810  0.40800989  0.05549021  1
  Se  Se130  1  0.74103865  0.40889319  0.54637440  1
  Se  Se131  1  0.74351920  0.74002362  0.05946995  1
  Se  Se132  1  0.74838512  0.75439069  0.55260436  1
  Se  Se133  1  0.24159928  0.24698604  0.05429586  1
  Se  Se134  1  0.25186675  0.24651730  0.55652924  1
  Se  Se135  1  0.26184944  0.59841033  0.05331806  1
  Se  Se136  1  0.24998036  0.58181673  0.55046473  1
  Se  Se137  1  0.25945074  0.92180223  0.06016606  1
  Se  Se138  1  0.24849089  0.92374037  0.56402210  1
  Se  Se139  1  0.57709146  0.24021127  0.05550158  1
  Se  Se140  1  0.59536661  0.26333496  0.53995890  1
  Se  Se141  1  0.59168649  0.57837576  0.05691252  1
  Se  Se142  1  0.58257372  0.59574921  0.56365146  1
  Se  Se143  1  0.58390296  0.91072006  0.05192071  1
  Se  Se144  1  0.57827665  0.91785995  0.55170865  1
  Se  Se145  1  0.91349886  0.24915983  0.05243549  1
  Se  Se146  1  0.92131120  0.24403027  0.55705299  1
  Se  Se147  1  0.92175218  0.59723467  0.06716299  1
  Se  Se148  1  0.90898512  0.57438568  0.55289749  1
  Se  Se149  1  0.92725133  0.93656311  0.06041563  1
  Se  Se150  1  0.91394377  0.91468160  0.55167910  1
  Se  Se151  1  0.08883737  0.24143121  0.44994108  1
  Se  Se152  1  0.08321358  0.24786095  0.93805711  1
  Se  Se153  1  0.08113807  0.57747777  0.45454943  1
  Se  Se154  1  0.07993964  0.59558188  0.94453454  1
  Se  Se155  1  0.08575785  0.91486154  0.45402938  1
  Se  Se156  1  0.07946652  0.93244422  0.93548549  1
  Se  Se157  1  0.41399747  0.25255365  0.44957778  1
  Se  Se158  1  0.42008635  0.24386384  0.95101266  1
  Se  Se159  1  0.40866263  0.59992931  0.43907917  1
  Se  Se160  1  0.41116674  0.58173270  0.93452216  1
  Se  Se161  1  0.41298143  0.91843857  0.44959262  1
  Se  Se162  1  0.41754668  0.91486107  0.94084721  1
  Se  Se163  1  0.74862488  0.23580145  0.44485561  1
  Se  Se164  1  0.75263217  0.23857845  0.94969239  1
  Se  Se165  1  0.74848014  0.58585849  0.45191464  1
  Se  Se166  1  0.75386072  0.58704217  0.94093926  1
  Se  Se167  1  0.74959294  0.91512987  0.45056137  1
  Se  Se168  1  0.74753297  0.92262706  0.93566223  1
  Se  Se169  1  0.24906341  0.08418970  0.45088131  1
  Se  Se170  1  0.24412066  0.07611991  0.93537240  1
  Se  Se171  1  0.24728048  0.41971191  0.45353001  1
  Se  Se172  1  0.25228902  0.40272830  0.93968881  1
  Se  Se173  1  0.24190183  0.75623085  0.45217161  1
  Se  Se174  1  0.26006359  0.74409708  0.93543852  1
  Se  Se175  1  0.58006988  0.08271294  0.44398593  1
  Se  Se176  1  0.58018885  0.08004212  0.94602105  1
  Se  Se177  1  0.58843507  0.42647541  0.43456797  1
  Se  Se178  1  0.59284125  0.39987025  0.93920407  1
  Se  Se179  1  0.57606108  0.75793502  0.45094212  1
  Se  Se180  1  0.58938272  0.75057996  0.94294861  1
  Se  Se181  1  0.92028036  0.07885095  0.44734797  1
  Se  Se182  1  0.91090438  0.09006228  0.94056967  1
  Se  Se183  1  0.91420888  0.40638219  0.44960451  1
  Se  Se184  1  0.92197089  0.41258109  0.93443743  1
  Se  Se185  1  0.91653705  0.74740041  0.45246110  1
  Se  Se186  1  0.92407698  0.75158302  0.94887679  1
  Se  Se187  1  0.24217564  0.24230082  0.30947143  1
  Se  Se188  1  0.25388038  0.24985197  0.81129060  1
  Se  Se189  1  0.24934180  0.58723894  0.31422316  1
  Se  Se190  1  0.24850461  0.58074375  0.79631432  1
  Se  Se191  1  0.24589039  0.91933047  0.31234525  1
  Se  Se192  1  0.24089908  0.90091781  0.79396129  1
  Se  Se193  1  0.58592943  0.24441213  0.30353470  1
  Se  Se194  1  0.58085162  0.24686475  0.80651119  1
  Se  Se195  1  0.58592508  0.58868645  0.30027515  1
  Se  Se196  1  0.58997582  0.59018600  0.80113168  1
  Se  Se197  1  0.58985715  0.91558052  0.30564249  1
  Se  Se198  1  0.59004881  0.92417838  0.79981242  1
  Se  Se199  1  0.90503711  0.24137126  0.30963139  1
  Se  Se200  1  0.91761927  0.24875832  0.80133095  1
  Se  Se201  1  0.91900337  0.58649699  0.31059083  1
  Se  Se202  1  0.91120545  0.57996104  0.81013213  1
  Se  Se203  1  0.90802899  0.90550851  0.31962758  1
  Se  Se204  1  0.90442213  0.90922940  0.80035964  1
  Se  Se205  1  0.08882711  0.09270062  0.30989832  1
  Se  Se206  1  0.06183354  0.06159313  0.79791064  1
  Se  Se207  1  0.08881210  0.42479547  0.31949957  1
  Se  Se208  1  0.07678691  0.41900597  0.79119140  1
  Se  Se209  1  0.08438050  0.75089425  0.31111582  1
  Se  Se210  1  0.08367300  0.75696400  0.80613455  1
  Se  Se211  1  0.42051302  0.08472579  0.31145222  1
  Se  Se212  1  0.41980954  0.08391325  0.80315347  1
  Se  Se213  1  0.43253167  0.42309319  0.31786101  1
  Se  Se214  1  0.42855009  0.42685955  0.80417661  1
  Se  Se215  1  0.41825803  0.75842670  0.30941256  1
  Se  Se216  1  0.42299329  0.75380027  0.80260488  1
  Se  Se217  1  0.74788862  0.07059705  0.30109798  1
  Se  Se218  1  0.74636222  0.08905427  0.79820708  1
  Se  Se219  1  0.75302587  0.41666378  0.30647722  1
  Se  Se220  1  0.75958275  0.42342014  0.81119803  1
  Se  Se221  1  0.73366774  0.73253787  0.31470359  1
  Se  Se222  1  0.74654717  0.74530738  0.79766208  1
  Se  Se223  1  0.23603018  0.09548635  0.19301750  1
  Se  Se224  1  0.25162600  0.08394283  0.70652306  1
  Se  Se225  1  0.24350696  0.42249207  0.20355064  1
  Se  Se226  1  0.24152074  0.41929298  0.67975290  1
  Se  Se227  1  0.24844950  0.76684945  0.19246251  1
  Se  Se228  1  0.25405292  0.74560256  0.69807805  1
  Se  Se229  1  0.58447595  0.07092269  0.19486308  1
  Se  Se230  1  0.58921046  0.08868101  0.68790723  1
  Se  Se231  1  0.58823563  0.41213214  0.20025525  1
  Se  Se232  1  0.57736489  0.42456683  0.68535291  1
  Se  Se233  1  0.58294039  0.74684690  0.19450843  1
  Se  Se234  1  0.58715229  0.75349982  0.69493546  1
  Se  Se235  1  0.91218183  0.09380802  0.19382825  1
  Se  Se236  1  0.91492350  0.07829259  0.69455173  1
  Se  Se237  1  0.91094619  0.42673090  0.18976012  1
  Se  Se238  1  0.91446899  0.40992794  0.69262756  1
  Se  Se239  1  0.93981882  0.73738473  0.20326395  1
  Se  Se240  1  0.90794686  0.75669194  0.68153265  1
  Se  Se241  1  0.08317040  0.25235192  0.19399114  1
  Se  Se242  1  0.08566629  0.24383352  0.70432184  1
  Se  Se243  1  0.08726369  0.59132048  0.20226901  1
  Se  Se244  1  0.08594642  0.58174255  0.68057619  1
  Se  Se245  1  0.08916975  0.91789421  0.19749209  1
  Se  Se246  1  0.07684055  0.91905466  0.70172395  1
  Se  Se247  1  0.42082620  0.23626234  0.19276655  1
  Se  Se248  1  0.42280292  0.24335256  0.68899974  1
  Se  Se249  1  0.42692280  0.56964312  0.18683691  1
  Se  Se250  1  0.41414862  0.59088262  0.69984116  1
  Se  Se251  1  0.42660530  0.91005080  0.19096762  1
  Se  Se252  1  0.42065280  0.92223089  0.69674122  1
  Se  Se253  1  0.73753436  0.25381293  0.19493993  1
  Se  Se254  1  0.75455338  0.24409872  0.68277351  1
  Se  Se255  1  0.75062360  0.58376037  0.20196348  1
  Se  Se256  1  0.75020261  0.58075131  0.69495173  1
  Se  Se257  1  0.78357070  0.88112196  0.18543530  1
  Se  Se258  1  0.74453899  0.92259239  0.69068066  1
