# generated using pymatgen
data_In86Cu29Se144
_symmetry_space_group_name_H-M   'P 1'
_cell_length_a   17.57852960
_cell_length_b   17.57628586
_cell_length_c   23.43641241
_cell_angle_alpha   90.01579209
_cell_angle_beta   90.02270542
_cell_angle_gamma   90.00076870
_symmetry_Int_Tables_number   1
_chemical_formula_structural   In86Cu29Se144
_chemical_formula_sum   'In86 Cu29 Se144'
_cell_volume   7241.03643954
_cell_formula_units_Z   1
loop_
 _symmetry_equiv_pos_site_id
 _symmetry_equiv_pos_as_xyz
  1  'x, y, z'
loop_
 _atom_site_type_symbol
 _atom_site_label
 _atom_site_symmetry_multiplicity
 _atom_site_fract_x
 _atom_site_fract_y
 _atom_site_fract_z
 _atom_site_occupancy
  In  In0  1  0.00541709  0.18161380  0.11105586  1
  In  In1  1  -0.00387681  0.16944190  0.62965121  1
  In  In2  1  -0.00345869  0.50313078  0.12867835  1
  In  In3  1  0.00378565  0.49861717  0.62053154  1
  In  In4  1  0.00094599  0.82909734  0.13011594  1
  In  In5  1  0.00574622  0.82950385  0.62616980  1
  In  In6  1  0.32737814  0.18104491  0.11948353  1
  In  In7  1  0.32842144  0.16895081  0.63503463  1
  In  In8  1  0.34417877  0.50210518  0.12413264  1
  In  In9  1  0.32459472  0.50798847  0.62729795  1
  In  In10  1  0.33010291  0.81335298  0.12842538  1
  In  In11  1  0.32815138  0.82649467  0.62549473  1
  In  In12  1  0.68065926  0.16250874  0.12433865  1
  In  In13  1  0.68120962  0.17081915  0.62569942  1
  In  In14  1  0.65805807  0.50931235  0.13574784  1
  In  In15  1  0.67101601  0.48509488  0.62437457  1
  In  In16  1  0.65630099  0.83674439  0.12529694  1
  In  In17  1  0.65881093  0.82416122  0.61256581  1
  In  In18  1  0.15816143  -0.00686458  0.38172446  1
  In  In19  1  0.17347777  0.00412753  0.86501876  1
  In  In20  1  0.16580122  0.35635930  0.38031740  1
  In  In21  1  0.15219419  0.31978903  0.86554550  1
  In  In22  1  0.16147761  0.66887943  0.37283706  1
  In  In23  1  0.16513501  0.66354730  0.86037105  1
  In  In24  1  0.49013951  -0.00447080  0.37676202  1
  In  In25  1  0.48291527  -0.00567750  0.87416876  1
  In  In26  1  0.50539413  0.33079032  0.36977862  1
  In  In27  1  0.50916889  0.34165929  0.87042167  1
  In  In28  1  0.50433876  0.67176359  0.37271839  1
  In  In29  1  0.48843225  0.67525133  0.88604240  1
  In  In30  1  0.83997168  -0.00159335  0.38725297  1
  In  In31  1  0.85021622  0.00334010  0.86942321  1
  In  In32  1  0.83648666  0.33304013  0.37508615  1
  In  In33  1  0.83277298  0.33452917  0.87245476  1
  In  In34  1  0.83491807  0.66104149  0.37775201  1
  In  In35  1  0.84397505  0.66043536  0.87237878  1
  In  In36  1  -0.01171931  0.16255000  0.37612570  1
  In  In37  1  0.00169428  0.17219449  0.87758238  1
  In  In38  1  -0.00163153  0.49872840  0.37501798  1
  In  In39  1  0.00458443  0.50089996  0.86594159  1
  In  In40  1  0.02124599  0.80787371  0.39189396  1
  In  In41  1  0.00967326  0.83435011  0.85567951  1
  In  In42  1  0.33897355  0.17030245  0.37545470  1
  In  In43  1  0.31935459  0.15828457  0.86581726  1
  In  In44  1  0.30763120  0.51622372  0.39558714  1
  In  In45  1  0.34136709  0.50836817  0.86881663  1
  In  In46  1  0.33246150  0.82355701  0.38584009  1
  In  In47  1  0.32915603  0.83562372  0.86670839  1
  In  In48  1  0.66987515  0.18407266  0.36911161  1
  In  In49  1  0.66696176  0.18494832  0.87626411  1
  In  In50  1  0.67286720  0.50654928  0.36784689  1
  In  In51  1  0.66891702  0.48873354  0.87703075  1
  In  In52  1  0.67877684  0.82659756  0.38354785  1
  In  In53  1  0.65921457  0.81991381  0.87708335  1
  In  In54  1  0.15597629  0.00400693  0.12297785  1
  In  In55  1  0.18299670  -0.02508095  0.64723517  1
  In  In56  1  0.16644239  0.32806090  0.11828187  1
  In  In57  1  0.16518778  0.34064108  0.62609797  1
  In  In58  1  0.16662424  0.67352859  0.13772815  1
  In  In59  1  0.17383664  0.66277638  0.62166335  1
  In  In60  1  0.51019210  -0.00372390  0.12027950  1
  In  In61  1  0.49227231  -0.01566791  0.62497291  1
  In  In62  1  0.49379367  0.34786765  0.12702648  1
  In  In63  1  0.50171234  0.33835248  0.63606874  1
  In  In64  1  0.49825459  0.66712346  0.12819709  1
  In  In65  1  0.48221119  0.66970981  0.62275704  1
  In  In66  1  0.82575939  0.00554312  0.12025059  1
  In  In67  1  0.84403861  0.00567247  0.61875863  1
  In  In68  1  0.84070473  0.32715072  0.13165417  1
  In  In69  1  0.83903102  0.33267360  0.62332400  1
  In  In70  1  0.83853914  0.65865140  0.13569658  1
  In  In71  1  0.84846177  0.67590862  0.61262365  1
  In  In72  1  0.67111803  0.65740307  0.75063781  1
  In  In73  1  0.33501076  -0.00087241  0.25934349  1
  In  In74  1  0.50049857  0.50426097  0.50154204  1
  In  In75  1  0.66768001  0.00067795  0.24505489  1
  In  In76  1  0.15928093  0.16479905  0.51343235  1
  In  In77  1  0.16907473  0.83530572  -0.00039686  1
  In  In78  1  0.49815800  0.17069372  -0.00317037  1
  In  In79  1  0.66570083  0.00280127  0.74140436  1
  In  In80  1  0.83339033  0.83517164  -0.00363275  1
  In  In81  1  0.16380026  0.49954127  -0.00802751  1
  In  In82  1  0.83439178  0.49907973  0.00228845  1
  In  In83  1  0.50347784  0.16622700  0.49263302  1
  In  In84  1  -0.00379064  -0.00679148  0.24925184  1
  In  In85  1  0.33405268  0.34285509  0.25410432  1
  Cu  Cu86  1  0.66838227  0.66143228  0.49400920  1
  Cu  Cu87  1  0.16310414  0.17246693  0.24510056  1
  Cu  Cu88  1  0.49776055  0.16694159  0.75541203  1
  Cu  Cu89  1  0.32824310  -0.00313016  0.50437838  1
  Cu  Cu90  1  0.84322254  0.49834252  0.74631260  1
  Cu  Cu91  1  0.50107542  0.82933838  0.25118491  1
  Cu  Cu92  1  0.00100739  0.65860231  0.50003010  1
  Cu  Cu93  1  0.66517809  -0.00021374  -0.00099519  1
  Cu  Cu94  1  0.66016817  0.66381407  0.00809659  1
  Cu  Cu95  1  0.67608137  0.32972553  0.49899470  1
  Cu  Cu96  1  0.49863360  0.50221910  0.74879418  1
  Cu  Cu97  1  0.83844360  0.83299006  0.73908248  1
  Cu  Cu98  1  0.83237454  0.17579563  0.74941042  1
  Cu  Cu99  1  0.32778155  0.33343175  -0.00542023  1
  Cu  Cu100  1  0.49504951  0.50463634  0.25342429  1
  Cu  Cu101  1  0.00071349  -0.00709053  0.50839599  1
  Cu  Cu102  1  0.83584998  0.17146561  0.24939339  1
  Cu  Cu103  1  0.83768794  0.82355564  0.25966125  1
  Cu  Cu104  1  0.66584441  0.33821541  0.00052421  1
  Cu  Cu105  1  0.49031824  0.83004081  0.74968887  1
  Cu  Cu106  1  0.66955110  0.00114242  0.50536624  1
  Cu  Cu107  1  0.00272594  0.00926199  -0.00458882  1
  Cu  Cu108  1  0.33556206  0.66260484  0.00141384  1
  Cu  Cu109  1  -0.00061087  0.33128900  0.50134625  1
  Cu  Cu110  1  0.15943765  0.16882691  0.74910281  1
  Cu  Cu111  1  0.83273412  0.49552849  0.25427266  1
  Cu  Cu112  1  0.17096245  0.49506617  0.74521792  1
  Cu  Cu113  1  0.16130341  0.50393093  0.25473830  1
  Cu  Cu114  1  0.33358351  -0.00437965  -0.00886557  1
  Se  Se115  1  0.08838555  0.08869353  0.04956183  1
  Se  Se116  1  0.08179496  0.06686677  0.57259211  1
  Se  Se117  1  0.07369250  0.41467103  0.05553702  1
  Se  Se118  1  0.08639076  0.41476631  0.55027141  1
  Se  Se119  1  0.07994207  0.74335704  0.05815989  1
  Se  Se120  1  0.08172678  0.74312592  0.55521888  1
  Se  Se121  1  0.40874111  0.07728094  0.05694567  1
  Se  Se122  1  0.41078158  0.08257892  0.55867608  1
  Se  Se123  1  0.41091187  0.41380019  0.05006675  1
  Se  Se124  1  0.41614008  0.41339808  0.56324462  1
  Se  Se125  1  0.41713950  0.74844082  0.05477308  1
  Se  Se126  1  0.42479800  0.76583640  0.55418521  1
  Se  Se127  1  0.75089051  0.08522795  0.04596421  1
  Se  Se128  1  0.75366073  0.08698708  0.55360905  1
  Se  Se129  1  0.74238076  0.41639093  0.06568591  1
  Se  Se130  1  0.75688110  0.41549772  0.55165125  1
  Se  Se131  1  0.74828721  0.74432787  0.06209955  1
  Se  Se132  1  0.75043537  0.74703866  0.54826359  1
  Se  Se133  1  0.24414440  0.24808976  0.04425047  1
  Se  Se134  1  0.25996055  0.25566821  0.55886796  1
  Se  Se135  1  0.24859171  0.58793412  0.06005927  1
  Se  Se136  1  0.25316650  0.58099301  0.54962381  1
  Se  Se137  1  0.25991820  0.92291020  0.06306679  1
  Se  Se138  1  0.24466488  0.91510372  0.55780071  1
  Se  Se139  1  0.58659725  0.25609571  0.06178919  1
  Se  Se140  1  0.58803372  0.25675633  0.55860501  1
  Se  Se141  1  0.57717473  0.57883148  0.05880344  1
  Se  Se142  1  0.59256640  0.59091665  0.56488696  1
  Se  Se143  1  0.58244544  0.91275734  0.04733189  1
  Se  Se144  1  0.57937800  0.91855371  0.55084280  1
  Se  Se145  1  0.90011074  0.24528317  0.05207561  1
  Se  Se146  1  0.91788606  0.24528641  0.55369235  1
  Se  Se147  1  0.92443285  0.59670427  0.05493949  1
  Se  Se148  1  0.91467182  0.57389780  0.54972539  1
  Se  Se149  1  0.92747810  0.92551403  0.05778917  1
  Se  Se150  1  0.91432919  0.90629410  0.55601942  1
  Se  Se151  1  0.08101603  0.25059544  0.44046508  1
  Se  Se152  1  0.08501161  0.25191753  0.94759068  1
  Se  Se153  1  0.08464250  0.57891543  0.44295282  1
  Se  Se154  1  0.07538632  0.59650007  0.93787406  1
  Se  Se155  1  0.08605941  0.91209998  0.45514827  1
  Se  Se156  1  0.07744917  0.92160738  0.93741565  1
  Se  Se157  1  0.40999912  0.26494595  0.44471765  1
  Se  Se158  1  0.40889282  0.25399995  0.93286398  1
  Se  Se159  1  0.41148204  0.60023228  0.44784816  1
  Se  Se160  1  0.41779969  0.57607010  0.94993701  1
  Se  Se161  1  0.41392011  0.91727740  0.44907976  1
  Se  Se162  1  0.41320784  0.90456214  0.94439227  1
  Se  Se163  1  0.75665933  0.24449682  0.44519303  1
  Se  Se164  1  0.75154843  0.25770192  0.94790825  1
  Se  Se165  1  0.75187851  0.57469028  0.44608088  1
  Se  Se166  1  0.74269143  0.59380641  0.94251248  1
  Se  Se167  1  0.75315039  0.91616612  0.45198508  1
  Se  Se168  1  0.74363431  0.92428272  0.93294316  1
  Se  Se169  1  0.25396850  0.08197560  0.44356781  1
  Se  Se170  1  0.24757632  0.08012958  0.94331990  1
  Se  Se171  1  0.25440108  0.40865323  0.45719150  1
  Se  Se172  1  0.25212484  0.41149668  0.93049522  1
  Se  Se173  1  0.23016293  0.75784587  0.44614931  1
  Se  Se174  1  0.25260793  0.73851438  0.93989549  1
  Se  Se175  1  0.59638931  0.07564657  0.43491963  1
  Se  Se176  1  0.58582086  0.07787702  0.93491138  1
  Se  Se177  1  0.59138901  0.41130399  0.44243677  1
  Se  Se178  1  0.57986092  0.41990916  0.94931388  1
  Se  Se179  1  0.58395981  0.74942561  0.44667951  1
  Se  Se180  1  0.58064547  0.75040713  0.95356890  1
  Se  Se181  1  0.92322292  0.08200362  0.45482390  1
  Se  Se182  1  0.91306926  0.08833685  0.94530641  1
  Se  Se183  1  0.91732153  0.41468449  0.44571755  1
  Se  Se184  1  0.92597531  0.41552313  0.94048946  1
  Se  Se185  1  0.91330064  0.74458467  0.45027631  1
  Se  Se186  1  0.92820423  0.75331681  0.93569629  1
  Se  Se187  1  0.24078963  0.24803496  0.31096733  1
  Se  Se188  1  0.24963967  0.25237417  0.79832814  1
  Se  Se189  1  0.25004031  0.58213360  0.30715444  1
  Se  Se190  1  0.25392031  0.58066789  0.79782148  1
  Se  Se191  1  0.24182142  0.90961009  0.31281287  1
  Se  Se192  1  0.23672530  0.90487710  0.79984104  1
  Se  Se193  1  0.58261001  0.25233369  0.29839261  1
  Se  Se194  1  0.58537260  0.25287228  0.80063622  1
  Se  Se195  1  0.58354380  0.58728405  0.30339630  1
  Se  Se196  1  0.57590675  0.58004906  0.81485885  1
  Se  Se197  1  0.58164900  0.91203247  0.30996598  1
  Se  Se198  1  0.57882693  0.90980345  0.80561178  1
  Se  Se199  1  0.92106976  0.25089296  0.30390810  1
  Se  Se200  1  0.91839282  0.25297536  0.80571652  1
  Se  Se201  1  0.91627054  0.58184925  0.30539850  1
  Se  Se202  1  0.92292483  0.58695483  0.79813242  1
  Se  Se203  1  0.91644545  0.90669355  0.31760783  1
  Se  Se204  1  0.91680795  0.91795820  0.79550033  1
  Se  Se205  1  0.08955088  0.08808146  0.30702413  1
  Se  Se206  1  0.07874389  0.08676258  0.80589048  1
  Se  Se207  1  0.07990949  0.41435834  0.30282999  1
  Se  Se208  1  0.08279661  0.41501277  0.79778262  1
  Se  Se209  1  0.07489894  0.74625733  0.30249789  1
  Se  Se210  1  0.09399248  0.75238916  0.79129797  1
  Se  Se211  1  0.43202081  0.09797521  0.30494210  1
  Se  Se212  1  0.41322575  0.07906658  0.80173518  1
  Se  Se213  1  0.41466299  0.43357270  0.32009077  1
  Se  Se214  1  0.41798225  0.41583569  0.80262676  1
  Se  Se215  1  0.41473785  0.75447201  0.30827541  1
  Se  Se216  1  0.41415737  0.74317781  0.80549695  1
  Se  Se217  1  0.76218684  0.08306967  0.30879982  1
  Se  Se218  1  0.75087968  0.09085305  0.80780079  1
  Se  Se219  1  0.74868951  0.41030621  0.30507466  1
  Se  Se220  1  0.75514522  0.42226365  0.80288928  1
  Se  Se221  1  0.74797743  0.74367701  0.30831395  1
  Se  Se222  1  0.76040688  0.75815730  0.80561685  1
  Se  Se223  1  0.24736618  0.08991024  0.19135213  1
  Se  Se224  1  0.25002029  0.08387380  0.70342006  1
  Se  Se225  1  0.24074655  0.42583985  0.18937699  1
  Se  Se226  1  0.25766018  0.41128385  0.69573951  1
  Se  Se227  1  0.25456934  0.74700997  0.20603761  1
  Se  Se228  1  0.23921587  0.75356215  0.69531646  1
  Se  Se229  1  0.57497828  0.09375726  0.18991370  1
  Se  Se230  1  0.57179965  0.09296607  0.68468108  1
  Se  Se231  1  0.57699148  0.41882390  0.20103953  1
  Se  Se232  1  0.58924044  0.41956194  0.70232550  1
  Se  Se233  1  0.58616235  0.74939148  0.19639148  1
  Se  Se234  1  0.57919733  0.75180338  0.69440679  1
  Se  Se235  1  0.91386293  0.08925261  0.18769613  1
  Se  Se236  1  0.91010529  0.08626912  0.69739099  1
  Se  Se237  1  0.91805626  0.41716666  0.19737838  1
  Se  Se238  1  0.92395260  0.41377218  0.69195718  1
  Se  Se239  1  0.92098867  0.74791022  0.19963660  1
  Se  Se240  1  0.92142052  0.74229588  0.69441757  1
  Se  Se241  1  0.08125307  0.25362243  0.19043117  1
  Se  Se242  1  0.08255360  0.25462793  0.69332769  1
  Se  Se243  1  0.07925089  0.58472154  0.19762766  1
  Se  Se244  1  0.08865754  0.57788481  0.69000147  1
  Se  Se245  1  0.09781553  0.90662590  0.19621888  1
  Se  Se246  1  0.06036157  0.93149829  0.69608401  1
  Se  Se247  1  0.41863294  0.24698407  0.19285931  1
  Se  Se248  1  0.41717095  0.25113712  0.69951645  1
  Se  Se249  1  0.41223795  0.58694717  0.19838281  1
  Se  Se250  1  0.41440205  0.58510732  0.69701468  1
  Se  Se251  1  0.42365514  0.91363721  0.19135773  1
  Se  Se252  1  0.40813953  0.91500025  0.69789855  1
  Se  Se253  1  0.74712109  0.25042452  0.19760254  1
  Se  Se254  1  0.74941983  0.25954048  0.69687970  1
  Se  Se255  1  0.74982209  0.58326207  0.20282679  1
  Se  Se256  1  0.76264296  0.57823950  0.68538611  1
  Se  Se257  1  0.76402064  0.90460200  0.19309386  1
  Se  Se258  1  0.75028863  0.90705726  0.68259335  1
