# generated using pymatgen
data_In86Cu29Se144
_symmetry_space_group_name_H-M   'P 1'
_cell_length_a   17.58933667
_cell_length_b   17.59500117
_cell_length_c   23.45791194
_cell_angle_alpha   89.95686923
_cell_angle_beta   90.01345393
_cell_angle_gamma   90.01729842
_symmetry_Int_Tables_number   1
_chemical_formula_structural   In86Cu29Se144
_chemical_formula_sum   'In86 Cu29 Se144'
_cell_volume   7259.85519502
_cell_formula_units_Z   1
loop_
 _symmetry_equiv_pos_site_id
 _symmetry_equiv_pos_as_xyz
  1  'x, y, z'
loop_
 _atom_site_type_symbol
 _atom_site_label
 _atom_site_symmetry_multiplicity
 _atom_site_fract_x
 _atom_site_fract_y
 _atom_site_fract_z
 _atom_site_occupancy
  In  In0  1  -0.00182440  0.15963424  0.12426758  1
  In  In1  1  -0.00625244  0.17260187  0.63168639  1
  In  In2  1  -0.00138845  0.50303756  0.11735404  1
  In  In3  1  0.00075850  0.49786500  0.62515055  1
  In  In4  1  0.00117508  0.83948690  0.13833069  1
  In  In5  1  -0.00072025  0.83472323  0.62156911  1
  In  In6  1  0.32692108  0.16277586  0.11724763  1
  In  In7  1  0.34013898  0.17305313  0.62916311  1
  In  In8  1  0.31319523  0.50870671  0.12074764  1
  In  In9  1  0.32478754  0.49641719  0.62427823  1
  In  In10  1  0.33846500  0.83301377  0.13070271  1
  In  In11  1  0.32705282  0.82754787  0.61433259  1
  In  In12  1  0.66619499  0.17750962  0.13035609  1
  In  In13  1  0.68103124  0.16260485  0.62567832  1
  In  In14  1  0.66734267  0.48715189  0.12835429  1
  In  In15  1  0.66955952  0.49973129  0.62194746  1
  In  In16  1  0.68300571  0.83310496  0.13498900  1
  In  In17  1  0.66425546  0.81857382  0.60525517  1
  In  In18  1  0.14433114  -0.03612026  0.34779987  1
  In  In19  1  0.16498830  0.00735892  0.87409365  1
  In  In20  1  0.16555736  0.34436402  0.37834574  1
  In  In21  1  0.16368145  0.33221089  0.87749679  1
  In  In22  1  0.14978753  0.67970479  0.38613637  1
  In  In23  1  0.14654983  0.67469476  0.87031451  1
  In  In24  1  0.49575565  -0.00806689  0.36839508  1
  In  In25  1  0.51213020  0.00626381  0.87834749  1
  In  In26  1  0.51764531  0.32894933  0.37825136  1
  In  In27  1  0.49304437  0.33154827  0.86863452  1
  In  In28  1  0.50936643  0.65962957  0.39272311  1
  In  In29  1  0.50099057  0.65458655  0.86721584  1
  In  In30  1  0.83427551  -0.00059775  0.37733421  1
  In  In31  1  0.84005722  -0.00935279  0.87374554  1
  In  In32  1  0.82524317  0.34329351  0.38406134  1
  In  In33  1  0.85544305  0.35448976  0.86225854  1
  In  In34  1  0.84236402  0.65435143  0.38933973  1
  In  In35  1  0.83124810  0.66023045  0.86398949  1
  In  In36  1  -0.00379991  0.15268308  0.37152850  1
  In  In37  1  0.01357715  0.17869374  0.87040081  1
  In  In38  1  -0.01571312  0.51305961  0.38446741  1
  In  In39  1  -0.00290812  0.49893386  0.87518172  1
  In  In40  1  0.00172472  0.82269554  0.37711735  1
  In  In41  1  0.00133488  0.83154778  0.85338005  1
  In  In42  1  0.34399869  0.15563938  0.37320619  1
  In  In43  1  0.31932843  0.17702267  0.88683469  1
  In  In44  1  0.32419806  0.50743225  0.38485466  1
  In  In45  1  0.33686185  0.48884350  0.87402911  1
  In  In46  1  0.33002541  0.83409047  0.37978942  1
  In  In47  1  0.32564032  0.83981158  0.87091041  1
  In  In48  1  0.68443560  0.17341856  0.36457761  1
  In  In49  1  0.65553531  0.17252582  0.88216439  1
  In  In50  1  0.68556627  0.49433013  0.40134382  1
  In  In51  1  0.67754311  0.50485039  0.86404419  1
  In  In52  1  0.65900267  0.83728460  0.38540736  1
  In  In53  1  0.67689547  0.83119557  0.86738183  1
  In  In54  1  0.15662648  0.00836065  0.13505003  1
  In  In55  1  0.15607401  -0.01538802  0.62116471  1
  In  In56  1  0.16069155  0.33558610  0.10929263  1
  In  In57  1  0.15662423  0.34310137  0.63710355  1
  In  In58  1  0.16446103  0.65520375  0.12138306  1
  In  In59  1  0.15777270  0.66433435  0.62535925  1
  In  In60  1  0.49151936  0.01106329  0.13401120  1
  In  In61  1  0.50832537  0.00013524  0.62049789  1
  In  In62  1  0.51717045  0.33434923  0.12641343  1
  In  In63  1  0.49227964  0.34251155  0.63443894  1
  In  In64  1  0.48976791  0.66458327  0.12518228  1
  In  In65  1  0.51605312  0.67076174  0.61240045  1
  In  In66  1  0.83555635  0.01555109  0.14906497  1
  In  In67  1  0.84400244  0.00600491  0.61280390  1
  In  In68  1  0.82755407  0.33427494  0.12230600  1
  In  In69  1  0.83353354  0.33111977  0.62608419  1
  In  In70  1  0.84287406  0.66984067  0.12557670  1
  In  In71  1  0.83307015  0.66369161  0.61750812  1
  In  In72  1  0.32680650  0.67006902  0.24922713  1
  In  In73  1  0.67474901  -0.00182688  0.74362550  1
  In  In74  1  0.33469875  0.33277587  0.24669887  1
  In  In75  1  0.50141098  0.16550965  0.49621685  1
  In  In76  1  0.16547618  0.83198838  -0.00362006  1
  In  In77  1  0.32653164  0.00502222  0.75339524  1
  In  In78  1  0.33099661  0.66216192  0.74099244  1
  In  In79  1  0.84008049  0.17680107  0.00377401  1
  In  In80  1  0.67217650  0.66406003  0.26360134  1
  In  In81  1  0.16870993  0.16442408  0.49109159  1
  In  In82  1  0.49469870  0.49249165  -0.00118588  1
  In  In83  1  0.50034956  0.83026253  0.01148743  1
  In  In84  1  0.83836009  0.83575243  0.00532901  1
  In  In85  1  -0.00839222  0.32983922  0.24429576  1
  Cu  Cu86  1  0.51054908  0.16502917  0.25248034  1
  Cu  Cu87  1  0.33648265  0.66410915  0.50436537  1
  Cu  Cu88  1  0.16624793  0.49468277  0.75154417  1
  Cu  Cu89  1  0.00437795  0.66477468  0.50581328  1
  Cu  Cu90  1  0.83139644  0.16744123  0.74963667  1
  Cu  Cu91  1  0.00286098  0.00321872  0.00430707  1
  Cu  Cu92  1  0.83954047  0.83753445  0.25939041  1
  Cu  Cu93  1  0.33520556  0.32966901  -0.00408486  1
  Cu  Cu94  1  0.17797435  0.16332305  0.24618566  1
  Cu  Cu95  1  0.49860835  0.82964949  0.73742771  1
  Cu  Cu96  1  0.49703302  0.17711374  0.75628777  1
  Cu  Cu97  1  0.83256422  0.82693853  0.73902019  1
  Cu  Cu98  1  0.50292997  0.82823156  0.25661556  1
  Cu  Cu99  1  0.66209704  0.66000034  -0.00973233  1
  Cu  Cu100  1  0.83737877  0.49972057  0.74166430  1
  Cu  Cu101  1  0.67013563  0.33336265  -0.00006431  1
  Cu  Cu102  1  0.66985033  0.00120167  0.49698241  1
  Cu  Cu103  1  -0.00695112  0.66617117  -0.00457842  1
  Cu  Cu104  1  0.33532938  -0.00164788  0.00432894  1
  Cu  Cu105  1  0.33008150  -0.00899511  0.49269776  1
  Cu  Cu106  1  -0.00360629  0.33399860  0.50810046  1
  Cu  Cu107  1  0.66655643  0.33094579  0.50488372  1
  Cu  Cu108  1  0.15072985  0.50668788  0.24852672  1
  Cu  Cu109  1  0.51382663  0.50160159  0.74583848  1
  Cu  Cu110  1  0.16388496  0.16705184  0.75568904  1
  Cu  Cu111  1  0.50063631  0.49247241  0.25598143  1
  Cu  Cu112  1  0.00236623  -0.00561809  0.49324203  1
  Cu  Cu113  1  0.66419788  0.00666031  0.00768383  1
  Cu  Cu114  1  0.32616455  0.33915526  0.50482676  1
  Se  Se115  1  0.08846277  0.08547684  0.05511331  1
  Se  Se116  1  0.07660558  0.08145119  0.55511109  1
  Se  Se117  1  0.09603884  0.43836936  0.05037610  1
  Se  Se118  1  0.08642741  0.41461293  0.55619997  1
  Se  Se119  1  0.06849317  0.75056279  0.05771580  1
  Se  Se120  1  0.08733483  0.75351186  0.55383881  1
  Se  Se121  1  0.42082922  0.08366112  0.05346713  1
  Se  Se122  1  0.40484249  0.07532256  0.55485437  1
  Se  Se123  1  0.40656142  0.40721126  0.06591679  1
  Se  Se124  1  0.41437798  0.41583037  0.55807884  1
  Se  Se125  1  0.39779960  0.73615183  0.05404957  1
  Se  Se126  1  0.42071957  0.75224374  0.55162150  1
  Se  Se127  1  0.75481223  0.07939323  0.06307804  1
  Se  Se128  1  0.75205491  0.08683402  0.54867171  1
  Se  Se129  1  0.74993167  0.42023077  0.05192390  1
  Se  Se130  1  0.75405775  0.41383659  0.55478690  1
  Se  Se131  1  0.73843887  0.74142404  0.05410403  1
  Se  Se132  1  0.74758452  0.73370864  0.54132694  1
  Se  Se133  1  0.24896655  0.24827723  0.04913248  1
  Se  Se134  1  0.24860842  0.25301785  0.56134976  1
  Se  Se135  1  0.24620293  0.58907795  0.04562763  1
  Se  Se136  1  0.24806243  0.58635036  0.55829973  1
  Se  Se137  1  0.25239097  0.91935379  0.06215402  1
  Se  Se138  1  0.24459825  0.91510112  0.54965535  1
  Se  Se139  1  0.58709183  0.24975290  0.05255526  1
  Se  Se140  1  0.58399284  0.25099007  0.56436147  1
  Se  Se141  1  0.58580113  0.58692641  0.05821291  1
  Se  Se142  1  0.57908577  0.56853195  0.55068932  1
  Se  Se143  1  0.59326660  0.91997104  0.06836337  1
  Se  Se144  1  0.58358218  0.91958583  0.54914062  1
  Se  Se145  1  0.93498118  0.26599497  0.05874856  1
  Se  Se146  1  0.91417585  0.24512723  0.55581431  1
  Se  Se147  1  0.90934779  0.58593332  0.05033271  1
  Se  Se148  1  0.91943813  0.57719116  0.55326802  1
  Se  Se149  1  0.91916905  0.93151628  0.06717052  1
  Se  Se150  1  0.91697490  0.91239009  0.54725837  1
  Se  Se151  1  0.07053343  0.25785582  0.43907248  1
  Se  Se152  1  0.09035667  0.24386572  0.94814006  1
  Se  Se153  1  0.08462024  0.57834704  0.45032206  1
  Se  Se154  1  0.08015492  0.58730349  0.94273258  1
  Se  Se155  1  0.08860413  0.91223033  0.44191499  1
  Se  Se156  1  0.06886362  0.91845637  0.93802252  1
  Se  Se157  1  0.40532098  0.26010961  0.44242317  1
  Se  Se158  1  0.42361378  0.24951024  0.94515785  1
  Se  Se159  1  0.41691786  0.57637767  0.45330511  1
  Se  Se160  1  0.40996605  0.59031699  0.94143907  1
  Se  Se161  1  0.42307457  0.91286763  0.44491566  1
  Se  Se162  1  0.41484407  0.91989918  0.94275888  1
  Se  Se163  1  0.74679272  0.24857606  0.44794008  1
  Se  Se164  1  0.75370976  0.26054198  0.93681063  1
  Se  Se165  1  0.73343114  0.60915113  0.45816104  1
  Se  Se166  1  0.75230169  0.58375101  0.93957153  1
  Se  Se167  1  0.75426322  0.91541690  0.44792424  1
  Se  Se168  1  0.73977142  0.92441886  0.94577941  1
  Se  Se169  1  0.25069402  0.06908357  0.43158015  1
  Se  Se170  1  0.24877735  0.07606761  0.94856915  1
  Se  Se171  1  0.24180221  0.42193876  0.45214398  1
  Se  Se172  1  0.25267054  0.41503645  0.94487026  1
  Se  Se173  1  0.25373771  0.74556178  0.44767248  1
  Se  Se174  1  0.25467647  0.74173989  0.93589885  1
  Se  Se175  1  0.58984394  0.08002904  0.43414911  1
  Se  Se176  1  0.58080437  0.08765060  0.95425566  1
  Se  Se177  1  0.58097805  0.41455277  0.45369368  1
  Se  Se178  1  0.59108443  0.41388865  0.93686529  1
  Se  Se179  1  0.57726836  0.75769037  0.45481200  1
  Se  Se180  1  0.58476139  0.74876578  0.93705552  1
  Se  Se181  1  0.91692375  0.08324025  0.44822521  1
  Se  Se182  1  0.92185622  0.07969369  0.94102312  1
  Se  Se183  1  0.91441535  0.41857721  0.45278978  1
  Se  Se184  1  0.91534240  0.42036551  0.94724212  1
  Se  Se185  1  0.92087048  0.74818834  0.45193922  1
  Se  Se186  1  0.92006175  0.75306465  0.93433088  1
  Se  Se187  1  0.24596850  0.24599424  0.31225329  1
  Se  Se188  1  0.24962740  0.25019082  0.80696122  1
  Se  Se189  1  0.23833732  0.57872452  0.30893465  1
  Se  Se190  1  0.24615642  0.57894664  0.81011696  1
  Se  Se191  1  0.26901115  0.91849203  0.30242336  1
  Se  Se192  1  0.23138264  0.90770467  0.80155887  1
  Se  Se193  1  0.59052396  0.25412786  0.30168790  1
  Se  Se194  1  0.58918291  0.25451484  0.80524205  1
  Se  Se195  1  0.57886391  0.57141384  0.31685834  1
  Se  Se196  1  0.59262199  0.59006618  0.79725968  1
  Se  Se197  1  0.58916491  0.91283727  0.30470814  1
  Se  Se198  1  0.57512978  0.91036229  0.80247271  1
  Se  Se199  1  0.90858950  0.25018816  0.31518579  1
  Se  Se200  1  0.91843597  0.24737460  0.80262063  1
  Se  Se201  1  0.90768001  0.58288499  0.30758274  1
  Se  Se202  1  0.92015405  0.58025367  0.79979021  1
  Se  Se203  1  0.92510994  0.91832913  0.31189253  1
  Se  Se204  1  0.90832348  0.91618892  0.79435218  1
  Se  Se205  1  0.09132300  0.08800798  0.30246766  1
  Se  Se206  1  0.07859535  0.07932360  0.80267095  1
  Se  Se207  1  0.07688806  0.42242914  0.30910300  1
  Se  Se208  1  0.08226310  0.41454867  0.80755398  1
  Se  Se209  1  0.08523072  0.74763330  0.30385209  1
  Se  Se210  1  0.07934199  0.74360697  0.78914832  1
  Se  Se211  1  0.42120115  0.08158266  0.29835003  1
  Se  Se212  1  0.41998931  0.09100264  0.81449492  1
  Se  Se213  1  0.41588685  0.41834497  0.31656579  1
  Se  Se214  1  0.42374294  0.42432665  0.79919530  1
  Se  Se215  1  0.42649422  0.74257152  0.31406487  1
  Se  Se216  1  0.42018773  0.75737470  0.80443072  1
  Se  Se217  1  0.75050089  0.07264614  0.30373811  1
  Se  Se218  1  0.75283730  0.08874809  0.81373558  1
  Se  Se219  1  0.74823147  0.43055074  0.31571690  1
  Se  Se220  1  0.75341142  0.41591662  0.79648563  1
  Se  Se221  1  0.76025302  0.75711871  0.32044166  1
  Se  Se222  1  0.74950066  0.74779995  0.79654136  1
  Se  Se223  1  0.26130905  0.08013648  0.19444078  1
  Se  Se224  1  0.23863347  0.09059613  0.68734330  1
  Se  Se225  1  0.23551813  0.42264499  0.19374917  1
  Se  Se226  1  0.25549614  0.41416710  0.70118830  1
  Se  Se227  1  0.23495229  0.75736645  0.18977425  1
  Se  Se228  1  0.24139172  0.76083117  0.69166389  1
  Se  Se229  1  0.59126331  0.08238504  0.19571325  1
  Se  Se230  1  0.57408493  0.09397182  0.69510373  1
  Se  Se231  1  0.58742883  0.41337187  0.20331642  1
  Se  Se232  1  0.59338531  0.41309395  0.69495843  1
  Se  Se233  1  0.57932196  0.74783978  0.19313955  1
  Se  Se234  1  0.58866795  0.75233434  0.68774681  1
  Se  Se235  1  0.93222513  0.09197953  0.20717316  1
  Se  Se236  1  0.90998695  0.08174689  0.69451156  1
  Se  Se237  1  0.90684406  0.42866236  0.19010096  1
  Se  Se238  1  0.92097569  0.41127190  0.69385990  1
  Se  Se239  1  0.91290989  0.75323943  0.19944855  1
  Se  Se240  1  0.91727087  0.74456188  0.68695000  1
  Se  Se241  1  0.09755805  0.24825781  0.18983457  1
  Se  Se242  1  0.08031288  0.24965747  0.70063015  1
  Se  Se243  1  0.07260447  0.58868412  0.19165252  1
  Se  Se244  1  0.08466582  0.57799900  0.69672233  1
  Se  Se245  1  0.08601961  0.91974161  0.20388355  1
  Se  Se246  1  0.06916287  0.92321142  0.69462091  1
  Se  Se247  1  0.42707156  0.24264711  0.18984467  1
  Se  Se248  1  0.41055330  0.25598935  0.70256035  1
  Se  Se249  1  0.41798079  0.56779776  0.19486912  1
  Se  Se250  1  0.42958414  0.57939968  0.68513568  1
  Se  Se251  1  0.42336499  0.91062952  0.19842000  1
  Se  Se252  1  0.41644797  0.91739873  0.68740326  1
  Se  Se253  1  0.76772637  0.24159244  0.19342954  1
  Se  Se254  1  0.74807175  0.25079083  0.69765146  1
  Se  Se255  1  0.75139604  0.58324356  0.19019415  1
  Se  Se256  1  0.75238445  0.58375129  0.69074794  1
  Se  Se257  1  0.75337849  0.91839104  0.20639944  1
  Se  Se258  1  0.75329324  0.90806357  0.67733925  1
