# generated using pymatgen
data_In86Cu29Se144
_symmetry_space_group_name_H-M   'P 1'
_cell_length_a   17.59653421
_cell_length_b   17.59132961
_cell_length_c   23.45694963
_cell_angle_alpha   90.02155900
_cell_angle_beta   89.98283575
_cell_angle_gamma   89.98987361
_symmetry_Int_Tables_number   1
_chemical_formula_structural   In86Cu29Se144
_chemical_formula_sum   'In86 Cu29 Se144'
_cell_volume   7261.01414097
_cell_formula_units_Z   1
loop_
 _symmetry_equiv_pos_site_id
 _symmetry_equiv_pos_as_xyz
  1  'x, y, z'
loop_
 _atom_site_type_symbol
 _atom_site_label
 _atom_site_symmetry_multiplicity
 _atom_site_fract_x
 _atom_site_fract_y
 _atom_site_fract_z
 _atom_site_occupancy
  In  In0  1  0.00157115  0.15209117  0.12334856  1
  In  In1  1  0.00192109  0.14802656  0.62759613  1
  In  In2  1  0.02256943  0.52088487  0.11589571  1
  In  In3  1  0.00782064  0.50843528  0.62185638  1
  In  In4  1  0.00488716  0.82578142  0.12563070  1
  In  In5  1  0.00373770  0.82161066  0.63575492  1
  In  In6  1  0.33150017  0.16673261  0.12043798  1
  In  In7  1  0.34202350  0.18105866  0.61144277  1
  In  In8  1  0.33667457  0.50441737  0.12547359  1
  In  In9  1  0.32631665  0.48990217  0.61467243  1
  In  In10  1  0.32159181  0.82061980  0.11965346  1
  In  In11  1  0.32935516  0.84739605  0.62374411  1
  In  In12  1  0.65007351  0.16193548  0.12452487  1
  In  In13  1  0.66877793  0.17042273  0.62267961  1
  In  In14  1  0.66302725  0.52058901  0.12661370  1
  In  In15  1  0.67371122  0.50453249  0.61597911  1
  In  In16  1  0.66592217  0.83001803  0.12451031  1
  In  In17  1  0.65777234  0.82489520  0.62916113  1
  In  In18  1  0.15888980  0.00350339  0.37518277  1
  In  In19  1  0.16182364  0.00199290  0.87904384  1
  In  In20  1  0.17126255  0.34097576  0.38745685  1
  In  In21  1  0.17315972  0.32651526  0.87568038  1
  In  In22  1  0.16703833  0.66640347  0.37371184  1
  In  In23  1  0.14618771  0.68253820  0.89531728  1
  In  In24  1  0.50748798  0.00038867  0.37797737  1
  In  In25  1  0.50045096  0.00164984  0.88669930  1
  In  In26  1  0.48290411  0.34052992  0.39204248  1
  In  In27  1  0.48432214  0.34521505  0.87938808  1
  In  In28  1  0.49201976  0.66146053  0.35871954  1
  In  In29  1  0.50717496  0.66092124  0.88313598  1
  In  In30  1  0.82477021  -0.00904190  0.36663935  1
  In  In31  1  0.83248552  -0.01930023  0.86925790  1
  In  In32  1  0.84517780  0.33783234  0.38109500  1
  In  In33  1  0.83819810  0.33410950  0.87214857  1
  In  In34  1  0.82617917  0.66310460  0.36888644  1
  In  In35  1  0.85493089  0.70133590  0.84650781  1
  In  In36  1  0.00853674  0.16619118  0.37453368  1
  In  In37  1  0.01628929  0.16365592  0.86997932  1
  In  In38  1  -0.00124170  0.50822180  0.38100789  1
  In  In39  1  -0.00177168  0.52324202  0.87918863  1
  In  In40  1  0.00342263  0.83747414  0.36685697  1
  In  In41  1  -0.00021821  0.83457707  0.87399659  1
  In  In42  1  0.32754309  0.17303150  0.38703320  1
  In  In43  1  0.32336235  0.17532995  0.87688764  1
  In  In44  1  0.32043837  0.51721687  0.39243585  1
  In  In45  1  0.33115047  0.49821294  0.87570662  1
  In  In46  1  0.33318481  0.80763383  0.36632433  1
  In  In47  1  0.33121390  0.83748044  0.88988797  1
  In  In48  1  0.65637422  0.14911738  0.37667077  1
  In  In49  1  0.66121691  0.15567430  0.87612614  1
  In  In50  1  0.66019182  0.50572923  0.37993778  1
  In  In51  1  0.65562971  0.50703082  0.87881526  1
  In  In52  1  0.66159583  0.83658826  0.36340129  1
  In  In53  1  0.68355688  0.81734461  0.89196595  1
  In  In54  1  0.15368463  -0.01491595  0.11768052  1
  In  In55  1  0.15662097  -0.00714476  0.61597143  1
  In  In56  1  0.17561143  0.33982191  0.11805545  1
  In  In57  1  0.17913165  0.34275400  0.61670532  1
  In  In58  1  0.16554630  0.66668821  0.12992567  1
  In  In59  1  0.15922834  0.65769966  0.61954744  1
  In  In60  1  0.50526450  0.00354256  0.12465396  1
  In  In61  1  0.49449064  -0.00060567  0.62180163  1
  In  In62  1  0.49052847  0.33183258  0.11933235  1
  In  In63  1  0.49022762  0.33054189  0.61579826  1
  In  In64  1  0.50053614  0.66776887  0.12275958  1
  In  In65  1  0.51358673  0.66287003  0.62489003  1
  In  In66  1  0.84614018  -0.01817524  0.13099099  1
  In  In67  1  0.84409591  0.00505104  0.63052131  1
  In  In68  1  0.83914893  0.34148738  0.12448929  1
  In  In69  1  0.82389667  0.33410270  0.62394909  1
  In  In70  1  0.82556718  0.67914288  0.12850437  1
  In  In71  1  0.84477559  0.66441368  0.63429713  1
  In  In72  1  0.33401641  -0.00563206  0.24359207  1
  In  In73  1  0.66400277  0.33043805  0.74138247  1
  In  In74  1  0.33108256  0.34122852  0.25465504  1
  In  In75  1  0.33039840  0.66228272  0.75368610  1
  In  In76  1  0.49384165  0.83289945  0.49461019  1
  In  In77  1  0.83103882  0.83249266  0.49271678  1
  In  In78  1  0.83396309  0.16742196  0.50628328  1
  In  In79  1  0.83189371  0.15984703  -0.00720802  1
  In  In80  1  0.67040884  -0.00720856  0.75095334  1
  In  In81  1  0.00559758  0.33761015  0.25897156  1
  In  In82  1  0.82810895  0.51039192  0.00513204  1
  In  In83  1  0.66642048  0.32957266  0.25291502  1
  In  In84  1  0.32881221  0.00611567  0.74937215  1
  In  In85  1  0.00437724  0.33267419  0.75222686  1
  Cu  Cu86  1  0.00468760  -0.00743873  0.00114270  1
  Cu  Cu87  1  0.66485176  0.66924768  0.00228704  1
  Cu  Cu88  1  0.50669561  0.82656921  0.75929087  1
  Cu  Cu89  1  0.66830195  -0.00107777  0.00319730  1
  Cu  Cu90  1  0.32307377  0.00026488  0.49790985  1
  Cu  Cu91  1  0.17371407  0.16835711  0.74685724  1
  Cu  Cu92  1  0.49581352  0.49890292  0.75356002  1
  Cu  Cu93  1  0.33211957  0.33139496  -0.00184952  1
  Cu  Cu94  1  0.66881815  0.66481381  0.49602980  1
  Cu  Cu95  1  0.33221391  0.65908892  0.00273900  1
  Cu  Cu96  1  0.50439658  0.50564523  0.24897434  1
  Cu  Cu97  1  0.50197038  0.16137963  0.25521748  1
  Cu  Cu98  1  0.65346762  0.33510501  -0.00025649  1
  Cu  Cu99  1  0.66502236  0.33249762  0.50085699  1
  Cu  Cu100  1  0.15961026  0.16374762  0.24978487  1
  Cu  Cu101  1  -0.00075844  -0.00406251  0.49651469  1
  Cu  Cu102  1  0.33243543  0.66808500  0.49661353  1
  Cu  Cu103  1  0.82747619  0.15642934  0.24677506  1
  Cu  Cu104  1  0.33859918  0.00403341  0.00463063  1
  Cu  Cu105  1  0.16224639  0.82866400  0.75093081  1
  Cu  Cu106  1  0.00400225  0.33266626  -0.00341426  1
  Cu  Cu107  1  0.00500616  0.34196961  0.50146756  1
  Cu  Cu108  1  0.83497960  0.83403732  0.24642137  1
  Cu  Cu109  1  0.00380527  0.66536243  0.50363066  1
  Cu  Cu110  1  0.84255303  0.50144228  0.25054415  1
  Cu  Cu111  1  0.16473378  0.50556615  0.74760336  1
  Cu  Cu112  1  0.49533608  0.17420317  0.74703076  1
  Cu  Cu113  1  0.16449086  0.82837508  0.24586347  1
  Cu  Cu114  1  0.82680157  0.50307179  0.74691219  1
  Se  Se115  1  0.08620913  0.08338644  0.04947358  1
  Se  Se116  1  0.08043640  0.08362442  0.54783422  1
  Se  Se117  1  0.08315539  0.41581525  0.05278528  1
  Se  Se118  1  0.08902809  0.42547946  0.55353264  1
  Se  Se119  1  0.10248493  0.76118091  0.05864189  1
  Se  Se120  1  0.08239855  0.75354876  0.55658879  1
  Se  Se121  1  0.42183066  0.08750188  0.05674530  1
  Se  Se122  1  0.41251142  0.07612228  0.55216689  1
  Se  Se123  1  0.41181204  0.41772056  0.05303232  1
  Se  Se124  1  0.42708228  0.42824495  0.54992768  1
  Se  Se125  1  0.41513805  0.74647266  0.05310411  1
  Se  Se126  1  0.40966080  0.74420895  0.56342009  1
  Se  Se127  1  0.75062021  0.07784244  0.06404388  1
  Se  Se128  1  0.74472933  0.06942550  0.55926293  1
  Se  Se129  1  0.73675371  0.41139357  0.06022825  1
  Se  Se130  1  0.75348627  0.41515547  0.54943628  1
  Se  Se131  1  0.75166398  0.75389946  0.05089248  1
  Se  Se132  1  0.74656928  0.74358354  0.55848876  1
  Se  Se133  1  0.24836301  0.24719209  0.05155241  1
  Se  Se134  1  0.23979976  0.24404439  0.54923157  1
  Se  Se135  1  0.24712855  0.58116634  0.05872669  1
  Se  Se136  1  0.24946096  0.58471865  0.55130855  1
  Se  Se137  1  0.25301480  0.91848693  0.05361838  1
  Se  Se138  1  0.24403016  0.91138460  0.54875071  1
  Se  Se139  1  0.57697894  0.24802723  0.05410320  1
  Se  Se140  1  0.58468053  0.24767496  0.55471610  1
  Se  Se141  1  0.57951678  0.58184052  0.04926128  1
  Se  Se142  1  0.58360877  0.58256086  0.54878560  1
  Se  Se143  1  0.58440180  0.91680562  0.05629005  1
  Se  Se144  1  0.58830144  0.91778675  0.55738081  1
  Se  Se145  1  0.92080378  0.25324693  0.05553479  1
  Se  Se146  1  0.92919310  0.25786988  0.56333079  1
  Se  Se147  1  0.92203638  0.60097733  0.05772886  1
  Se  Se148  1  0.91537179  0.58615211  0.55651797  1
  Se  Se149  1  0.92160861  0.90940789  0.05419094  1
  Se  Se150  1  0.92175739  0.91597647  0.55815168  1
  Se  Se151  1  0.07906651  0.25409702  0.44518524  1
  Se  Se152  1  0.08559498  0.24716314  0.94431870  1
  Se  Se153  1  0.08875748  0.58460827  0.44825226  1
  Se  Se154  1  0.09005575  0.57233452  0.95476315  1
  Se  Se155  1  0.08175503  0.91273008  0.44257594  1
  Se  Se156  1  0.08775879  0.91079020  0.94550747  1
  Se  Se157  1  0.42341046  0.23664505  0.45402902  1
  Se  Se158  1  0.41621895  0.24729007  0.94509223  1
  Se  Se159  1  0.42643010  0.59419174  0.44467474  1
  Se  Se160  1  0.41471766  0.57962368  0.94467633  1
  Se  Se161  1  0.40044866  0.91967941  0.43468505  1
  Se  Se162  1  0.42110008  0.91641805  0.95447587  1
  Se  Se163  1  0.74486613  0.25226600  0.43892530  1
  Se  Se164  1  0.73964873  0.26046782  0.94015910  1
  Se  Se165  1  0.75516416  0.58146436  0.44492556  1
  Se  Se166  1  0.74713568  0.59582541  0.93719197  1
  Se  Se167  1  0.73430229  0.92336787  0.44168465  1
  Se  Se168  1  0.75639566  0.91867204  0.95165856  1
  Se  Se169  1  0.23911212  0.08456793  0.44605540  1
  Se  Se170  1  0.25466384  0.07947782  0.94349736  1
  Se  Se171  1  0.27692227  0.39956111  0.44854942  1
  Se  Se172  1  0.24876678  0.41463195  0.94465485  1
  Se  Se173  1  0.24806362  0.75181773  0.44535606  1
  Se  Se174  1  0.25073692  0.74995927  0.95453160  1
  Se  Se175  1  0.57546057  0.08373721  0.45285918  1
  Se  Se176  1  0.58462019  0.08630172  0.95363844  1
  Se  Se177  1  0.58394262  0.41822981  0.44821494  1
  Se  Se178  1  0.57564004  0.42159484  0.94585076  1
  Se  Se179  1  0.58726757  0.74444828  0.43684253  1
  Se  Se180  1  0.57692345  0.75424765  0.95207159  1
  Se  Se181  1  0.91528832  0.07591839  0.43855332  1
  Se  Se182  1  0.92770425  0.07296698  0.93671201  1
  Se  Se183  1  0.91765379  0.42345229  0.45119774  1
  Se  Se184  1  0.91929322  0.41522864  0.94360878  1
  Se  Se185  1  0.92520838  0.74132387  0.43846188  1
  Se  Se186  1  0.91507220  0.74774865  0.93852590  1
  Se  Se187  1  0.23900815  0.24432900  0.30895168  1
  Se  Se188  1  0.25389820  0.25450277  0.79885783  1
  Se  Se189  1  0.26411677  0.59276287  0.30963288  1
  Se  Se190  1  0.23399992  0.58555200  0.81575701  1
  Se  Se191  1  0.24379703  0.90967924  0.30789023  1
  Se  Se192  1  0.24735453  0.90730622  0.80851468  1
  Se  Se193  1  0.57190673  0.25012692  0.31604883  1
  Se  Se194  1  0.57678243  0.24870283  0.81052590  1
  Se  Se195  1  0.59377994  0.58412969  0.30076910  1
  Se  Se196  1  0.57861812  0.58421438  0.80382602  1
  Se  Se197  1  0.57112141  0.91795098  0.30182894  1
  Se  Se198  1  0.58169893  0.91206221  0.81790809  1
  Se  Se199  1  0.90590234  0.24010215  0.30638765  1
  Se  Se200  1  0.91192211  0.23842330  0.80712889  1
  Se  Se201  1  0.92165698  0.58545873  0.30603879  1
  Se  Se202  1  0.91542655  0.58153878  0.79937546  1
  Se  Se203  1  0.91688173  0.91883600  0.30018418  1
  Se  Se204  1  0.92573126  0.91844775  0.80053695  1
  Se  Se205  1  0.07656385  0.07932582  0.30093449  1
  Se  Se206  1  0.09439750  0.08108625  0.79913019  1
  Se  Se207  1  0.09720858  0.42854032  0.31394862  1
  Se  Se208  1  0.08674649  0.42696153  0.81317407  1
  Se  Se209  1  0.08268173  0.74642944  0.30301699  1
  Se  Se210  1  0.08412952  0.74515330  0.80708955  1
  Se  Se211  1  0.41036500  0.08903289  0.31133221  1
  Se  Se212  1  0.42419921  0.08931087  0.81007859  1
  Se  Se213  1  0.42522427  0.42833447  0.31117626  1
  Se  Se214  1  0.40840464  0.41659612  0.80115401  1
  Se  Se215  1  0.43889267  0.77041953  0.29723321  1
  Se  Se216  1  0.41593332  0.75512674  0.81560135  1
  Se  Se217  1  0.74242226  0.08052775  0.30299841  1
  Se  Se218  1  0.75829268  0.08862615  0.80843511  1
  Se  Se219  1  0.76060238  0.42042062  0.30908187  1
  Se  Se220  1  0.75045509  0.42135227  0.80754713  1
  Se  Se221  1  0.75079687  0.75268894  0.30168423  1
  Se  Se222  1  0.73300457  0.75316120  0.80145793  1
  Se  Se223  1  0.23893133  0.08587586  0.18780982  1
  Se  Se224  1  0.24673599  0.08878946  0.68029902  1
  Se  Se225  1  0.23955863  0.42783647  0.19555393  1
  Se  Se226  1  0.24824740  0.42259438  0.69485357  1
  Se  Se227  1  0.25447030  0.74515461  0.20033430  1
  Se  Se228  1  0.24660746  0.75514004  0.68936961  1
  Se  Se229  1  0.58447627  0.07982291  0.20160960  1
  Se  Se230  1  0.57659996  0.08850539  0.69301045  1
  Se  Se231  1  0.57837417  0.41829472  0.18953734  1
  Se  Se232  1  0.57576743  0.42515165  0.68651442  1
  Se  Se233  1  0.60427874  0.72646300  0.18797426  1
  Se  Se234  1  0.58330017  0.74308805  0.70222415  1
  Se  Se235  1  0.91813829  0.07992739  0.19560265  1
  Se  Se236  1  0.92300003  0.07936879  0.70319492  1
  Se  Se237  1  0.92422868  0.42612081  0.18984272  1
  Se  Se238  1  0.91054016  0.42042409  0.69109621  1
  Se  Se239  1  0.91954317  0.74828790  0.19689329  1
  Se  Se240  1  0.91157512  0.75459317  0.70467297  1
  Se  Se241  1  0.08660172  0.24939550  0.18836976  1
  Se  Se242  1  0.09104006  0.24775369  0.68638416  1
  Se  Se243  1  0.08236063  0.58681461  0.20117347  1
  Se  Se244  1  0.07928058  0.58961965  0.69801664  1
  Se  Se245  1  0.08010041  0.91578048  0.19760968  1
  Se  Se246  1  0.08667264  0.91687759  0.69527746  1
  Se  Se247  1  0.42007586  0.24268967  0.19707588  1
  Se  Se248  1  0.41323591  0.25427881  0.69195645  1
  Se  Se249  1  0.41895048  0.58501825  0.19477687  1
  Se  Se250  1  0.41872039  0.57789255  0.68878221  1
  Se  Se251  1  0.42020209  0.90542610  0.18336733  1
  Se  Se252  1  0.42738876  0.90824059  0.69928147  1
  Se  Se253  1  0.75684937  0.24367450  0.18675433  1
  Se  Se254  1  0.76384593  0.23456411  0.69623243  1
  Se  Se255  1  0.75681757  0.58223741  0.19709425  1
  Se  Se256  1  0.74476336  0.58470261  0.69216614  1
  Se  Se257  1  0.74648941  0.91581513  0.19544013  1
  Se  Se258  1  0.75814552  0.90519728  0.68881180  1
