# generated using pymatgen
data_In86Cu29Se144
_symmetry_space_group_name_H-M   'P 1'
_cell_length_a   17.57008699
_cell_length_b   17.57044245
_cell_length_c   23.42858819
_cell_angle_alpha   89.96841989
_cell_angle_beta   89.99772620
_cell_angle_gamma   89.96852714
_symmetry_Int_Tables_number   1
_chemical_formula_structural   In86Cu29Se144
_chemical_formula_sum   'In86 Cu29 Se144'
_cell_volume   7232.73572038
_cell_formula_units_Z   1
loop_
 _symmetry_equiv_pos_site_id
 _symmetry_equiv_pos_as_xyz
  1  'x, y, z'
loop_
 _atom_site_type_symbol
 _atom_site_label
 _atom_site_symmetry_multiplicity
 _atom_site_fract_x
 _atom_site_fract_y
 _atom_site_fract_z
 _atom_site_occupancy
  In  In0  1  -0.01105677  0.16093791  0.11959996  1
  In  In1  1  -0.00365295  0.17034414  0.62429432  1
  In  In2  1  0.00664309  0.50297090  0.12947014  1
  In  In3  1  0.00381571  0.48182056  0.63479456  1
  In  In4  1  0.00501870  0.82923559  0.13274317  1
  In  In5  1  -0.00690143  0.82793378  0.61512873  1
  In  In6  1  0.33342608  0.17086589  0.12787695  1
  In  In7  1  0.32707737  0.17853788  0.62332215  1
  In  In8  1  0.34252117  0.48933556  0.13580827  1
  In  In9  1  0.33603454  0.50266220  0.61886655  1
  In  In10  1  0.32891476  0.83645351  0.13538059  1
  In  In11  1  0.31842445  0.82816688  0.61730075  1
  In  In12  1  0.66850962  0.16776899  0.12664456  1
  In  In13  1  0.67795092  0.17058414  0.63077505  1
  In  In14  1  0.64843776  0.49938440  0.12180987  1
  In  In15  1  0.66957774  0.50272988  0.63136113  1
  In  In16  1  0.67845346  0.84205286  0.12714121  1
  In  In17  1  0.66925078  0.81544076  0.62525647  1
  In  In18  1  0.16438238  0.00056645  0.37262714  1
  In  In19  1  0.17320160  0.00226304  0.88120986  1
  In  In20  1  0.16995330  0.32409949  0.38491933  1
  In  In21  1  0.15794562  0.33118293  0.87212976  1
  In  In22  1  0.17083059  0.66966127  0.37960406  1
  In  In23  1  0.15796352  0.64880616  0.86312641  1
  In  In24  1  0.50419759  0.00968335  0.36110414  1
  In  In25  1  0.51082881  0.01991542  0.87974129  1
  In  In26  1  0.50795170  0.34377758  0.37350042  1
  In  In27  1  0.51959204  0.31683558  0.88383659  1
  In  In28  1  0.48849491  0.66158190  0.37360066  1
  In  In29  1  0.49297290  0.65454335  0.87104737  1
  In  In30  1  0.83470286  0.00052791  0.37549280  1
  In  In31  1  0.83401852  0.00375468  0.88305733  1
  In  In32  1  0.81703326  0.32810092  0.37992966  1
  In  In33  1  0.81383195  0.31356590  0.84343889  1
  In  In34  1  0.84976116  0.66596572  0.37669539  1
  In  In35  1  0.83011055  0.66049783  0.85885601  1
  In  In36  1  0.01071549  0.15975276  0.38400086  1
  In  In37  1  -0.00844338  0.17605711  0.88203450  1
  In  In38  1  -0.00123188  0.51587737  0.37726502  1
  In  In39  1  -0.00659567  0.49503611  0.85903973  1
  In  In40  1  0.00279989  0.83493020  0.37727308  1
  In  In41  1  0.00097333  0.82154093  0.87166877  1
  In  In42  1  0.32445187  0.16103408  0.36566991  1
  In  In43  1  0.33577961  0.16985137  0.88373095  1
  In  In44  1  0.33416844  0.49921111  0.37767858  1
  In  In45  1  0.33403396  0.50705705  0.87253797  1
  In  In46  1  0.32591776  0.82702848  0.36900010  1
  In  In47  1  0.34033707  0.82369363  0.87815331  1
  In  In48  1  0.67486297  0.17509883  0.37062816  1
  In  In49  1  0.66202365  0.17479183  0.88075586  1
  In  In50  1  0.66776279  0.47923956  0.38264796  1
  In  In51  1  0.66569505  0.47960697  0.86010512  1
  In  In52  1  0.66532540  0.84591830  0.37481451  1
  In  In53  1  0.67496179  0.83787535  0.87348011  1
  In  In54  1  0.15723614  0.00821538  0.13525132  1
  In  In55  1  0.16529648  -0.00013111  0.61211947  1
  In  In56  1  0.18031340  0.33808430  0.12772932  1
  In  In57  1  0.14025498  0.32008201  0.60036362  1
  In  In58  1  0.16249629  0.67159550  0.13161177  1
  In  In59  1  0.16465160  0.66256918  0.62076456  1
  In  In60  1  0.49263299  0.00906147  0.13205159  1
  In  In61  1  0.50910769  -0.00194238  0.62290991  1
  In  In62  1  0.50376322  0.33134147  0.12664883  1
  In  In63  1  0.50214896  0.34534028  0.62620007  1
  In  In64  1  0.49674045  0.65320817  0.12157209  1
  In  In65  1  0.51269270  0.64902860  0.63340753  1
  In  In66  1  0.82394967  0.01552869  0.13829484  1
  In  In67  1  0.84259560  0.00930287  0.61731656  1
  In  In68  1  0.83120314  0.31395321  0.12581959  1
  In  In69  1  0.83474112  0.32528697  0.63936628  1
  In  In70  1  0.83751024  0.67221982  0.12509804  1
  In  In71  1  0.83081687  0.66628844  0.63078751  1
  In  In72  1  0.49744035  0.16899920  0.50139492  1
  In  In73  1  0.49744508  0.82526311  0.48989256  1
  In  In74  1  0.16800728  0.49487532  -0.00517040  1
  In  In75  1  0.83462680  0.49589905  -0.01085802  1
  In  In76  1  0.84106989  0.49208949  0.50927565  1
  In  In77  1  0.33473310  0.34254618  0.74354733  1
  In  In78  1  0.00199972  0.00274993  0.74267847  1
  In  In79  1  0.49784884  0.84197400  0.00876608  1
  In  In80  1  0.83479831  0.83712173  -0.00429202  1
  In  In81  1  0.66493508  0.00093104  0.75381200  1
  In  In82  1  0.16434395  0.83357922  0.00783132  1
  In  In83  1  0.33544869  -0.00518240  0.75914723  1
  In  In84  1  0.66677699  0.66720336  0.24418005  1
  In  In85  1  0.00099197  0.33370701  0.25673309  1
  Cu  Cu86  1  0.16453758  0.16748675  0.74423335  1
  Cu  Cu87  1  0.84189100  0.83500636  0.25275681  1
  Cu  Cu88  1  0.34321013  0.33172485  0.00824348  1
  Cu  Cu89  1  0.16729245  0.83180835  0.25662685  1
  Cu  Cu90  1  0.16560970  0.17015921  0.25212833  1
  Cu  Cu91  1  0.49696731  0.17429115  0.24656923  1
  Cu  Cu92  1  0.16967470  0.49618187  0.74076197  1
  Cu  Cu93  1  0.49754307  0.49890693  0.25085495  1
  Cu  Cu94  1  0.32815379  0.00277581  0.49055616  1
  Cu  Cu95  1  0.83318193  0.15959859  0.25152091  1
  Cu  Cu96  1  0.33576006  0.01427991  0.00393826  1
  Cu  Cu97  1  0.49909946  0.83694979  0.25163143  1
  Cu  Cu98  1  0.50180444  0.49821768  0.75080628  1
  Cu  Cu99  1  0.32989910  0.33400397  0.49939145  1
  Cu  Cu100  1  0.67213226  0.33536900  -0.00410719  1
  Cu  Cu101  1  -0.00041249  0.00172359  0.49453825  1
  Cu  Cu102  1  0.33424856  0.66309674  0.49886217  1
  Cu  Cu103  1  0.00669298  0.67236849  0.50009652  1
  Cu  Cu104  1  0.65725228  0.66501756  -0.00661748  1
  Cu  Cu105  1  0.16699463  0.81871012  0.74381019  1
  Cu  Cu106  1  -0.00250642  0.00248810  0.00913756  1
  Cu  Cu107  1  0.32449077  0.65943397  -0.00115127  1
  Cu  Cu108  1  0.83133188  0.49641597  0.25828492  1
  Cu  Cu109  1  0.48956759  0.82490879  0.74989194  1
  Cu  Cu110  1  0.83277422  0.83436040  0.74616128  1
  Cu  Cu111  1  0.67357533  0.65935578  0.50660351  1
  Cu  Cu112  1  0.17057879  0.51058166  0.25469311  1
  Cu  Cu113  1  0.67559519  -0.00034000  0.49822437  1
  Cu  Cu114  1  -0.00102370  0.32661900  -0.00570366  1
  Se  Se115  1  0.08689284  0.08540285  0.05649700  1
  Se  Se116  1  0.07689894  0.08626211  0.55341199  1
  Se  Se117  1  0.07478553  0.40649591  0.05736794  1
  Se  Se118  1  0.07633080  0.43063418  0.54714466  1
  Se  Se119  1  0.06982352  0.73685630  0.05495046  1
  Se  Se120  1  0.09163719  0.75640949  0.55212411  1
  Se  Se121  1  0.42143644  0.09283828  0.05756331  1
  Se  Se122  1  0.40618722  0.07286935  0.55964731  1
  Se  Se123  1  0.42234899  0.42077741  0.05828735  1
  Se  Se124  1  0.41658662  0.41404463  0.55221390  1
  Se  Se125  1  0.40151355  0.74469387  0.05829240  1
  Se  Se126  1  0.41884489  0.73998082  0.56092730  1
  Se  Se127  1  0.76233601  0.09431608  0.05963654  1
  Se  Se128  1  0.74813734  0.08750366  0.55523436  1
  Se  Se129  1  0.74852132  0.41405501  0.06075334  1
  Se  Se130  1  0.74460116  0.40733883  0.56416401  1
  Se  Se131  1  0.73918722  0.74125800  0.05365716  1
  Se  Se132  1  0.75720778  0.74775637  0.55279394  1
  Se  Se133  1  0.25089784  0.25236319  0.05548527  1
  Se  Se134  1  0.24638635  0.24403463  0.54647420  1
  Se  Se135  1  0.25012034  0.58166511  0.06434133  1
  Se  Se136  1  0.24830283  0.58085285  0.55087863  1
  Se  Se137  1  0.25688054  0.92789051  0.06100014  1
  Se  Se138  1  0.24939121  0.91625887  0.54545703  1
  Se  Se139  1  0.59104583  0.25601467  0.05603242  1
  Se  Se140  1  0.58820741  0.25404845  0.56179000  1
  Se  Se141  1  0.57631886  0.58030193  0.04619808  1
  Se  Se142  1  0.58617248  0.57641866  0.55453314  1
  Se  Se143  1  0.59199706  0.93044345  0.06322008  1
  Se  Se144  1  0.59129109  0.91438310  0.55252386  1
  Se  Se145  1  0.91308967  0.24741621  0.04907688  1
  Se  Se146  1  0.91474433  0.25994263  0.56130453  1
  Se  Se147  1  0.92078449  0.58385049  0.05668982  1
  Se  Se148  1  0.92800815  0.59147396  0.56215543  1
  Se  Se149  1  0.91818659  0.91928598  0.06651462  1
  Se  Se150  1  0.91568837  0.91909043  0.54973105  1
  Se  Se151  1  0.07395716  0.25754363  0.45104045  1
  Se  Se152  1  0.09139364  0.24567403  0.94715110  1
  Se  Se153  1  0.08729777  0.58549951  0.44838467  1
  Se  Se154  1  0.07119488  0.58032003  0.93943686  1
  Se  Se155  1  0.08682472  0.91792136  0.44547294  1
  Se  Se156  1  0.07110342  0.92110336  0.94347720  1
  Se  Se157  1  0.40829122  0.25284088  0.43661483  1
  Se  Se158  1  0.42348870  0.24779366  0.95074514  1
  Se  Se159  1  0.42038905  0.57928102  0.44897825  1
  Se  Se160  1  0.41396311  0.58098431  0.94792575  1
  Se  Se161  1  0.41521215  0.92669295  0.43380975  1
  Se  Se162  1  0.40887164  0.92946558  0.94157213  1
  Se  Se163  1  0.74208019  0.24691608  0.45152993  1
  Se  Se164  1  0.75850540  0.25997182  0.93790402  1
  Se  Se165  1  0.75273332  0.58251557  0.44076660  1
  Se  Se166  1  0.74039472  0.58796944  0.93394698  1
  Se  Se167  1  0.75526309  0.91248529  0.44612947  1
  Se  Se168  1  0.73443417  0.93082922  0.94966671  1
  Se  Se169  1  0.24424211  0.08921463  0.44191713  1
  Se  Se170  1  0.24646765  0.09019796  0.94982434  1
  Se  Se171  1  0.24802690  0.41979105  0.44702632  1
  Se  Se172  1  0.26305927  0.40329993  0.93969091  1
  Se  Se173  1  0.25491926  0.75371500  0.44878114  1
  Se  Se174  1  0.24410270  0.73941971  0.93986913  1
  Se  Se175  1  0.58631553  0.07618807  0.44197904  1
  Se  Se176  1  0.58900814  0.09037856  0.95328219  1
  Se  Se177  1  0.57779728  0.41575810  0.45377010  1
  Se  Se178  1  0.58891758  0.42118063  0.94437956  1
  Se  Se179  1  0.59693182  0.73476723  0.43748186  1
  Se  Se180  1  0.58030897  0.75394864  0.93864733  1
  Se  Se181  1  0.91182192  0.08606382  0.44641024  1
  Se  Se182  1  0.91824673  0.08391335  0.95016945  1
  Se  Se183  1  0.92095925  0.41146423  0.43573880  1
  Se  Se184  1  0.92099464  0.40306298  0.93096751  1
  Se  Se185  1  0.91857412  0.75319618  0.44853487  1
  Se  Se186  1  0.91572229  0.73728209  0.93960768  1
  Se  Se187  1  0.24614417  0.25760817  0.30354761  1
  Se  Se188  1  0.24915278  0.24369488  0.80473292  1
  Se  Se189  1  0.25626528  0.58962114  0.30952786  1
  Se  Se190  1  0.25240863  0.57723901  0.79672409  1
  Se  Se191  1  0.25164135  0.92076428  0.30359221  1
  Se  Se192  1  0.23772954  0.89954582  0.81081070  1
  Se  Se193  1  0.58045927  0.25045224  0.30613580  1
  Se  Se194  1  0.59785465  0.25777964  0.80233564  1
  Se  Se195  1  0.58484522  0.57668046  0.30991587  1
  Se  Se196  1  0.58601288  0.58177127  0.80446259  1
  Se  Se197  1  0.58809289  0.91939794  0.29877579  1
  Se  Se198  1  0.56644564  0.90990222  0.81056428  1
  Se  Se199  1  0.91033593  0.24204563  0.31341756  1
  Se  Se200  1  0.93432024  0.25334205  0.80003061  1
  Se  Se201  1  0.91814955  0.58502709  0.29937276  1
  Se  Se202  1  0.93732253  0.60406211  0.79830451  1
  Se  Se203  1  0.92180270  0.91954733  0.30734128  1
  Se  Se204  1  0.91109187  0.91356014  0.80836699  1
  Se  Se205  1  0.08118742  0.08610572  0.30402967  1
  Se  Se206  1  0.09123041  0.08636317  0.80937650  1
  Se  Se207  1  0.09074024  0.42660749  0.31354748  1
  Se  Se208  1  0.08831175  0.41399895  0.79791790  1
  Se  Se209  1  0.08379974  0.74779212  0.30931431  1
  Se  Se210  1  0.08033001  0.74334851  0.79992297  1
  Se  Se211  1  0.41305083  0.08628299  0.29632141  1
  Se  Se212  1  0.42387804  0.09684829  0.80656681  1
  Se  Se213  1  0.41485350  0.41633097  0.30592851  1
  Se  Se214  1  0.42636491  0.41530162  0.81386915  1
  Se  Se215  1  0.41834257  0.74994518  0.30280621  1
  Se  Se216  1  0.40862259  0.74044589  0.80368302  1
  Se  Se217  1  0.74674806  0.07896930  0.30557724  1
  Se  Se218  1  0.75743845  0.08826528  0.81141322  1
  Se  Se219  1  0.74569535  0.41061116  0.30370648  1
  Se  Se220  1  0.78427112  0.44529640  0.79924818  1
  Se  Se221  1  0.75565647  0.75281671  0.30952028  1
  Se  Se222  1  0.74578998  0.75543941  0.80011271  1
  Se  Se223  1  0.25020561  0.08744040  0.19767346  1
  Se  Se224  1  0.24672029  0.08162443  0.69111227  1
  Se  Se225  1  0.24869701  0.41938214  0.20390229  1
  Se  Se226  1  0.23857953  0.41164192  0.67660268  1
  Se  Se227  1  0.24932479  0.74807024  0.20050665  1
  Se  Se228  1  0.25430865  0.74065034  0.69164468  1
  Se  Se229  1  0.58299257  0.08843408  0.19712456  1
  Se  Se230  1  0.57369549  0.09091272  0.69435101  1
  Se  Se231  1  0.58398637  0.41657243  0.19858483  1
  Se  Se232  1  0.58731160  0.41566904  0.69975169  1
  Se  Se233  1  0.57410627  0.75853928  0.18497075  1
  Se  Se234  1  0.58085314  0.74917013  0.69815769  1
  Se  Se235  1  0.92650843  0.08262459  0.20139953  1
  Se  Se236  1  0.90310802  0.09572747  0.69782677  1
  Se  Se237  1  0.90862252  0.41840382  0.19127025  1
  Se  Se238  1  0.89179637  0.43751826  0.69896879  1
  Se  Se239  1  0.91796345  0.74599607  0.19858937  1
  Se  Se240  1  0.91944231  0.75443595  0.69335091  1
  Se  Se241  1  0.08543510  0.24827516  0.18878377  1
  Se  Se242  1  0.08521086  0.25237106  0.69033079  1
  Se  Se243  1  0.08156903  0.58651145  0.20031069  1
  Se  Se244  1  0.08333030  0.58148493  0.69210953  1
  Se  Se245  1  0.08398582  0.91427613  0.20069115  1
  Se  Se246  1  0.09310881  0.90885329  0.68735395  1
  Se  Se247  1  0.41214866  0.25887129  0.19612921  1
  Se  Se248  1  0.42545708  0.24348164  0.69160709  1
  Se  Se249  1  0.41646418  0.58742153  0.19977629  1
  Se  Se250  1  0.41402011  0.57662953  0.69665620  1
  Se  Se251  1  0.41399357  0.92059823  0.19952371  1
  Se  Se252  1  0.41830580  0.90908757  0.68742473  1
  Se  Se253  1  0.74931974  0.24762679  0.20194879  1
  Se  Se254  1  0.74112200  0.25387926  0.70773516  1
  Se  Se255  1  0.75664101  0.57141878  0.18758366  1
  Se  Se256  1  0.73104269  0.60473987  0.69624960  1
  Se  Se257  1  0.75300541  0.91707925  0.20297484  1
  Se  Se258  1  0.75366828  0.91611298  0.68652669  1
