# generated using pymatgen
data_In86Cu29Se144
_symmetry_space_group_name_H-M   'P 1'
_cell_length_a   17.57694155
_cell_length_b   17.57550817
_cell_length_c   23.43835940
_cell_angle_alpha   90.00299984
_cell_angle_beta   89.99595115
_cell_angle_gamma   90.01253198
_symmetry_Int_Tables_number   1
_chemical_formula_structural   In86Cu29Se144
_chemical_formula_sum   'In86 Cu29 Se144'
_cell_volume   7240.66403258
_cell_formula_units_Z   1
loop_
 _symmetry_equiv_pos_site_id
 _symmetry_equiv_pos_as_xyz
  1  'x, y, z'
loop_
 _atom_site_type_symbol
 _atom_site_label
 _atom_site_symmetry_multiplicity
 _atom_site_fract_x
 _atom_site_fract_y
 _atom_site_fract_z
 _atom_site_occupancy
  In  In0  1  0.00059896  0.17685280  0.12302525  1
  In  In1  1  0.01276595  0.15388719  0.62999120  1
  In  In2  1  0.00122254  0.49751511  0.12192965  1
  In  In3  1  0.00934326  0.51160686  0.61976924  1
  In  In4  1  -0.00549213  0.84130981  0.11821073  1
  In  In5  1  0.02036326  0.82737643  0.65061153  1
  In  In6  1  0.33716504  0.16827575  0.14317932  1
  In  In7  1  0.33812687  0.19157111  0.62160226  1
  In  In8  1  0.33132141  0.49675852  0.13753322  1
  In  In9  1  0.32959983  0.51424346  0.61546989  1
  In  In10  1  0.34758495  0.82634407  0.12687128  1
  In  In11  1  0.33538696  0.79849722  0.62518722  1
  In  In12  1  0.67195966  0.15999979  0.13118468  1
  In  In13  1  0.64820083  0.15268939  0.62696481  1
  In  In14  1  0.67185838  0.49186944  0.12682475  1
  In  In15  1  0.67598096  0.50502406  0.61962641  1
  In  In16  1  0.66797632  0.84204126  0.11100078  1
  In  In17  1  0.65696169  0.83789933  0.63025025  1
  In  In18  1  0.18738065  -0.00651108  0.37721821  1
  In  In19  1  0.15848714  0.01119369  0.86790762  1
  In  In20  1  0.16166195  0.33821343  0.37544368  1
  In  In21  1  0.18663806  0.33546509  0.87430759  1
  In  In22  1  0.18738447  0.63496898  0.39301181  1
  In  In23  1  0.15571545  0.65899280  0.86276986  1
  In  In24  1  0.49307618  -0.00095844  0.36734531  1
  In  In25  1  0.49833134  -0.01820970  0.87939567  1
  In  In26  1  0.50188658  0.33451454  0.37155694  1
  In  In27  1  0.49088631  0.34357906  0.87269214  1
  In  In28  1  0.47840308  0.66872293  0.39729055  1
  In  In29  1  0.50914379  0.67464564  0.86111906  1
  In  In30  1  0.82891335  0.01557973  0.36983385  1
  In  In31  1  0.82427020  -0.00423077  0.87754441  1
  In  In32  1  0.83658288  0.33308694  0.36658100  1
  In  In33  1  0.83510501  0.33761675  0.88611918  1
  In  In34  1  0.82247117  0.66034976  0.37282048  1
  In  In35  1  0.83143993  0.67117513  0.87578235  1
  In  In36  1  -0.00183058  0.18085712  0.37291921  1
  In  In37  1  -0.00505874  0.15996074  0.87335424  1
  In  In38  1  0.01413290  0.47305062  0.38638764  1
  In  In39  1  -0.00363096  0.51170299  0.87972156  1
  In  In40  1  0.00382865  0.83134072  0.37100821  1
  In  In41  1  -0.01433298  0.81884794  0.86351170  1
  In  In42  1  0.33271441  0.16140202  0.37565397  1
  In  In43  1  0.32672360  0.17283948  0.87237620  1
  In  In44  1  0.32610534  0.49976820  0.37768789  1
  In  In45  1  0.32674996  0.49627953  0.86915735  1
  In  In46  1  0.34500560  0.84007951  0.37069781  1
  In  In47  1  0.34415613  0.82980124  0.87455581  1
  In  In48  1  0.64958522  0.16180432  0.35397119  1
  In  In49  1  0.67782754  0.16578937  0.88067523  1
  In  In50  1  0.67230280  0.49132105  0.37952031  1
  In  In51  1  0.66627101  0.51275038  0.87150670  1
  In  In52  1  0.64985117  0.83010435  0.37395786  1
  In  In53  1  0.66533919  0.83339552  0.87499249  1
  In  In54  1  0.16707022  0.00791537  0.12721939  1
  In  In55  1  0.16425460  -0.00470758  0.62524234  1
  In  In56  1  0.15900474  0.33931058  0.13918210  1
  In  In57  1  0.19203314  0.35820135  0.59858408  1
  In  In58  1  0.18330500  0.65794516  0.12768441  1
  In  In59  1  0.17735374  0.65489832  0.64319623  1
  In  In60  1  0.51356335  -0.00823557  0.13596607  1
  In  In61  1  0.51422117  -0.00101524  0.62806845  1
  In  In62  1  0.50445928  0.32821463  0.14988202  1
  In  In63  1  0.46601541  0.34332645  0.61732889  1
  In  In64  1  0.48831735  0.66372911  0.12517397  1
  In  In65  1  0.50178182  0.66471706  0.62043139  1
  In  In66  1  0.81055252  -0.00570821  0.10544174  1
  In  In67  1  0.83827958  -0.00607764  0.63384180  1
  In  In68  1  0.83717531  0.33362407  0.12172890  1
  In  In69  1  0.82303799  0.33843936  0.62386723  1
  In  In70  1  0.83553139  0.66894694  0.11250038  1
  In  In71  1  0.83905160  0.66340921  0.63509659  1
  In  In72  1  0.83325139  0.17621700  0.49738658  1
  In  In73  1  0.83249956  0.83623066  0.51209828  1
  In  In74  1  0.00964886  0.66244457  0.25302640  1
  In  In75  1  0.49774763  0.17318280  0.49473123  1
  In  In76  1  0.50369385  0.16076925  0.00799940  1
  In  In77  1  0.00650219  0.33204583  0.74409268  1
  In  In78  1  0.65436989  0.32950387  0.74823912  1
  In  In79  1  0.50111667  0.50160988  0.00325686  1
  In  In80  1  0.16321440  0.17214758  -0.00056562  1
  In  In81  1  0.33738113  -0.00079794  0.75071568  1
  In  In82  1  0.17150591  0.82669877  0.51011839  1
  In  In83  1  0.16023479  0.82786084  -0.00793362  1
  In  In84  1  -0.00172583  0.00563620  0.23970233  1
  In  In85  1  0.66138395  0.66393439  0.24962951  1
  Cu  Cu86  1  0.83187165  0.50483367  0.75245238  1
  Cu  Cu87  1  0.82458497  0.83586901  0.75538363  1
  Cu  Cu88  1  0.16944220  0.49541951  0.74362606  1
  Cu  Cu89  1  0.33231027  0.33653131  0.00746252  1
  Cu  Cu90  1  0.17329821  0.17849672  0.74564379  1
  Cu  Cu91  1  -0.01279916  0.66670718  0.50503462  1
  Cu  Cu92  1  0.00476956  0.66064349  -0.00630502  1
  Cu  Cu93  1  0.33707604  0.65985313  0.00094100  1
  Cu  Cu94  1  0.49848656  0.83337802  0.25299382  1
  Cu  Cu95  1  -0.00337615  0.33232459  0.49771298  1
  Cu  Cu96  1  0.66924146  0.67027583  -0.00878184  1
  Cu  Cu97  1  0.49804051  0.50922278  0.25858249  1
  Cu  Cu98  1  0.34336399  -0.00117124  0.49814294  1
  Cu  Cu99  1  0.66605461  0.33155312  0.49603614  1
  Cu  Cu100  1  0.49834534  0.82440091  0.74862778  1
  Cu  Cu101  1  0.84299146  0.49441157  0.24943518  1
  Cu  Cu102  1  0.82956556  0.15974215  0.75282065  1
  Cu  Cu103  1  0.48947615  0.50043310  0.74303521  1
  Cu  Cu104  1  -0.01513045  -0.00280039  -0.00747806  1
  Cu  Cu105  1  0.82317941  0.16800584  0.24276805  1
  Cu  Cu106  1  0.66416652  0.66044411  0.49803172  1
  Cu  Cu107  1  0.00288630  0.34032831  0.00460121  1
  Cu  Cu108  1  0.82943927  0.84139117  0.23717754  1
  Cu  Cu109  1  0.00791131  0.00033992  0.50606804  1
  Cu  Cu110  1  0.33454345  -0.00612600  0.00448871  1
  Cu  Cu111  1  0.67193719  0.33441304  0.00543958  1
  Cu  Cu112  1  0.17888122  0.82398355  0.25174787  1
  Cu  Cu113  1  0.16653373  0.16163295  0.25484972  1
  Cu  Cu114  1  0.66997777  -0.00353734  0.50098139  1
  Se  Se115  1  0.07072267  0.07246239  0.05317142  1
  Se  Se116  1  0.09410147  0.08534795  0.55300784  1
  Se  Se117  1  0.09314505  0.41520105  0.05758397  1
  Se  Se118  1  0.07743889  0.42190244  0.54802724  1
  Se  Se119  1  0.07997048  0.73803820  0.06219544  1
  Se  Se120  1  0.07159840  0.74254130  0.56473743  1
  Se  Se121  1  0.40459715  0.07915323  0.06591515  1
  Se  Se122  1  0.41755171  0.08089225  0.56195527  1
  Se  Se123  1  0.42195628  0.40729371  0.06698137  1
  Se  Se124  1  0.41802592  0.43823880  0.54357658  1
  Se  Se125  1  0.42004974  0.74778383  0.04959655  1
  Se  Se126  1  0.42629793  0.75125771  0.54901770  1
  Se  Se127  1  0.73947154  0.09511591  0.04716282  1
  Se  Se128  1  0.75052928  0.07816948  0.55903582  1
  Se  Se129  1  0.75618066  0.42226257  0.05312157  1
  Se  Se130  1  0.75067359  0.41559524  0.54829662  1
  Se  Se131  1  0.75135936  0.75280990  0.04774664  1
  Se  Se132  1  0.74054861  0.74048052  0.56265470  1
  Se  Se133  1  0.25447700  0.25069532  0.06532825  1
  Se  Se134  1  0.24774485  0.24291430  0.54528612  1
  Se  Se135  1  0.26089493  0.57455442  0.05710696  1
  Se  Se136  1  0.23731972  0.59781224  0.55462641  1
  Se  Se137  1  0.24670604  0.91512153  0.05985835  1
  Se  Se138  1  0.26726819  0.91941024  0.56344895  1
  Se  Se139  1  0.58344696  0.26417907  0.06427780  1
  Se  Se140  1  0.58644800  0.25902577  0.56178634  1
  Se  Se141  1  0.59545986  0.59322958  0.06016419  1
  Se  Se142  1  0.58280095  0.57676753  0.55256638  1
  Se  Se143  1  0.57550606  0.92410061  0.05134763  1
  Se  Se144  1  0.58377236  0.91553287  0.55232251  1
  Se  Se145  1  0.91881228  0.25058800  0.05005000  1
  Se  Se146  1  0.92544750  0.25366658  0.56577717  1
  Se  Se147  1  0.92135048  0.58095343  0.05179368  1
  Se  Se148  1  0.90652608  0.58099652  0.55774527  1
  Se  Se149  1  0.90762960  0.91094043  0.04745959  1
  Se  Se150  1  0.93537831  0.91654645  0.56698199  1
  Se  Se151  1  0.08172084  0.24906336  0.44659388  1
  Se  Se152  1  0.07639717  0.26284854  0.93560888  1
  Se  Se153  1  0.06667831  0.58801845  0.44464351  1
  Se  Se154  1  0.09528366  0.58050576  0.94553729  1
  Se  Se155  1  0.08216688  0.91765364  0.44338746  1
  Se  Se156  1  0.07249102  0.92274540  0.93450332  1
  Se  Se157  1  0.40356357  0.26434136  0.44263547  1
  Se  Se158  1  0.41138287  0.25496146  0.94709480  1
  Se  Se159  1  0.42168813  0.55782221  0.45440985  1
  Se  Se160  1  0.41758516  0.58594125  0.93506624  1
  Se  Se161  1  0.42586848  0.91679972  0.44463594  1
  Se  Se162  1  0.41471386  0.90804797  0.95242283  1
  Se  Se163  1  0.73631356  0.24806929  0.43195238  1
  Se  Se164  1  0.75315480  0.25084507  0.95127167  1
  Se  Se165  1  0.75241251  0.57991784  0.44782527  1
  Se  Se166  1  0.75240251  0.58118274  0.94447949  1
  Se  Se167  1  0.75097262  0.92015611  0.43853856  1
  Se  Se168  1  0.75013580  0.90781588  0.94632829  1
  Se  Se169  1  0.25425147  0.08066493  0.45018778  1
  Se  Se170  1  0.25612168  0.07498234  0.94402007  1
  Se  Se171  1  0.22636368  0.43423490  0.44405030  1
  Se  Se172  1  0.25498857  0.41941745  0.94944614  1
  Se  Se173  1  0.26078312  0.75045733  0.44160933  1
  Se  Se174  1  0.25577886  0.73730258  0.93884989  1
  Se  Se175  1  0.59224277  0.07928497  0.44024482  1
  Se  Se176  1  0.58693684  0.07444207  0.94236978  1
  Se  Se177  1  0.58086647  0.41455419  0.44524102  1
  Se  Se178  1  0.59232168  0.41114934  0.94152698  1
  Se  Se179  1  0.58220176  0.74932462  0.44973090  1
  Se  Se180  1  0.57767154  0.74785802  0.94182697  1
  Se  Se181  1  0.92571574  0.07679250  0.44443837  1
  Se  Se182  1  0.90755528  0.08831683  0.94277672  1
  Se  Se183  1  0.90551505  0.41027295  0.44648109  1
  Se  Se184  1  0.92041466  0.42313787  0.94868327  1
  Se  Se185  1  0.91577634  0.74870716  0.44073627  1
  Se  Se186  1  0.91971710  0.74815754  0.94658549  1
  Se  Se187  1  0.24342646  0.24478250  0.31221733  1
  Se  Se188  1  0.26029018  0.25863491  0.79719092  1
  Se  Se189  1  0.25392842  0.58608296  0.30402012  1
  Se  Se190  1  0.25011935  0.58195992  0.79874510  1
  Se  Se191  1  0.25783902  0.91649071  0.30019067  1
  Se  Se192  1  0.24577336  0.91390143  0.81280509  1
  Se  Se193  1  0.58950955  0.26886490  0.29654072  1
  Se  Se194  1  0.57464164  0.24257435  0.81682285  1
  Se  Se195  1  0.57827872  0.58641152  0.32091360  1
  Se  Se196  1  0.57996558  0.57687052  0.79633866  1
  Se  Se197  1  0.58512534  0.91917676  0.30142793  1
  Se  Se198  1  0.57799807  0.91048654  0.80304183  1
  Se  Se199  1  0.91211475  0.24401314  0.29719887  1
  Se  Se200  1  0.90684276  0.25133315  0.80600327  1
  Se  Se201  1  0.91683881  0.57558146  0.31289892  1
  Se  Se202  1  0.91590162  0.58676187  0.80625310  1
  Se  Se203  1  0.91003753  0.91354978  0.30403259  1
  Se  Se204  1  0.91122366  0.92059385  0.80541511  1
  Se  Se205  1  0.08532924  0.07876917  0.31375426  1
  Se  Se206  1  0.08526520  0.09916651  0.79792063  1
  Se  Se207  1  0.07437942  0.40777526  0.30100998  1
  Se  Se208  1  0.09057423  0.42046746  0.81015585  1
  Se  Se209  1  0.10198413  0.74766783  0.31570896  1
  Se  Se210  1  0.09016969  0.76006065  0.80102976  1
  Se  Se211  1  0.42912449  0.10035626  0.30561038  1
  Se  Se212  1  0.42310670  0.08610555  0.81590730  1
  Se  Se213  1  0.41607280  0.42279802  0.30909373  1
  Se  Se214  1  0.41036572  0.41498772  0.79821923  1
  Se  Se215  1  0.42468346  0.74410883  0.30968842  1
  Se  Se216  1  0.40773978  0.74381964  0.79781041  1
  Se  Se217  1  0.74415939  0.07861308  0.29408685  1
  Se  Se218  1  0.74407611  0.08007415  0.80552939  1
  Se  Se219  1  0.75116786  0.41928498  0.30195842  1
  Se  Se220  1  0.75356029  0.41620179  0.80718502  1
  Se  Se221  1  0.75527812  0.76155265  0.30369772  1
  Se  Se222  1  0.74394922  0.74616540  0.80536024  1
  Se  Se223  1  0.24876875  0.07709168  0.20187744  1
  Se  Se224  1  0.25318338  0.09317955  0.68775473  1
  Se  Se225  1  0.26897564  0.39284961  0.20061790  1
  Se  Se226  1  0.25555157  0.42066403  0.68589578  1
  Se  Se227  1  0.26126561  0.74517263  0.19450540  1
  Se  Se228  1  0.22370056  0.77690485  0.69326206  1
  Se  Se229  1  0.56220109  0.10718640  0.19285249  1
  Se  Se230  1  0.58446278  0.07505475  0.70547962  1
  Se  Se231  1  0.58475894  0.43107452  0.20272963  1
  Se  Se232  1  0.57397247  0.42109968  0.68298533  1
  Se  Se233  1  0.57814108  0.75718439  0.18778733  1
  Se  Se234  1  0.58399408  0.74265362  0.69500521  1
  Se  Se235  1  0.90196608  0.08667045  0.17974218  1
  Se  Se236  1  0.91833494  0.08521389  0.69763334  1
  Se  Se237  1  0.92309278  0.41325970  0.19223287  1
  Se  Se238  1  0.91035541  0.42436456  0.69088777  1
  Se  Se239  1  0.91467473  0.75293424  0.19067557  1
  Se  Se240  1  0.91261787  0.75415211  0.70306979  1
  Se  Se241  1  0.08121905  0.24221650  0.20067718  1
  Se  Se242  1  0.10200488  0.25833290  0.67880395  1
  Se  Se243  1  0.09678825  0.57065210  0.19427868  1
  Se  Se244  1  0.07582349  0.58146540  0.70337092  1
  Se  Se245  1  0.09307857  0.90214485  0.19288405  1
  Se  Se246  1  0.07741522  0.94182714  0.70377634  1
  Se  Se247  1  0.39450550  0.27182547  0.20873107  1
  Se  Se248  1  0.44007927  0.24030453  0.69169192  1
  Se  Se249  1  0.41504464  0.58716543  0.20070675  1
  Se  Se250  1  0.41143172  0.58958685  0.69031384  1
  Se  Se251  1  0.41568710  0.91711841  0.19821102  1
  Se  Se252  1  0.41923666  0.90549678  0.68695250  1
  Se  Se253  1  0.74683937  0.25982405  0.19147416  1
  Se  Se254  1  0.75076299  0.23842326  0.68993040  1
  Se  Se255  1  0.76473963  0.58212305  0.19254916  1
  Se  Se256  1  0.74512241  0.58362959  0.69842041  1
  Se  Se257  1  0.74224404  0.92129656  0.18765516  1
  Se  Se258  1  0.74507911  0.91796799  0.69726194  1
