# generated using pymatgen
data_In86Cu29Se144
_symmetry_space_group_name_H-M   'P 1'
_cell_length_a   17.57053355
_cell_length_b   17.57264687
_cell_length_c   23.42440325
_cell_angle_alpha   89.99456970
_cell_angle_beta   89.99943958
_cell_angle_gamma   90.01725095
_symmetry_Int_Tables_number   1
_chemical_formula_structural   In86Cu29Se144
_chemical_formula_sum   'In86 Cu29 Se144'
_cell_volume   7232.53669150
_cell_formula_units_Z   1
loop_
 _symmetry_equiv_pos_site_id
 _symmetry_equiv_pos_as_xyz
  1  'x, y, z'
loop_
 _atom_site_type_symbol
 _atom_site_label
 _atom_site_symmetry_multiplicity
 _atom_site_fract_x
 _atom_site_fract_y
 _atom_site_fract_z
 _atom_site_occupancy
  In  In0  1  0.00873082  0.17995446  0.10789832  1
  In  In1  1  0.01943673  0.15110758  0.64068593  1
  In  In2  1  -0.01455999  0.47635858  0.10150601  1
  In  In3  1  0.00436786  0.48379970  0.63111418  1
  In  In4  1  0.01346681  0.83258856  0.12341908  1
  In  In5  1  0.01860845  0.85705911  0.60518472  1
  In  In6  1  0.33343434  0.17676913  0.12493295  1
  In  In7  1  0.31632226  0.17818464  0.63155451  1
  In  In8  1  0.33636810  0.49602637  0.12339504  1
  In  In9  1  0.32548103  0.49002808  0.61702624  1
  In  In10  1  0.31739877  0.83201120  0.13348377  1
  In  In11  1  0.33851894  0.83686895  0.62235679  1
  In  In12  1  0.67888018  0.17529523  0.13024803  1
  In  In13  1  0.66835393  0.17173017  0.62573582  1
  In  In14  1  0.66019896  0.50107578  0.13047423  1
  In  In15  1  0.67132516  0.51237883  0.62522192  1
  In  In16  1  0.65770507  0.82455665  0.13470999  1
  In  In17  1  0.65653496  0.82386610  0.61723002  1
  In  In18  1  0.16224045  0.00240896  0.38985146  1
  In  In19  1  0.16332495  0.00352895  0.88283350  1
  In  In20  1  0.16728621  0.33187060  0.36995205  1
  In  In21  1  0.16923422  0.33402129  0.87620259  1
  In  In22  1  0.17069211  0.65994899  0.38005513  1
  In  In23  1  0.16764405  0.66647927  0.88291553  1
  In  In24  1  0.49038208  -0.00559541  0.37881012  1
  In  In25  1  0.48985827  0.00707824  0.87306821  1
  In  In26  1  0.50726265  0.34158588  0.36233722  1
  In  In27  1  0.49854063  0.34632379  0.87759555  1
  In  In28  1  0.49237372  0.66840247  0.37125471  1
  In  In29  1  0.50327870  0.64945489  0.87351795  1
  In  In30  1  0.82884520  -0.00375999  0.37754376  1
  In  In31  1  0.86328752  0.00822302  0.87447275  1
  In  In32  1  0.83922707  0.33193276  0.35808656  1
  In  In33  1  0.86842211  0.30772430  0.91623244  1
  In  In34  1  0.83225980  0.67789382  0.37086446  1
  In  In35  1  0.82565162  0.66295023  0.87183160  1
  In  In36  1  -0.00295010  0.17974326  0.37292249  1
  In  In37  1  0.01232561  0.17237611  0.88779309  1
  In  In38  1  0.01209625  0.49148736  0.37286160  1
  In  In39  1  0.01888870  0.47947838  0.89697615  1
  In  In40  1  -0.00151537  0.83789744  0.39141080  1
  In  In41  1  0.00905559  0.84691301  0.87279560  1
  In  In42  1  0.32101836  0.16271806  0.37040718  1
  In  In43  1  0.31256395  0.15212260  0.86795377  1
  In  In44  1  0.32756165  0.50373819  0.37038682  1
  In  In45  1  0.34658104  0.49741840  0.87980079  1
  In  In46  1  0.34096894  0.82118832  0.38452534  1
  In  In47  1  0.31820708  0.84076589  0.87681294  1
  In  In48  1  0.66896978  0.17359361  0.36348288  1
  In  In49  1  0.66859554  0.18356021  0.88017614  1
  In  In50  1  0.65648604  0.49067476  0.36598820  1
  In  In51  1  0.66969095  0.49912003  0.87967544  1
  In  In52  1  0.66655542  0.82464201  0.37535663  1
  In  In53  1  0.68184916  0.82576089  0.86765730  1
  In  In54  1  0.17444727  0.01185208  0.09393696  1
  In  In55  1  0.16451591  0.00660261  0.62586445  1
  In  In56  1  0.16763944  0.33531654  0.11766586  1
  In  In57  1  0.16684648  0.33154092  0.62482535  1
  In  In58  1  0.17565387  0.66242195  0.12502528  1
  In  In59  1  0.17288268  0.66774757  0.61803836  1
  In  In60  1  0.49872071  -0.00293170  0.12529509  1
  In  In61  1  0.49630047  -0.01570317  0.62344010  1
  In  In62  1  0.48086545  0.33978565  0.13903069  1
  In  In63  1  0.48173718  0.32659559  0.61824416  1
  In  In64  1  0.50882618  0.65990058  0.14029126  1
  In  In65  1  0.50587816  0.67225363  0.61810186  1
  In  In66  1  0.84145201  0.01354151  0.11462270  1
  In  In67  1  0.85838251  0.00259505  0.62398234  1
  In  In68  1  0.83149454  0.32989893  0.12915502  1
  In  In69  1  0.84132764  0.34128879  0.62855801  1
  In  In70  1  0.83210307  0.65455333  0.12783463  1
  In  In71  1  0.82011094  0.66731177  0.63008323  1
  In  In72  1  -0.01232200  0.66515505  0.74694532  1
  In  In73  1  0.67035504  0.00346383  0.25244728  1
  In  In74  1  0.83776625  0.83356125  -0.00751342  1
  In  In75  1  0.49446910  0.17278725  0.00776647  1
  In  In76  1  0.00357086  0.00653133  0.24149705  1
  In  In77  1  0.49232005  0.82764042  -0.00086061  1
  In  In78  1  0.33807933  0.66739597  0.74778831  1
  In  In79  1  0.00934023  0.65924919  0.24616403  1
  In  In80  1  0.33387002  -0.00037061  0.25061087  1
  In  In81  1  0.83657611  0.50350309  0.49975878  1
  In  In82  1  0.66648185  -0.00049454  0.74713135  1
  In  In83  1  0.49217044  0.16366032  0.48997931  1
  In  In84  1  0.84012921  0.16333884  0.49938250  1
  In  In85  1  0.66839715  0.34300580  0.75337059  1
  Cu  Cu86  1  0.33120646  0.33155069  -0.00060006  1
  Cu  Cu87  1  0.83870655  0.49007448  0.76086803  1
  Cu  Cu88  1  0.32979613  0.00034046  0.50376507  1
  Cu  Cu89  1  0.48484261  0.16764611  0.74960380  1
  Cu  Cu90  1  0.50245725  0.49907001  0.75072072  1
  Cu  Cu91  1  0.83551429  0.83375051  0.74448837  1
  Cu  Cu92  1  0.65864129  0.66286309  0.49596648  1
  Cu  Cu93  1  0.66998494  -0.00935583  0.49823499  1
  Cu  Cu94  1  0.67073789  0.00317925  0.00052472  1
  Cu  Cu95  1  0.82956082  0.50197357  0.24294074  1
  Cu  Cu96  1  0.49999234  0.82756328  0.74461180  1
  Cu  Cu97  1  0.32798798  0.34200670  0.49535683  1
  Cu  Cu98  1  0.84255920  0.17120375  0.76409203  1
  Cu  Cu99  1  0.15986894  0.84545426  0.75058301  1
  Cu  Cu100  1  0.16804875  0.83343138  0.25559479  1
  Cu  Cu101  1  0.16605709  0.17237518  0.24369041  1
  Cu  Cu102  1  0.49229218  0.50576311  0.25100977  1
  Cu  Cu103  1  0.16486184  0.49157370  0.24409355  1
  Cu  Cu104  1  0.83266836  0.83710273  0.25057544  1
  Cu  Cu105  1  0.66199206  0.33806888  0.48916999  1
  Cu  Cu106  1  0.01002463  0.32857182  0.50100509  1
  Cu  Cu107  1  0.16846833  0.49345561  0.75188051  1
  Cu  Cu108  1  0.33597279  0.66072370  0.00401431  1
  Cu  Cu109  1  0.00784658  0.66848813  0.00371269  1
  Cu  Cu110  1  0.66544524  0.34638088  0.00816939  1
  Cu  Cu111  1  -0.00069743  0.66324124  0.49941268  1
  Cu  Cu112  1  0.33187029  0.66346048  0.49787371  1
  Cu  Cu113  1  0.66225159  0.66238802  0.00630212  1
  Cu  Cu114  1  0.16095413  0.17001984  0.75534874  1
  Se  Se115  1  0.06419760  0.07500808  0.04197961  1
  Se  Se116  1  0.08057388  0.08627130  0.55567835  1
  Se  Se117  1  0.07998683  0.39947863  0.03986237  1
  Se  Se118  1  0.08660101  0.41848772  0.55422025  1
  Se  Se119  1  0.09343287  0.74842720  0.05646077  1
  Se  Se120  1  0.08526065  0.74659903  0.55096581  1
  Se  Se121  1  0.40575915  0.07251136  0.05850848  1
  Se  Se122  1  0.41054227  0.08342619  0.56329302  1
  Se  Se123  1  0.41849270  0.41062427  0.05373004  1
  Se  Se124  1  0.41846856  0.41908254  0.54704662  1
  Se  Se125  1  0.41213617  0.74141774  0.06735860  1
  Se  Se126  1  0.41361083  0.74829367  0.55345442  1
  Se  Se127  1  0.74691972  0.09139017  0.05335666  1
  Se  Se128  1  0.74341347  0.07508492  0.56026306  1
  Se  Se129  1  0.75069865  0.42387466  0.06380110  1
  Se  Se130  1  0.74309416  0.40829285  0.55656558  1
  Se  Se131  1  0.74552724  0.74954039  0.05898364  1
  Se  Se132  1  0.74536120  0.74133970  0.55222033  1
  Se  Se133  1  0.24929301  0.24543188  0.05064330  1
  Se  Se134  1  0.25003041  0.25439104  0.55105593  1
  Se  Se135  1  0.24990538  0.57561318  0.05372038  1
  Se  Se136  1  0.24762191  0.57898823  0.55004483  1
  Se  Se137  1  0.25767696  0.90664955  0.05153897  1
  Se  Se138  1  0.24812840  0.91791735  0.55937582  1
  Se  Se139  1  0.58453051  0.26230260  0.06632145  1
  Se  Se140  1  0.58790986  0.25325527  0.55115583  1
  Se  Se141  1  0.57658082  0.58379715  0.05983870  1
  Se  Se142  1  0.58191220  0.57780090  0.55266839  1
  Se  Se143  1  0.59266330  0.91794181  0.05617717  1
  Se  Se144  1  0.57917270  0.91343722  0.54957165  1
  Se  Se145  1  0.90989068  0.25969943  0.05024704  1
  Se  Se146  1  0.92572121  0.25349931  0.56260178  1
  Se  Se147  1  0.91600986  0.58989815  0.05221230  1
  Se  Se148  1  0.92435159  0.58672366  0.56660398  1
  Se  Se149  1  0.92758506  0.91926368  0.05461899  1
  Se  Se150  1  0.90289442  0.90809008  0.54864539  1
  Se  Se151  1  0.08877037  0.24705552  0.44303593  1
  Se  Se152  1  0.07589724  0.27711682  0.95233122  1
  Se  Se153  1  0.07989878  0.57906234  0.44533432  1
  Se  Se154  1  0.09291249  0.58224426  0.95441599  1
  Se  Se155  1  0.08608690  0.91492876  0.45656461  1
  Se  Se156  1  0.09186387  0.90714330  0.94915435  1
  Se  Se157  1  0.40724593  0.26048538  0.43369758  1
  Se  Se158  1  0.40978248  0.25088728  0.93601222  1
  Se  Se159  1  0.41327671  0.58205392  0.44118321  1
  Se  Se160  1  0.42429457  0.58187177  0.95113504  1
  Se  Se161  1  0.41442913  0.91601122  0.45207889  1
  Se  Se162  1  0.40681283  0.92737537  0.94562344  1
  Se  Se163  1  0.75041982  0.25710605  0.43821818  1
  Se  Se164  1  0.74238982  0.25290751  0.95870671  1
  Se  Se165  1  0.74370569  0.58528248  0.43603702  1
  Se  Se166  1  0.74862940  0.58811376  0.94817008  1
  Se  Se167  1  0.75157840  0.90811427  0.44365818  1
  Se  Se168  1  0.74773113  0.92919974  0.93424824  1
  Se  Se169  1  0.25211941  0.08874080  0.45068296  1
  Se  Se170  1  0.24329469  0.09052754  0.95130181  1
  Se  Se171  1  0.24277913  0.42083619  0.43972588  1
  Se  Se172  1  0.25483968  0.41934822  0.94356279  1
  Se  Se173  1  0.24456843  0.74954798  0.44948743  1
  Se  Se174  1  0.25745102  0.74587133  0.94804461  1
  Se  Se175  1  0.59625930  0.07705608  0.43733948  1
  Se  Se176  1  0.58572995  0.08139959  0.94227663  1
  Se  Se177  1  0.57462492  0.42057113  0.44242574  1
  Se  Se178  1  0.58194944  0.42128342  0.94900738  1
  Se  Se179  1  0.57721108  0.74864695  0.44320363  1
  Se  Se180  1  0.59334506  0.74537991  0.93996042  1
  Se  Se181  1  0.92942371  0.07414044  0.43922035  1
  Se  Se182  1  0.91337926  0.09665855  0.95101858  1
  Se  Se183  1  0.92067507  0.40447088  0.44239406  1
  Se  Se184  1  0.89306144  0.44532297  0.94794266  1
  Se  Se185  1  0.91205438  0.74474279  0.44876199  1
  Se  Se186  1  0.92912328  0.74072946  0.93550785  1
  Se  Se187  1  0.25148584  0.25101610  0.29872057  1
  Se  Se188  1  0.24954614  0.25453075  0.80353527  1
  Se  Se189  1  0.23800823  0.58140030  0.30055839  1
  Se  Se190  1  0.24734862  0.57936519  0.80917325  1
  Se  Se191  1  0.24449892  0.91628598  0.31664147  1
  Se  Se192  1  0.24439640  0.92482408  0.80591634  1
  Se  Se193  1  0.58405899  0.25062477  0.29735367  1
  Se  Se194  1  0.57238027  0.24562415  0.80570834  1
  Se  Se195  1  0.58001035  0.58581381  0.30361750  1
  Se  Se196  1  0.59102658  0.57755702  0.80275340  1
  Se  Se197  1  0.57745071  0.91364340  0.30882281  1
  Se  Se198  1  0.57694065  0.90835834  0.80980894  1
  Se  Se199  1  0.92696694  0.25199568  0.29455987  1
  Se  Se200  1  0.92070970  0.25430978  0.82033853  1
  Se  Se201  1  0.91212820  0.57555325  0.30858701  1
  Se  Se202  1  0.92290635  0.57066330  0.81789424  1
  Se  Se203  1  0.91880498  0.91279882  0.30726031  1
  Se  Se204  1  0.91846986  0.91394811  0.80027772  1
  Se  Se205  1  0.09417517  0.08833355  0.30809405  1
  Se  Se206  1  0.08094287  0.08715706  0.81234381  1
  Se  Se207  1  0.08045192  0.40912350  0.29782695  1
  Se  Se208  1  0.08210272  0.41765698  0.80801068  1
  Se  Se209  1  0.08118410  0.75751174  0.31339497  1
  Se  Se210  1  0.08901846  0.74987082  0.80545004  1
  Se  Se211  1  0.42702042  0.09151239  0.30753045  1
  Se  Se212  1  0.40681862  0.07827980  0.80033130  1
  Se  Se213  1  0.40948872  0.41852160  0.30166976  1
  Se  Se214  1  0.41629332  0.41712956  0.80165061  1
  Se  Se215  1  0.40680960  0.75035464  0.30370588  1
  Se  Se216  1  0.42339729  0.75537125  0.81428062  1
  Se  Se217  1  0.77095639  0.09315624  0.30365348  1
  Se  Se218  1  0.75137779  0.08929984  0.81398260  1
  Se  Se219  1  0.74890382  0.41750803  0.29878358  1
  Se  Se220  1  0.76345329  0.40756145  0.82222865  1
  Se  Se221  1  0.74806176  0.75150375  0.29879094  1
  Se  Se222  1  0.75493198  0.74441987  0.79403496  1
  Se  Se223  1  0.23831034  0.08109959  0.18577640  1
  Se  Se224  1  0.24422174  0.08652599  0.69957176  1
  Se  Se225  1  0.25120840  0.41070371  0.19057344  1
  Se  Se226  1  0.25163320  0.41498334  0.69453820  1
  Se  Se227  1  0.24512005  0.74299398  0.20393239  1
  Se  Se228  1  0.24093268  0.75953123  0.69466198  1
  Se  Se229  1  0.57860526  0.08877800  0.18999659  1
  Se  Se230  1  0.57120434  0.09232360  0.68983269  1
  Se  Se231  1  0.57616858  0.41977427  0.19972452  1
  Se  Se232  1  0.57633463  0.41799653  0.68437947  1
  Se  Se233  1  0.57878086  0.75371240  0.20808505  1
  Se  Se234  1  0.58597421  0.74434700  0.69532340  1
  Se  Se235  1  0.91603155  0.10017243  0.18581809  1
  Se  Se236  1  0.91654844  0.08520452  0.70441504  1
  Se  Se237  1  0.91799341  0.42276502  0.19134989  1
  Se  Se238  1  0.92204836  0.41007396  0.70494629  1
  Se  Se239  1  0.91472649  0.75630703  0.19076633  1
  Se  Se240  1  0.91837531  0.76178740  0.67998419  1
  Se  Se241  1  0.08323721  0.25161064  0.18720795  1
  Se  Se242  1  0.08224910  0.25798460  0.69990308  1
  Se  Se243  1  0.08159285  0.56431597  0.17983026  1
  Se  Se244  1  0.09289256  0.58058438  0.69286079  1
  Se  Se245  1  0.10152455  0.91663149  0.18940186  1
  Se  Se246  1  0.07651683  0.92311372  0.69377686  1
  Se  Se247  1  0.41601297  0.23733063  0.20193212  1
  Se  Se248  1  0.40797407  0.25699193  0.69736861  1
  Se  Se249  1  0.40570827  0.58476600  0.19692887  1
  Se  Se250  1  0.42273404  0.57547712  0.68636045  1
  Se  Se251  1  0.42459526  0.90524828  0.19438292  1
  Se  Se252  1  0.41398118  0.91493674  0.69919623  1
  Se  Se253  1  0.74631817  0.25891188  0.20379686  1
  Se  Se254  1  0.76128123  0.24269015  0.69750246  1
  Se  Se255  1  0.74199512  0.58939394  0.19954101  1
  Se  Se256  1  0.75870447  0.57247021  0.70243073  1
  Se  Se257  1  0.76109201  0.91784393  0.18483288  1
  Se  Se258  1  0.75364274  0.91325508  0.68346010  1
