# generated using pymatgen
data_In86Cu29Se144
_symmetry_space_group_name_H-M   'P 1'
_cell_length_a   17.57145412
_cell_length_b   17.56856137
_cell_length_c   23.42789493
_cell_angle_alpha   89.98805932
_cell_angle_beta   90.00621797
_cell_angle_gamma   90.02492991
_symmetry_Int_Tables_number   1
_chemical_formula_structural   In86Cu29Se144
_chemical_formula_sum   'In86 Cu29 Se144'
_cell_volume   7232.31140144
_cell_formula_units_Z   1
loop_
 _symmetry_equiv_pos_site_id
 _symmetry_equiv_pos_as_xyz
  1  'x, y, z'
loop_
 _atom_site_type_symbol
 _atom_site_label
 _atom_site_symmetry_multiplicity
 _atom_site_fract_x
 _atom_site_fract_y
 _atom_site_fract_z
 _atom_site_occupancy
  In  In0  1  -0.00048197  0.16422994  0.12813060  1
  In  In1  1  0.00039666  0.16097808  0.62375693  1
  In  In2  1  0.00167827  0.50298285  0.10998889  1
  In  In3  1  0.00285756  0.49246835  0.63654218  1
  In  In4  1  0.00296066  0.84061855  0.12626269  1
  In  In5  1  -0.00818624  0.86212279  0.65024448  1
  In  In6  1  0.34657025  0.16385742  0.12912651  1
  In  In7  1  0.33223267  0.16607542  0.62544222  1
  In  In8  1  0.33595814  0.49945923  0.11908910  1
  In  In9  1  0.32633623  0.51096579  0.63511783  1
  In  In10  1  0.32875907  0.81841887  0.12428416  1
  In  In11  1  0.33725927  0.82860575  0.63512945  1
  In  In12  1  0.66804431  0.16215419  0.13942851  1
  In  In13  1  0.65528426  0.14653860  0.60444985  1
  In  In14  1  0.66736807  0.50200771  0.12642221  1
  In  In15  1  0.66161176  0.50258050  0.62443716  1
  In  In16  1  0.65579452  0.84489861  0.13321499  1
  In  In17  1  0.69860756  0.87027159  0.57926475  1
  In  In18  1  0.16463286  0.02133448  0.37575865  1
  In  In19  1  0.16886868  -0.00072307  0.86659008  1
  In  In20  1  0.17297325  0.30881425  0.37009893  1
  In  In21  1  0.17514229  0.34117566  0.86982407  1
  In  In22  1  0.16735785  0.65634586  0.37246586  1
  In  In23  1  0.16040778  0.66216309  0.86679642  1
  In  In24  1  0.52061345  -0.01490547  0.39632434  1
  In  In25  1  0.48968206  -0.01261442  0.86597291  1
  In  In26  1  0.49040199  0.32943876  0.37067979  1
  In  In27  1  0.50095084  0.34580442  0.87720541  1
  In  In28  1  0.50771447  0.67825972  0.36435465  1
  In  In29  1  0.49533512  0.67614172  0.88316524  1
  In  In30  1  0.82532878  -0.00346522  0.38143491  1
  In  In31  1  0.83429052  0.01162721  0.85916302  1
  In  In32  1  0.81919538  0.33194766  0.37232081  1
  In  In33  1  0.84270541  0.33358846  0.87047212  1
  In  In34  1  0.81997554  0.68582757  0.38528425  1
  In  In35  1  0.83384665  0.65671256  0.87554008  1
  In  In36  1  0.01047128  0.14759245  0.38502648  1
  In  In37  1  -0.00929483  0.16848409  0.86099876  1
  In  In38  1  0.00259738  0.49947424  0.37268789  1
  In  In39  1  0.00179469  0.50077118  0.87377968  1
  In  In40  1  -0.02100652  0.83982131  0.38298470  1
  In  In41  1  0.01316280  0.84139216  0.85892009  1
  In  In42  1  0.33255416  0.16992266  0.38212695  1
  In  In43  1  0.32627318  0.15881684  0.86403751  1
  In  In44  1  0.33992346  0.50404168  0.36337411  1
  In  In45  1  0.33411895  0.50046718  0.87741584  1
  In  In46  1  0.34559462  0.83263541  0.37516891  1
  In  In47  1  0.34490368  0.84421663  0.86235654  1
  In  In48  1  0.66430576  0.16429800  0.38368915  1
  In  In49  1  0.67651051  0.15637698  0.86735104  1
  In  In50  1  0.65873913  0.49645310  0.36219169  1
  In  In51  1  0.66144133  0.50300100  0.88878732  1
  In  In52  1  0.66143533  0.83432529  0.37944158  1
  In  In53  1  0.65479090  0.83750774  0.87458309  1
  In  In54  1  0.16365830  -0.00820115  0.12662857  1
  In  In55  1  0.15523492  0.00682226  0.63566537  1
  In  In56  1  0.16400643  0.34424231  0.12134575  1
  In  In57  1  0.17622964  0.32318718  0.63184280  1
  In  In58  1  0.17874437  0.66632722  0.12249900  1
  In  In59  1  0.16266011  0.67903094  0.64655271  1
  In  In60  1  0.50752984  0.00481905  0.12466281  1
  In  In61  1  0.50515830  -0.00368413  0.62009729  1
  In  In62  1  0.49160596  0.33902417  0.13295006  1
  In  In63  1  0.50028369  0.32057968  0.62472540  1
  In  In64  1  0.50052603  0.66755427  0.12460338  1
  In  In65  1  0.49667957  0.67696480  0.62597046  1
  In  In66  1  0.83224570  -0.00202558  0.13207337  1
  In  In67  1  0.83656331  0.00493542  0.62341476  1
  In  In68  1  0.82439135  0.33077940  0.12879694  1
  In  In69  1  0.84730308  0.32324080  0.62909598  1
  In  In70  1  0.83683253  0.65619082  0.12443623  1
  In  In71  1  0.82950527  0.69321051  0.62312282  1
  In  In72  1  0.17177239  0.49569500  0.50261299  1
  In  In73  1  0.16696582  0.16370214  -0.00807448  1
  In  In74  1  -0.00324546  0.67181966  0.25059048  1
  In  In75  1  0.50078006  0.16760852  0.00201540  1
  In  In76  1  0.16464374  0.83622269  0.51423169  1
  In  In77  1  0.33727347  0.00504107  0.25666000  1
  In  In78  1  0.49522787  0.50220279  0.50470517  1
  In  In79  1  0.83393344  0.49748103  0.49487932  1
  In  In80  1  0.83353390  0.83191642  -0.00062776  1
  In  In81  1  0.17321856  0.83085538  -0.01072365  1
  In  In82  1  0.83279841  0.17181725  -0.00863795  1
  In  In83  1  0.00090164  0.32882617  0.24758851  1
  In  In84  1  0.66721056  0.32482688  0.74787122  1
  In  In85  1  0.66472422  0.67400187  0.74718367  1
  Cu  Cu86  1  0.66680534  0.34150891  0.00778375  1
  Cu  Cu87  1  0.33209174  0.33372564  -0.00081675  1
  Cu  Cu88  1  0.66382413  0.66761128  0.00377275  1
  Cu  Cu89  1  0.83507311  0.50029447  0.75215560  1
  Cu  Cu90  1  0.17705332  0.49929211  0.24400466  1
  Cu  Cu91  1  0.33030305  0.32880924  0.49968861  1
  Cu  Cu92  1  0.51004120  0.84070473  0.74455833  1
  Cu  Cu93  1  0.82232498  0.84068673  0.25814291  1
  Cu  Cu94  1  0.00001211  0.34108790  -0.00613638  1
  Cu  Cu95  1  0.49833773  0.50093343  0.24115619  1
  Cu  Cu96  1  0.33736217  0.00666772  0.50380782  1
  Cu  Cu97  1  0.66495747  -0.00164111  0.00148173  1
  Cu  Cu98  1  0.83314198  0.16125411  0.25718933  1
  Cu  Cu99  1  0.16098126  0.83942151  0.24959751  1
  Cu  Cu100  1  0.33368035  0.67271957  0.50227734  1
  Cu  Cu101  1  0.16257948  0.17273726  0.74777628  1
  Cu  Cu102  1  0.49829075  0.83109923  0.25281817  1
  Cu  Cu103  1  0.00279508  0.31816745  0.50187804  1
  Cu  Cu104  1  0.83087023  0.50459566  0.24999989  1
  Cu  Cu105  1  0.49113989  0.50366818  0.75553779  1
  Cu  Cu106  1  -0.00601182  0.66763111  0.51166095  1
  Cu  Cu107  1  0.66842557  0.33059610  0.49924447  1
  Cu  Cu108  1  0.33728793  0.66140682  -0.00064312  1
  Cu  Cu109  1  0.00331092  0.66581021  -0.00757530  1
  Cu  Cu110  1  0.16576056  0.49441274  0.75647484  1
  Cu  Cu111  1  0.49510494  0.16370288  0.74175489  1
  Cu  Cu112  1  0.83100187  0.83800989  0.74138482  1
  Cu  Cu113  1  0.50763081  0.16301328  0.25953531  1
  Cu  Cu114  1  -0.00144393  -0.00398073  0.50797444  1
  Se  Se115  1  0.07741207  0.07701477  0.05587510  1
  Se  Se116  1  0.08767808  0.08086993  0.55405428  1
  Se  Se117  1  0.08878363  0.42025532  0.04543361  1
  Se  Se118  1  0.07780032  0.40689300  0.55938627  1
  Se  Se119  1  0.07864037  0.74615863  0.05664574  1
  Se  Se120  1  0.07171205  0.74799637  0.57175411  1
  Se  Se121  1  0.40766719  0.07118000  0.05377770  1
  Se  Se122  1  0.42108353  0.08949033  0.55700628  1
  Se  Se123  1  0.42016835  0.41206722  0.05302735  1
  Se  Se124  1  0.40213515  0.41346278  0.56334531  1
  Se  Se125  1  0.41655231  0.74849928  0.05293111  1
  Se  Se126  1  0.41388833  0.75670096  0.55546795  1
  Se  Se127  1  0.74554396  0.08261851  0.05830888  1
  Se  Se128  1  0.75439305  0.07334021  0.54602420  1
  Se  Se129  1  0.75641777  0.42049330  0.05788994  1
  Se  Se130  1  0.74669865  0.40945688  0.56168653  1
  Se  Se131  1  0.74367649  0.74901287  0.06431955  1
  Se  Se132  1  0.74170314  0.73684336  0.54397580  1
  Se  Se133  1  0.25634422  0.24900941  0.05886783  1
  Se  Se134  1  0.24690942  0.24657900  0.55369364  1
  Se  Se135  1  0.24857751  0.58075068  0.05018269  1
  Se  Se136  1  0.24734147  0.59884457  0.56191261  1
  Se  Se137  1  0.25646600  0.91921853  0.05716301  1
  Se  Se138  1  0.25847813  0.92812885  0.56703034  1
  Se  Se139  1  0.59243388  0.25234195  0.06514375  1
  Se  Se140  1  0.57833899  0.25064497  0.54854659  1
  Se  Se141  1  0.58251042  0.58161161  0.05658615  1
  Se  Se142  1  0.59016168  0.59556234  0.55589077  1
  Se  Se143  1  0.58061669  0.91663574  0.05359718  1
  Se  Se144  1  0.56598114  0.90696952  0.54363262  1
  Se  Se145  1  0.92424525  0.25907328  0.05672620  1
  Se  Se146  1  0.91383776  0.24028042  0.55273593  1
  Se  Se147  1  0.91492845  0.58731887  0.04604024  1
  Se  Se148  1  0.91636385  0.58029223  0.56693806  1
  Se  Se149  1  0.92228881  0.92743651  0.05583911  1
  Se  Se150  1  0.92025028  0.90823570  0.56039181  1
  Se  Se151  1  0.09062426  0.24279275  0.44681231  1
  Se  Se152  1  0.07370963  0.25453870  0.93489026  1
  Se  Se153  1  0.07225631  0.59038891  0.44875935  1
  Se  Se154  1  0.08840747  0.58116753  0.94313602  1
  Se  Se155  1  0.08198871  0.92123814  0.44323801  1
  Se  Se156  1  0.07670965  0.92528333  0.94076705  1
  Se  Se157  1  0.42137296  0.25078486  0.44922556  1
  Se  Se158  1  0.40754367  0.25047715  0.93791390  1
  Se  Se159  1  0.40915116  0.59124095  0.44052446  1
  Se  Se160  1  0.42299520  0.57824554  0.94660045  1
  Se  Se161  1  0.41134414  0.91525888  0.45094196  1
  Se  Se162  1  0.42272873  0.90817578  0.94286948  1
  Se  Se163  1  0.75531854  0.24886583  0.44896066  1
  Se  Se164  1  0.73520276  0.26262038  0.93824611  1
  Se  Se165  1  0.73608562  0.58102326  0.43878221  1
  Se  Se166  1  0.75038134  0.58760062  0.95079773  1
  Se  Se167  1  0.75479500  0.90294064  0.45009165  1
  Se  Se168  1  0.74971463  0.92739159  0.93802980  1
  Se  Se169  1  0.25052317  0.08620556  0.45101782  1
  Se  Se170  1  0.26155020  0.06903952  0.94160334  1
  Se  Se171  1  0.25847328  0.41225893  0.43584663  1
  Se  Se172  1  0.24874650  0.41752771  0.94670757  1
  Se  Se173  1  0.24638033  0.74754063  0.44262368  1
  Se  Se174  1  0.26291605  0.73997575  0.93248448  1
  Se  Se175  1  0.59103095  0.08282814  0.45837654  1
  Se  Se176  1  0.58767342  0.07853867  0.93834667  1
  Se  Se177  1  0.58618994  0.41362831  0.44244769  1
  Se  Se178  1  0.57729339  0.41820611  0.95475373  1
  Se  Se179  1  0.57080041  0.75290765  0.44416555  1
  Se  Se180  1  0.58572286  0.75449073  0.94962883  1
  Se  Se181  1  0.91556892  0.07584769  0.44968441  1
  Se  Se182  1  0.92305665  0.07687941  0.93853720  1
  Se  Se183  1  0.92922747  0.40291368  0.43992131  1
  Se  Se184  1  0.91170686  0.42117077  0.94270071  1
  Se  Se185  1  0.91371297  0.75013392  0.45604826  1
  Se  Se186  1  0.92723358  0.75144034  0.93457940  1
  Se  Se187  1  0.26752802  0.24803680  0.30162565  1
  Se  Se188  1  0.25039654  0.25256517  0.80079817  1
  Se  Se189  1  0.25221597  0.58836663  0.29874808  1
  Se  Se190  1  0.25277808  0.57946575  0.80513662  1
  Se  Se191  1  0.24224167  0.91307873  0.31451769  1
  Se  Se192  1  0.24022529  0.90669220  0.79976280  1
  Se  Se193  1  0.58838633  0.25110331  0.31120157  1
  Se  Se194  1  0.57104293  0.24046785  0.81021148  1
  Se  Se195  1  0.57953043  0.58462081  0.29702634  1
  Se  Se196  1  0.58009481  0.58070448  0.81106918  1
  Se  Se197  1  0.57832216  0.91626197  0.30808978  1
  Se  Se198  1  0.59199392  0.92476613  0.79922101  1
  Se  Se199  1  0.91610787  0.24356500  0.31444025  1
  Se  Se200  1  0.89085665  0.23631600  0.79804595  1
  Se  Se201  1  0.90570339  0.58442847  0.31423391  1
  Se  Se202  1  0.91877108  0.58487233  0.80360343  1
  Se  Se203  1  0.91228836  0.92146615  0.30687551  1
  Se  Se204  1  0.91576778  0.91848759  0.79790226  1
  Se  Se205  1  0.08348008  0.08885199  0.30042068  1
  Se  Se206  1  0.08369309  0.08511253  0.80182359  1
  Se  Se207  1  0.09590817  0.42154153  0.30676312  1
  Se  Se208  1  0.07701179  0.41045485  0.80465870  1
  Se  Se209  1  0.08326240  0.76034071  0.31542410  1
  Se  Se210  1  0.08228501  0.74429988  0.79684107  1
  Se  Se211  1  0.43101125  0.08145563  0.32208874  1
  Se  Se212  1  0.41492283  0.07918423  0.79870531  1
  Se  Se213  1  0.41837363  0.41590423  0.29772679  1
  Se  Se214  1  0.41251568  0.41383390  0.80549673  1
  Se  Se215  1  0.40817237  0.74677192  0.29849621  1
  Se  Se216  1  0.43237522  0.75428832  0.80159711  1
  Se  Se217  1  0.74620056  0.08269118  0.31182718  1
  Se  Se218  1  0.74670264  0.08332371  0.78989145  1
  Se  Se219  1  0.74889381  0.41509466  0.29826763  1
  Se  Se220  1  0.74531087  0.42678223  0.80975819  1
  Se  Se221  1  0.74184317  0.75031233  0.30584306  1
  Se  Se222  1  0.75831384  0.76032959  0.81076134  1
  Se  Se223  1  0.24571392  0.08652885  0.19122634  1
  Se  Se224  1  0.24850028  0.08816650  0.69741697  1
  Se  Se225  1  0.25574642  0.41358725  0.19037228  1
  Se  Se226  1  0.24996368  0.41688315  0.69813850  1
  Se  Se227  1  0.24242702  0.75177144  0.19936420  1
  Se  Se228  1  0.27214187  0.73421530  0.70473446  1
  Se  Se229  1  0.58338804  0.07558525  0.20331481  1
  Se  Se230  1  0.58330633  0.08494311  0.68997073  1
  Se  Se231  1  0.58745406  0.41508318  0.19542025  1
  Se  Se232  1  0.57254044  0.42407198  0.69445654  1
  Se  Se233  1  0.58162345  0.74946463  0.19688733  1
  Se  Se234  1  0.59167095  0.76713855  0.68140494  1
  Se  Se235  1  0.91553937  0.08560326  0.19679185  1
  Se  Se236  1  0.93887231  0.06151636  0.69172953  1
  Se  Se237  1  0.91655184  0.42914735  0.18980802  1
  Se  Se238  1  0.91515257  0.41062324  0.70216543  1
  Se  Se239  1  0.90309150  0.76376082  0.19294001  1
  Se  Se240  1  0.91956608  0.74845002  0.69920906  1
  Se  Se241  1  0.09739828  0.24302996  0.19068944  1
  Se  Se242  1  0.07592187  0.25238549  0.69375414  1
  Se  Se243  1  0.08509385  0.57726875  0.19013871  1
  Se  Se244  1  0.08307737  0.57879957  0.70280214  1
  Se  Se245  1  0.07620202  0.92250364  0.20014791  1
  Se  Se246  1  0.11602253  0.89564356  0.70336794  1
  Se  Se247  1  0.42429870  0.24235025  0.20142203  1
  Se  Se248  1  0.41152733  0.25373546  0.69660632  1
  Se  Se249  1  0.41247320  0.58475028  0.19052812  1
  Se  Se250  1  0.42019708  0.59075868  0.69651251  1
  Se  Se251  1  0.41807460  0.91130244  0.19066133  1
  Se  Se252  1  0.42047954  0.92233772  0.69491855  1
  Se  Se253  1  0.75350195  0.24852759  0.20319129  1
  Se  Se254  1  0.74262246  0.23854797  0.67832758  1
  Se  Se255  1  0.74863499  0.58846921  0.19655482  1
  Se  Se256  1  0.75860391  0.58020000  0.68921893  1
  Se  Se257  1  0.74289119  0.92468422  0.20044891  1
  Se  Se258  1  0.74661710  0.91086997  0.68061979  1
