# generated using pymatgen
data_In86Cu29Se144
_symmetry_space_group_name_H-M   'P 1'
_cell_length_a   17.57221298
_cell_length_b   17.57516376
_cell_length_c   23.42802580
_cell_angle_alpha   90.02883667
_cell_angle_beta   89.99684388
_cell_angle_gamma   90.00658639
_symmetry_Int_Tables_number   1
_chemical_formula_structural   In86Cu29Se144
_chemical_formula_sum   'In86 Cu29 Se144'
_cell_volume   7235.38214550
_cell_formula_units_Z   1
loop_
 _symmetry_equiv_pos_site_id
 _symmetry_equiv_pos_as_xyz
  1  'x, y, z'
loop_
 _atom_site_type_symbol
 _atom_site_label
 _atom_site_symmetry_multiplicity
 _atom_site_fract_x
 _atom_site_fract_y
 _atom_site_fract_z
 _atom_site_occupancy
  In  In0  1  0.02423314  0.16510678  0.11952376  1
  In  In1  1  -0.00212985  0.16914881  0.62230717  1
  In  In2  1  0.00295868  0.49883055  0.13740067  1
  In  In3  1  -0.00120140  0.48537679  0.62510841  1
  In  In4  1  -0.02171904  0.84087277  0.11692482  1
  In  In5  1  0.00662849  0.84289811  0.61917121  1
  In  In6  1  0.32973618  0.16508689  0.12682606  1
  In  In7  1  0.30877886  0.19013265  0.66004410  1
  In  In8  1  0.31263233  0.50903669  0.13389577  1
  In  In9  1  0.32243526  0.50228812  0.62962785  1
  In  In10  1  0.34748218  0.82287878  0.12400931  1
  In  In11  1  0.33405182  0.83514815  0.62626812  1
  In  In12  1  0.65074260  0.16880536  0.12646071  1
  In  In13  1  0.66608782  0.15188964  0.62347035  1
  In  In14  1  0.68478546  0.50202054  0.12987504  1
  In  In15  1  0.67130327  0.50680113  0.62569605  1
  In  In16  1  0.66667423  0.83148419  0.13030820  1
  In  In17  1  0.66178676  0.84409744  0.61329560  1
  In  In18  1  0.17925640  0.00435451  0.37458674  1
  In  In19  1  0.17800123  0.01287582  0.86415744  1
  In  In20  1  0.15078617  0.32037849  0.35905820  1
  In  In21  1  0.16882308  0.32800585  0.87693915  1
  In  In22  1  0.15458861  0.65096857  0.34892375  1
  In  In23  1  0.16959354  0.65151737  0.88340879  1
  In  In24  1  0.48624049  -0.01385316  0.37200895  1
  In  In25  1  0.48137300  0.01441459  0.89294522  1
  In  In26  1  0.50028789  0.34545464  0.37322632  1
  In  In27  1  0.47879309  0.32859778  0.87411358  1
  In  In28  1  0.50422491  0.67370648  0.36554030  1
  In  In29  1  0.49675640  0.67570371  0.88470964  1
  In  In30  1  0.82737551  0.01165015  0.37592251  1
  In  In31  1  0.83368843  -0.01171195  0.87377125  1
  In  In32  1  0.83973031  0.32345190  0.37426955  1
  In  In33  1  0.85329022  0.32897815  0.87923663  1
  In  In34  1  0.84505929  0.67113039  0.36076624  1
  In  In35  1  0.83580426  0.66884982  0.88953074  1
  In  In36  1  -0.00080306  0.17248164  0.38583628  1
  In  In37  1  0.01597887  0.17770037  0.86040921  1
  In  In38  1  -0.00811477  0.48723677  0.34573387  1
  In  In39  1  0.01806687  0.48851867  0.89255201  1
  In  In40  1  -0.00363121  0.82136202  0.37453693  1
  In  In41  1  -0.00971965  0.83736319  0.87939219  1
  In  In42  1  0.32604643  0.15907995  0.37637572  1
  In  In43  1  0.33038012  0.16572190  0.87443951  1
  In  In44  1  0.31515986  0.48710835  0.34994242  1
  In  In45  1  0.31903946  0.48862958  0.87375871  1
  In  In46  1  0.33298245  0.83797583  0.36947361  1
  In  In47  1  0.34093442  0.83562067  0.87791442  1
  In  In48  1  0.68536162  0.16876337  0.37237032  1
  In  In49  1  0.66538652  0.15300474  0.88043839  1
  In  In50  1  0.66295713  0.50363875  0.36469754  1
  In  In51  1  0.66662994  0.51351965  0.88582922  1
  In  In52  1  0.66329472  0.83501661  0.37258689  1
  In  In53  1  0.67249458  0.83198765  0.88635788  1
  In  In54  1  0.16128554  0.02257584  0.11655708  1
  In  In55  1  0.14245862  0.02815327  0.65713991  1
  In  In56  1  0.16677821  0.33263979  0.12906557  1
  In  In57  1  0.16329380  0.32597832  0.62855915  1
  In  In58  1  0.17469966  0.65309316  0.13174721  1
  In  In59  1  0.17092522  0.68142859  0.62602282  1
  In  In60  1  0.49870025  -0.00088706  0.12510442  1
  In  In61  1  0.49909452  0.00025005  0.62495153  1
  In  In62  1  0.49101819  0.31353022  0.11985815  1
  In  In63  1  0.47788040  0.32200805  0.62484098  1
  In  In64  1  0.49188987  0.68128310  0.12506462  1
  In  In65  1  0.47947964  0.67581841  0.62167745  1
  In  In66  1  0.83682785  -0.02125454  0.12011159  1
  In  In67  1  0.83768549  0.00815882  0.61154797  1
  In  In68  1  0.84221858  0.35581219  0.12839452  1
  In  In69  1  0.85695006  0.32378904  0.63020270  1
  In  In70  1  0.83363066  0.66414861  0.13661759  1
  In  In71  1  0.81974691  0.67153474  0.61970823  1
  In  In72  1  0.50211120  0.51307397  0.48842718  1
  In  In73  1  0.66129712  0.33764905  0.75505955  1
  In  In74  1  0.66402056  0.66994937  0.75653109  1
  In  In75  1  0.66369524  0.33011670  0.24892630  1
  In  In76  1  0.00055254  0.00100107  0.24165914  1
  In  In77  1  0.16645358  0.83436589  -0.00004441  1
  In  In78  1  0.65869129  -0.00441146  0.74575347  1
  In  In79  1  0.49913572  0.15731471  0.50474213  1
  In  In80  1  0.83730903  0.49865764  0.48390404  1
  In  In81  1  0.16574454  0.49690672  0.49362056  1
  In  In82  1  0.49534261  0.49653272  0.00595807  1
  In  In83  1  0.00732375  0.66529659  0.75447499  1
  In  In84  1  0.83696626  0.16368154  -0.00182745  1
  In  In85  1  0.17469490  0.83774876  0.49567570  1
  Cu  Cu86  1  -0.00477572  0.66353842  0.01062231  1
  Cu  Cu87  1  0.49219017  0.15558666  0.25082544  1
  Cu  Cu88  1  0.32028260  0.32650997  0.00088368  1
  Cu  Cu89  1  0.84598023  0.49539096  0.76083562  1
  Cu  Cu90  1  0.82658449  0.83616670  0.24973102  1
  Cu  Cu91  1  0.68171699  0.33026205  0.50487860  1
  Cu  Cu92  1  0.49837491  0.49818833  0.24322548  1
  Cu  Cu93  1  0.33332494  0.32839949  0.50453185  1
  Cu  Cu94  1  0.16969154  0.16849481  0.24972028  1
  Cu  Cu95  1  0.16818604  0.83691806  0.24275320  1
  Cu  Cu96  1  0.66321287  -0.00319413  0.49286992  1
  Cu  Cu97  1  0.33584910  0.00166220  0.00051852  1
  Cu  Cu98  1  0.33445026  0.67521051  0.49045332  1
  Cu  Cu99  1  0.66642863  -0.00743494  0.00501157  1
  Cu  Cu100  1  0.48737378  0.49799931  0.74765472  1
  Cu  Cu101  1  0.00373167  0.33605514  0.00363155  1
  Cu  Cu102  1  0.84375507  0.83638932  0.74732599  1
  Cu  Cu103  1  0.84037196  0.16830437  0.24593943  1
  Cu  Cu104  1  0.66399140  0.68402160  0.49357935  1
  Cu  Cu105  1  0.84006557  0.16429769  0.74553795  1
  Cu  Cu106  1  -0.00698374  0.65931235  0.49047026  1
  Cu  Cu107  1  0.00103336  0.00132515  0.50353554  1
  Cu  Cu108  1  0.50013570  0.83614146  0.24739802  1
  Cu  Cu109  1  0.17626224  0.83172933  0.75384565  1
  Cu  Cu110  1  0.16433130  0.49520311  0.75612914  1
  Cu  Cu111  1  0.32603706  0.00306610  0.50725286  1
  Cu  Cu112  1  0.67701907  0.66779673  0.01036830  1
  Cu  Cu113  1  0.50043083  0.83363896  0.75603404  1
  Cu  Cu114  1  0.66580475  0.33553019  0.00652047  1
  Se  Se115  1  0.07366522  0.07912680  0.03910200  1
  Se  Se116  1  0.08546401  0.07635001  0.56172055  1
  Se  Se117  1  0.08233606  0.41821446  0.06230560  1
  Se  Se118  1  0.07764610  0.40421060  0.55208632  1
  Se  Se119  1  0.07902584  0.74773036  0.06570226  1
  Se  Se120  1  0.07638438  0.74052852  0.54904682  1
  Se  Se121  1  0.41674258  0.08542479  0.05748609  1
  Se  Se122  1  0.40094503  0.08685743  0.56851644  1
  Se  Se123  1  0.40175976  0.40664878  0.06199421  1
  Se  Se124  1  0.41186278  0.42240269  0.55450048  1
  Se  Se125  1  0.41843911  0.74859598  0.04471679  1
  Se  Se126  1  0.41196252  0.75948032  0.54673044  1
  Se  Se127  1  0.74422610  0.08048715  0.06255571  1
  Se  Se128  1  0.74407028  0.08362916  0.54573634  1
  Se  Se129  1  0.75289386  0.41889767  0.05330242  1
  Se  Se130  1  0.75824807  0.41706696  0.56188320  1
  Se  Se131  1  0.75798165  0.75197995  0.06430314  1
  Se  Se132  1  0.75085066  0.76086339  0.54929006  1
  Se  Se133  1  0.24102798  0.24275084  0.05782031  1
  Se  Se134  1  0.25735213  0.24697595  0.56467203  1
  Se  Se135  1  0.24718709  0.58162759  0.05237704  1
  Se  Se136  1  0.25378072  0.59636002  0.55277461  1
  Se  Se137  1  0.25525484  0.92365635  0.06299522  1
  Se  Se138  1  0.24192653  0.92698689  0.56848104  1
  Se  Se139  1  0.58049150  0.24533039  0.04762137  1
  Se  Se140  1  0.58932199  0.25900545  0.56145008  1
  Se  Se141  1  0.59024249  0.58523388  0.06427119  1
  Se  Se142  1  0.58967862  0.59811861  0.55654586  1
  Se  Se143  1  0.58278931  0.91153653  0.05923517  1
  Se  Se144  1  0.57283016  0.92278095  0.54735803  1
  Se  Se145  1  0.92054365  0.25524259  0.06261521  1
  Se  Se146  1  0.91545718  0.24631198  0.54984926  1
  Se  Se147  1  0.91617512  0.57998367  0.06709655  1
  Se  Se148  1  0.91942993  0.58484698  0.55989015  1
  Se  Se149  1  0.93050151  0.93729621  0.04190338  1
  Se  Se150  1  0.91604724  0.91170360  0.54944856  1
  Se  Se151  1  0.10147764  0.24366493  0.44412060  1
  Se  Se152  1  0.07796913  0.25058085  0.94518537  1
  Se  Se153  1  0.07316828  0.58158476  0.43066433  1
  Se  Se154  1  0.08557576  0.58454502  0.95948509  1
  Se  Se155  1  0.07585602  0.92389849  0.43657889  1
  Se  Se156  1  0.08732889  0.92487489  0.93369957  1
  Se  Se157  1  0.41836092  0.25606910  0.44230286  1
  Se  Se158  1  0.41043690  0.24730435  0.94981942  1
  Se  Se159  1  0.40345566  0.58831224  0.42759132  1
  Se  Se160  1  0.40837317  0.57975638  0.94069832  1
  Se  Se161  1  0.40192312  0.91924420  0.44854772  1
  Se  Se162  1  0.41925943  0.90979472  0.95522735  1
  Se  Se163  1  0.75978213  0.24650191  0.44843201  1
  Se  Se164  1  0.74412450  0.25791006  0.94053984  1
  Se  Se165  1  0.74034907  0.59461140  0.43599448  1
  Se  Se166  1  0.75649731  0.58120422  0.95657779  1
  Se  Se167  1  0.74998889  0.91765157  0.43997965  1
  Se  Se168  1  0.75674534  0.91665278  0.95191346  1
  Se  Se169  1  0.24503882  0.08670717  0.45246420  1
  Se  Se170  1  0.25052689  0.08131094  0.94615579  1
  Se  Se171  1  0.26058057  0.40863328  0.43824315  1
  Se  Se172  1  0.24127691  0.41610948  0.95027952  1
  Se  Se173  1  0.24286643  0.73999295  0.42876725  1
  Se  Se174  1  0.25808772  0.74217980  0.94455831  1
  Se  Se175  1  0.58569832  0.08173917  0.43239735  1
  Se  Se176  1  0.58531894  0.08128370  0.95475864  1
  Se  Se177  1  0.60095440  0.41031189  0.44474288  1
  Se  Se178  1  0.58444737  0.40852488  0.93994595  1
  Se  Se179  1  0.57223602  0.75809985  0.44201007  1
  Se  Se180  1  0.59247831  0.74375124  0.95160509  1
  Se  Se181  1  0.91692299  0.08148799  0.44746201  1
  Se  Se182  1  0.92065227  0.08884878  0.92605023  1
  Se  Se183  1  0.93718128  0.40898090  0.43540830  1
  Se  Se184  1  0.91526561  0.41837186  0.95379858  1
  Se  Se185  1  0.90822332  0.74714652  0.44435603  1
  Se  Se186  1  0.92060483  0.75290357  0.95455718  1
  Se  Se187  1  0.25710273  0.24811097  0.30375576  1
  Se  Se188  1  0.24998247  0.24999448  0.80569355  1
  Se  Se189  1  0.27107013  0.60370731  0.29346794  1
  Se  Se190  1  0.24797931  0.58334227  0.80441906  1
  Se  Se191  1  0.24719605  0.91857931  0.30058037  1
  Se  Se192  1  0.25946920  0.91453028  0.80660274  1
  Se  Se193  1  0.57419709  0.23797514  0.31124167  1
  Se  Se194  1  0.57907505  0.24226187  0.81482951  1
  Se  Se195  1  0.57963150  0.58267176  0.29685724  1
  Se  Se196  1  0.57030858  0.57459188  0.80930618  1
  Se  Se197  1  0.58127694  0.91926525  0.30317808  1
  Se  Se198  1  0.58174629  0.91027415  0.81728480  1
  Se  Se199  1  0.92273364  0.24266165  0.30525270  1
  Se  Se200  1  0.91723705  0.25362475  0.79784515  1
  Se  Se201  1  0.91384407  0.58352479  0.28938481  1
  Se  Se202  1  0.92044958  0.58030716  0.82085949  1
  Se  Se203  1  0.91233483  0.91614919  0.30844166  1
  Se  Se204  1  0.92360699  0.91998127  0.80129994  1
  Se  Se205  1  0.08500777  0.08732935  0.30875873  1
  Se  Se206  1  0.08804990  0.08425670  0.79390593  1
  Se  Se207  1  0.12074516  0.44405256  0.30502089  1
  Se  Se208  1  0.08130936  0.41479700  0.81018097  1
  Se  Se209  1  0.08025780  0.75870747  0.29720493  1
  Se  Se210  1  0.09382521  0.75534072  0.81662894  1
  Se  Se211  1  0.40758358  0.07665316  0.30670674  1
  Se  Se212  1  0.41792157  0.07962776  0.80959712  1
  Se  Se213  1  0.41972104  0.40978420  0.29587234  1
  Se  Se214  1  0.40719610  0.41449022  0.80225766  1
  Se  Se215  1  0.41459393  0.75427423  0.30063377  1
  Se  Se216  1  0.41877619  0.74621921  0.80728514  1
  Se  Se217  1  0.75383226  0.08585482  0.29642857  1
  Se  Se218  1  0.75642185  0.08637366  0.80362915  1
  Se  Se219  1  0.75846039  0.41705100  0.30671899  1
  Se  Se220  1  0.75462677  0.42396896  0.81771781  1
  Se  Se221  1  0.74577132  0.75084605  0.30341084  1
  Se  Se222  1  0.76438720  0.75786551  0.80976559  1
  Se  Se223  1  0.24646165  0.08019471  0.19619111  1
  Se  Se224  1  0.27367572  0.05850416  0.69920389  1
  Se  Se225  1  0.25627322  0.40554679  0.19897173  1
  Se  Se226  1  0.24416133  0.41531477  0.69520632  1
  Se  Se227  1  0.25213418  0.75268021  0.19149160  1
  Se  Se228  1  0.25687923  0.74890641  0.69857177  1
  Se  Se229  1  0.58201435  0.08048055  0.19761748  1
  Se  Se230  1  0.56853907  0.09679469  0.69769448  1
  Se  Se231  1  0.57623518  0.41524804  0.18277049  1
  Se  Se232  1  0.57391426  0.42434291  0.68659532  1
  Se  Se233  1  0.58308906  0.74731112  0.19788515  1
  Se  Se234  1  0.58044368  0.75805808  0.68916380  1
  Se  Se235  1  0.91224715  0.09048176  0.17910084  1
  Se  Se236  1  0.91554416  0.07742743  0.68939660  1
  Se  Se237  1  0.92728853  0.40822011  0.20714256  1
  Se  Se238  1  0.92483084  0.41309480  0.70353894  1
  Se  Se239  1  0.91741212  0.75977314  0.19710486  1
  Se  Se240  1  0.91526632  0.74824489  0.68795976  1
  Se  Se241  1  0.08085149  0.24925778  0.19943311  1
  Se  Se242  1  0.08611773  0.23762646  0.69530504  1
  Se  Se243  1  0.07999627  0.59207052  0.20178593  1
  Se  Se244  1  0.09219646  0.57545486  0.68753086  1
  Se  Se245  1  0.08922861  0.91301138  0.17974343  1
  Se  Se246  1  0.08374245  0.90438202  0.70012465  1
  Se  Se247  1  0.41395444  0.24483906  0.19886696  1
  Se  Se248  1  0.42144530  0.25589479  0.71116736  1
  Se  Se249  1  0.41872095  0.58327843  0.18888125  1
  Se  Se250  1  0.41169056  0.58661681  0.69264836  1
  Se  Se251  1  0.41403589  0.91745156  0.19435542  1
  Se  Se252  1  0.42352832  0.91280574  0.69449048  1
  Se  Se253  1  0.75743581  0.24690241  0.18497162  1
  Se  Se254  1  0.75002666  0.24520208  0.69084621  1
  Se  Se255  1  0.74964534  0.58277190  0.20608708  1
  Se  Se256  1  0.76433653  0.57657966  0.70125663  1
  Se  Se257  1  0.74740476  0.92338652  0.19717257  1
  Se  Se258  1  0.75711890  0.91111476  0.68730973  1
