# generated using pymatgen
data_In86Cu29Se144
_symmetry_space_group_name_H-M   'P 1'
_cell_length_a   17.57358726
_cell_length_b   17.57152119
_cell_length_c   23.41567019
_cell_angle_alpha   89.96467425
_cell_angle_beta   89.99139357
_cell_angle_gamma   89.99297764
_symmetry_Int_Tables_number   1
_chemical_formula_structural   In86Cu29Se144
_chemical_formula_sum   'In86 Cu29 Se144'
_cell_volume   7230.63242892
_cell_formula_units_Z   1
loop_
 _symmetry_equiv_pos_site_id
 _symmetry_equiv_pos_as_xyz
  1  'x, y, z'
loop_
 _atom_site_type_symbol
 _atom_site_label
 _atom_site_symmetry_multiplicity
 _atom_site_fract_x
 _atom_site_fract_y
 _atom_site_fract_z
 _atom_site_occupancy
  In  In0  1  -0.01556725  0.16931676  0.13365512  1
  In  In1  1  -0.00699008  0.16263764  0.61258222  1
  In  In2  1  0.01406396  0.50246839  0.12551327  1
  In  In3  1  0.00867804  0.50916707  0.61787860  1
  In  In4  1  -0.00367636  0.83544305  0.14067136  1
  In  In5  1  -0.00989611  0.81902254  0.61376039  1
  In  In6  1  0.34480701  0.16253627  0.14093045  1
  In  In7  1  0.32270633  0.16072613  0.61773527  1
  In  In8  1  0.33415283  0.50369344  0.12768311  1
  In  In9  1  0.33982218  0.51301955  0.62215740  1
  In  In10  1  0.33308587  0.84301465  0.13753736  1
  In  In11  1  0.33116250  0.83412551  0.62062658  1
  In  In12  1  0.67174317  0.16881424  0.14321469  1
  In  In13  1  0.67609081  0.16878729  0.61948349  1
  In  In14  1  0.64588211  0.50882764  0.12489775  1
  In  In15  1  0.67397303  0.49348524  0.62666647  1
  In  In16  1  0.67427276  0.83434134  0.12960521  1
  In  In17  1  0.64747292  0.80732917  0.59678293  1
  In  In18  1  0.16809511  -0.00049104  0.37620595  1
  In  In19  1  0.16775905  -0.01246689  0.87742354  1
  In  In20  1  0.17174975  0.32596222  0.38110402  1
  In  In21  1  0.18423553  0.33662145  0.87777233  1
  In  In22  1  0.16864520  0.66757193  0.37729929  1
  In  In23  1  0.16389425  0.66262318  0.86786447  1
  In  In24  1  0.49205391  -0.01604285  0.35988838  1
  In  In25  1  0.49312992  0.00878392  0.87580360  1
  In  In26  1  0.50825297  0.32918352  0.35769572  1
  In  In27  1  0.51806500  0.33116533  0.87485065  1
  In  In28  1  0.50347178  0.70116985  0.37718446  1
  In  In29  1  0.49494872  0.66175531  0.87114131  1
  In  In30  1  0.83470290  0.00175420  0.37300453  1
  In  In31  1  0.83987940  -0.00046094  0.88137686  1
  In  In32  1  0.82291620  0.33215755  0.37974470  1
  In  In33  1  0.81734680  0.33268051  0.87603328  1
  In  In34  1  0.83355812  0.65265745  0.38775606  1
  In  In35  1  0.83080537  0.65992597  0.85859998  1
  In  In36  1  0.00204681  0.16440807  0.37677018  1
  In  In37  1  -0.00768127  0.15198736  0.88051785  1
  In  In38  1  -0.00670640  0.50971479  0.38158272  1
  In  In39  1  0.00035249  0.51138966  0.87171369  1
  In  In40  1  0.00338888  0.83129958  0.37916508  1
  In  In41  1  0.00946250  0.83037070  0.87150637  1
  In  In42  1  0.33037179  0.15367566  0.36115552  1
  In  In43  1  0.34214224  0.16480658  0.87269207  1
  In  In44  1  0.32689508  0.49748248  0.37260980  1
  In  In45  1  0.32567565  0.50901431  0.88341697  1
  In  In46  1  0.33238414  0.83006245  0.37329297  1
  In  In47  1  0.33634035  0.83293857  0.86772749  1
  In  In48  1  0.68232580  0.17428680  0.35224541  1
  In  In49  1  0.66155638  0.17740807  0.87722743  1
  In  In50  1  0.67685716  0.50030498  0.38239731  1
  In  In51  1  0.66427125  0.49929912  0.87134757  1
  In  In52  1  0.65626006  0.83832455  0.39091605  1
  In  In53  1  0.67667466  0.83101962  0.87147887  1
  In  In54  1  0.16832731  -0.00476751  0.13727894  1
  In  In55  1  0.17218535  0.00314479  0.61408728  1
  In  In56  1  0.17102491  0.35052411  0.12491231  1
  In  In57  1  0.16091382  0.32848186  0.61134261  1
  In  In58  1  0.17303020  0.66369011  0.13131368  1
  In  In59  1  0.16851531  0.66629890  0.62134011  1
  In  In60  1  0.49648134  0.00989223  0.14645652  1
  In  In61  1  0.49967527  -0.01696470  0.61895903  1
  In  In62  1  0.48931564  0.34459870  0.13875597  1
  In  In63  1  0.50950890  0.34328936  0.62403808  1
  In  In64  1  0.50539404  0.65087654  0.12248969  1
  In  In65  1  0.48596576  0.67294593  0.63266472  1
  In  In66  1  0.81273417  0.02482564  0.15901935  1
  In  In67  1  0.83001927  -0.00318547  0.61252673  1
  In  In68  1  0.83425077  0.32132583  0.12921694  1
  In  In69  1  0.81623053  0.33095896  0.60970972  1
  In  In70  1  0.83039405  0.67798546  0.12988173  1
  In  In71  1  0.83107267  0.66566756  0.62096835  1
  In  In72  1  0.83607337  0.83312030  0.00687730  1
  In  In73  1  0.66457090  0.66800027  0.25455796  1
  In  In74  1  0.50037963  0.50195483  0.49207042  1
  In  In75  1  0.66667420  -0.00504726  0.74596531  1
  In  In76  1  0.16881300  0.17264497  0.00327963  1
  In  In77  1  0.49943374  0.83478880  0.00103003  1
  In  In78  1  0.00069876  -0.00926589  0.74374373  1
  In  In79  1  0.50623167  0.16288161  0.48164275  1
  In  In80  1  0.34237710  0.33856960  0.74662018  1
  In  In81  1  0.83233022  0.49927115  -0.00669377  1
  In  In82  1  0.50077747  0.17235934  0.01622512  1
  In  In83  1  -0.00229188  0.33702977  0.74337022  1
  In  In84  1  0.00181469  0.33421820  0.25698614  1
  In  In85  1  0.16701895  0.83174225  0.00866174  1
  Cu  Cu86  1  -0.01168888  0.00672960  0.01221504  1
  Cu  Cu87  1  0.82971413  0.82639828  0.73751353  1
  Cu  Cu88  1  0.00432745  0.66624362  0.49984701  1
  Cu  Cu89  1  0.17252904  0.50224690  0.74604254  1
  Cu  Cu90  1  0.00120436  0.33223830  0.00765231  1
  Cu  Cu91  1  0.16971911  0.50752509  0.25103847  1
  Cu  Cu92  1  0.49585690  0.50826979  0.25431455  1
  Cu  Cu93  1  0.50689132  0.50319137  0.74946627  1
  Cu  Cu94  1  0.32880140  0.32990892  0.49217960  1
  Cu  Cu95  1  0.83714444  0.82956197  0.26093015  1
  Cu  Cu96  1  0.33293371  0.66333478  0.00291035  1
  Cu  Cu97  1  0.82733498  0.17179174  0.74719561  1
  Cu  Cu98  1  0.34082056  0.34314761  0.00654302  1
  Cu  Cu99  1  0.66869708  0.00919986  0.01659519  1
  Cu  Cu100  1  0.49705356  0.82857269  0.74350357  1
  Cu  Cu101  1  0.49917525  0.16308415  0.75057966  1
  Cu  Cu102  1  0.00128906  0.66307503  -0.00437946  1
  Cu  Cu103  1  0.17092316  0.15578013  0.74147313  1
  Cu  Cu104  1  0.16725594  0.16811572  0.25515706  1
  Cu  Cu105  1  0.00478941  0.00216312  0.49287216  1
  Cu  Cu106  1  0.17153663  0.82702873  0.74497367  1
  Cu  Cu107  1  0.83271197  0.50208106  0.74474057  1
  Cu  Cu108  1  0.67071711  0.33406254  0.00257432  1
  Cu  Cu109  1  0.67019674  0.00289811  0.49133519  1
  Cu  Cu110  1  -0.00687486  0.33547799  0.49542807  1
  Cu  Cu111  1  0.16572281  0.83295876  0.25940742  1
  Cu  Cu112  1  0.83209806  0.49658297  0.25888863  1
  Cu  Cu113  1  0.33607193  -0.00293418  0.48927416  1
  Cu  Cu114  1  0.33130975  0.67216706  0.50037017  1
  Se  Se115  1  0.08088206  0.08166388  0.06527222  1
  Se  Se116  1  0.08601679  0.08659273  0.54862511  1
  Se  Se117  1  0.08629499  0.42079006  0.05034239  1
  Se  Se118  1  0.07987184  0.41706097  0.54813915  1
  Se  Se119  1  0.06968187  0.74440008  0.06281704  1
  Se  Se120  1  0.09056634  0.75115152  0.55027162  1
  Se  Se121  1  0.41047608  0.07244027  0.06305764  1
  Se  Se122  1  0.41729314  0.07814484  0.55083685  1
  Se  Se123  1  0.42472735  0.42525764  0.05907501  1
  Se  Se124  1  0.40851520  0.40790422  0.55418525  1
  Se  Se125  1  0.40715599  0.74846336  0.06304248  1
  Se  Se126  1  0.41906213  0.75209980  0.55321648  1
  Se  Se127  1  0.75241145  0.08999051  0.06976441  1
  Se  Se128  1  0.75017122  0.08626140  0.54709875  1
  Se  Se129  1  0.74879034  0.41648419  0.06379719  1
  Se  Se130  1  0.74477980  0.42589088  0.54438542  1
  Se  Se131  1  0.73631824  0.73919769  0.05408532  1
  Se  Se132  1  0.77423927  0.76894106  0.55304147  1
  Se  Se133  1  0.26408985  0.25604133  0.06466642  1
  Se  Se134  1  0.24821838  0.24496842  0.54667563  1
  Se  Se135  1  0.24676790  0.58274654  0.05680347  1
  Se  Se136  1  0.25154511  0.58203713  0.55104386  1
  Se  Se137  1  0.25757545  0.92783898  0.05942486  1
  Se  Se138  1  0.25339814  0.91673219  0.54760234  1
  Se  Se139  1  0.59256136  0.26324705  0.07113141  1
  Se  Se140  1  0.58414103  0.25251849  0.55317019  1
  Se  Se141  1  0.58325254  0.58454816  0.04421309  1
  Se  Se142  1  0.57504601  0.58139168  0.56797688  1
  Se  Se143  1  0.58372259  0.92675693  0.06816181  1
  Se  Se144  1  0.58294667  0.91915936  0.54210174  1
  Se  Se145  1  0.91561322  0.24786988  0.05442832  1
  Se  Se146  1  0.91050544  0.24999221  0.54888929  1
  Se  Se147  1  0.91805948  0.58941520  0.05922632  1
  Se  Se148  1  0.91679481  0.58346591  0.55160606  1
  Se  Se149  1  0.91253682  0.92485172  0.07290926  1
  Se  Se150  1  0.92359628  0.92022616  0.54988488  1
  Se  Se151  1  0.07995849  0.25016336  0.44678531  1
  Se  Se152  1  0.07718392  0.25708676  0.93726699  1
  Se  Se153  1  0.08821296  0.58153130  0.44757730  1
  Se  Se154  1  0.08737646  0.58259639  0.94352855  1
  Se  Se155  1  0.08956107  0.91430411  0.44646826  1
  Se  Se156  1  0.06763117  0.92493350  0.95114782  1
  Se  Se157  1  0.41048757  0.25638141  0.42997405  1
  Se  Se158  1  0.41480719  0.25823404  0.94469466  1
  Se  Se159  1  0.41116326  0.59601811  0.43630354  1
  Se  Se160  1  0.41939578  0.58475701  0.94808549  1
  Se  Se161  1  0.42133634  0.91125069  0.44159343  1
  Se  Se162  1  0.40577777  0.92490039  0.94348514  1
  Se  Se163  1  0.73868766  0.24068753  0.44019179  1
  Se  Se164  1  0.74958652  0.24579159  0.95037174  1
  Se  Se165  1  0.74517431  0.57971726  0.45848499  1
  Se  Se166  1  0.74593851  0.59579018  0.93844320  1
  Se  Se167  1  0.75839667  0.91603580  0.44590056  1
  Se  Se168  1  0.73909623  0.92673358  0.94943605  1
  Se  Se169  1  0.25363259  0.08719578  0.44208058  1
  Se  Se170  1  0.25466471  0.08005217  0.94154615  1
  Se  Se171  1  0.24610967  0.42137664  0.44675316  1
  Se  Se172  1  0.25067334  0.41945409  0.95315877  1
  Se  Se173  1  0.24732717  0.75478115  0.44660774  1
  Se  Se174  1  0.25406879  0.74586462  0.94207981  1
  Se  Se175  1  0.59206485  0.07179480  0.42264033  1
  Se  Se176  1  0.58767783  0.08041706  0.94904018  1
  Se  Se177  1  0.58528459  0.40151339  0.43885285  1
  Se  Se178  1  0.58969733  0.41658243  0.94683667  1
  Se  Se179  1  0.60018167  0.73164584  0.45568190  1
  Se  Se180  1  0.58813645  0.74899634  0.93833636  1
  Se  Se181  1  0.91540069  0.08463792  0.44473515  1
  Se  Se182  1  0.90610403  0.08672184  0.95564521  1
  Se  Se183  1  0.90967632  0.41837960  0.44314796  1
  Se  Se184  1  0.92625113  0.40652410  0.93681609  1
  Se  Se185  1  0.91861551  0.74685833  0.44650113  1
  Se  Se186  1  0.91964697  0.74413093  0.93719015  1
  Se  Se187  1  0.25050129  0.25537817  0.30398396  1
  Se  Se188  1  0.24657174  0.24161302  0.80144911  1
  Se  Se189  1  0.25350182  0.58986586  0.30464540  1
  Se  Se190  1  0.25483472  0.58228917  0.80307659  1
  Se  Se191  1  0.25207413  0.91963818  0.30609372  1
  Se  Se192  1  0.24657671  0.91458956  0.80270436  1
  Se  Se193  1  0.57155486  0.22987198  0.29091342  1
  Se  Se194  1  0.58591143  0.24791306  0.79846994  1
  Se  Se195  1  0.57561284  0.58218294  0.31935591  1
  Se  Se196  1  0.58810812  0.58884959  0.80311043  1
  Se  Se197  1  0.58171648  0.89029557  0.30555524  1
  Se  Se198  1  0.57208407  0.90975466  0.80957223  1
  Se  Se199  1  0.90763137  0.24418679  0.30914454  1
  Se  Se200  1  0.91381053  0.24334998  0.80882485  1
  Se  Se201  1  0.91308183  0.58533408  0.30713911  1
  Se  Se202  1  0.92327795  0.58205198  0.79446640  1
  Se  Se203  1  0.92286112  0.91531085  0.30878289  1
  Se  Se204  1  0.90414039  0.90463935  0.80521260  1
  Se  Se205  1  0.08452614  0.08402389  0.30687484  1
  Se  Se206  1  0.08858904  0.08486337  0.80704382  1
  Se  Se207  1  0.09142126  0.42681940  0.31369500  1
  Se  Se208  1  0.09518445  0.41840549  0.80653177  1
  Se  Se209  1  0.08151656  0.74579938  0.30758273  1
  Se  Se210  1  0.08341763  0.74859700  0.79936710  1
  Se  Se211  1  0.42215749  0.08143641  0.29570189  1
  Se  Se212  1  0.41300253  0.07984248  0.79935943  1
  Se  Se213  1  0.41491295  0.41921160  0.30399201  1
  Se  Se214  1  0.42646161  0.42375206  0.81354269  1
  Se  Se215  1  0.40705595  0.74227106  0.30221882  1
  Se  Se216  1  0.41553305  0.74677494  0.80123376  1
  Se  Se217  1  0.74947443  0.06710711  0.29584678  1
  Se  Se218  1  0.75490179  0.08602903  0.81000406  1
  Se  Se219  1  0.74428150  0.41517015  0.30663635  1
  Se  Se220  1  0.75211795  0.41945918  0.80245088  1
  Se  Se221  1  0.75492538  0.74950340  0.31902831  1
  Se  Se222  1  0.74589724  0.74911884  0.79639367  1
  Se  Se223  1  0.25027090  0.08290470  0.20202829  1
  Se  Se224  1  0.25538819  0.07291025  0.69167816  1
  Se  Se225  1  0.25230544  0.42105139  0.19947138  1
  Se  Se226  1  0.24419529  0.41679441  0.68434110  1
  Se  Se227  1  0.24620205  0.75471319  0.19830868  1
  Se  Se228  1  0.25531826  0.74527369  0.69091677  1
  Se  Se229  1  0.57693450  0.09827626  0.21032548  1
  Se  Se230  1  0.57721077  0.08614001  0.68536799  1
  Se  Se231  1  0.58298655  0.42536679  0.20228432  1
  Se  Se232  1  0.58807955  0.41556604  0.69920790  1
  Se  Se233  1  0.57580809  0.75274277  0.18911857  1
  Se  Se234  1  0.58699509  0.75337293  0.68982184  1
  Se  Se235  1  0.93286639  0.07581748  0.20763626  1
  Se  Se236  1  0.90696961  0.08739917  0.69082430  1
  Se  Se237  1  0.91490157  0.42538111  0.19218885  1
  Se  Se238  1  0.90812532  0.42145802  0.68108162  1
  Se  Se239  1  0.91548254  0.74417896  0.20437632  1
  Se  Se240  1  0.92040393  0.74319684  0.69285069  1
  Se  Se241  1  0.09250147  0.24956644  0.19007747  1
  Se  Se242  1  0.08681864  0.23784519  0.68772632  1
  Se  Se243  1  0.08126826  0.58785519  0.19955325  1
  Se  Se244  1  0.08659661  0.58374692  0.69361870  1
  Se  Se245  1  0.08245540  0.91779045  0.20565219  1
  Se  Se246  1  0.09058748  0.90570703  0.68265660  1
  Se  Se247  1  0.41177749  0.25843638  0.20543856  1
  Se  Se248  1  0.42316733  0.24169106  0.68449867  1
  Se  Se249  1  0.41523363  0.58929048  0.19699683  1
  Se  Se250  1  0.41324385  0.58152452  0.70235540  1
  Se  Se251  1  0.42140186  0.91388626  0.20641170  1
  Se  Se252  1  0.41468530  0.91557048  0.69319315  1
  Se  Se253  1  0.75455923  0.25790266  0.20662308  1
  Se  Se254  1  0.74799974  0.25509208  0.69226920  1
  Se  Se255  1  0.75444099  0.57496175  0.19245575  1
  Se  Se256  1  0.74796437  0.58654754  0.69335377  1
  Se  Se257  1  0.74840202  0.90821937  0.20670300  1
  Se  Se258  1  0.74849873  0.90761554  0.68038983  1
