# generated using pymatgen
data_In86Cu29Se144
_symmetry_space_group_name_H-M   'P 1'
_cell_length_a   17.61220579
_cell_length_b   17.61008920
_cell_length_c   23.45844636
_cell_angle_alpha   89.93988895
_cell_angle_beta   90.00049893
_cell_angle_gamma   90.00249789
_symmetry_Int_Tables_number   1
_chemical_formula_structural   In86Cu29Se144
_chemical_formula_sum   'In86 Cu29 Se144'
_cell_volume   7275.69212371
_cell_formula_units_Z   1
loop_
 _symmetry_equiv_pos_site_id
 _symmetry_equiv_pos_as_xyz
  1  'x, y, z'
loop_
 _atom_site_type_symbol
 _atom_site_label
 _atom_site_symmetry_multiplicity
 _atom_site_fract_x
 _atom_site_fract_y
 _atom_site_fract_z
 _atom_site_occupancy
  In  In0  1  0.03159236  0.20699486  0.08282706  1
  In  In1  1  -0.00755616  0.17691453  0.62817521  1
  In  In2  1  -0.00279539  0.47962795  0.11767010  1
  In  In3  1  0.00709632  0.48905639  0.63672348  1
  In  In4  1  -0.00008125  0.84672151  0.11798095  1
  In  In5  1  0.00414047  0.84925963  0.64333667  1
  In  In6  1  0.36706531  0.18287491  0.10184800  1
  In  In7  1  0.33897813  0.16441893  0.63185554  1
  In  In8  1  0.31847157  0.48096369  0.10917804  1
  In  In9  1  0.32470802  0.50245657  0.63403027  1
  In  In10  1  0.32885663  0.83198670  0.12326050  1
  In  In11  1  0.31332898  0.85087399  0.64790486  1
  In  In12  1  0.68736482  0.18965583  0.10038905  1
  In  In13  1  0.66638039  0.17052365  0.62566971  1
  In  In14  1  0.65846919  0.50555323  0.12671020  1
  In  In15  1  0.66529619  0.50382848  0.63367801  1
  In  In16  1  0.66648140  0.81849355  0.12087960  1
  In  In17  1  0.66582543  0.83039512  0.63190000  1
  In  In18  1  0.17618929  0.00940254  0.37624787  1
  In  In19  1  0.19311707  0.02782011  0.84357103  1
  In  In20  1  0.15833715  0.32368197  0.36592282  1
  In  In21  1  0.16664644  0.32122302  0.87228385  1
  In  In22  1  0.15659948  0.66579949  0.37810850  1
  In  In23  1  0.15841331  0.66185951  0.86766171  1
  In  In24  1  0.51074868  0.00834469  0.37919848  1
  In  In25  1  0.50269433  0.00333785  0.86863163  1
  In  In26  1  0.49280010  0.32954550  0.37028795  1
  In  In27  1  0.50361698  0.33365072  0.88102273  1
  In  In28  1  0.50060189  0.65482039  0.37724499  1
  In  In29  1  0.49045279  0.65366358  0.86977407  1
  In  In30  1  0.84864080  0.00363063  0.37957283  1
  In  In31  1  0.83067812  -0.00243749  0.87064574  1
  In  In32  1  0.82996408  0.32988917  0.36825113  1
  In  In33  1  0.82459523  0.32335460  0.87977432  1
  In  In34  1  0.82937890  0.67274355  0.37335376  1
  In  In35  1  0.84274671  0.67672263  0.87203644  1
  In  In36  1  -0.00489292  0.17381195  0.38278607  1
  In  In37  1  0.00500837  0.16393379  0.86708718  1
  In  In38  1  0.01365820  0.49092190  0.37309351  1
  In  In39  1  0.00212849  0.50154566  0.87609806  1
  In  In40  1  -0.00399348  0.82759807  0.37587680  1
  In  In41  1  0.00061425  0.83117315  0.86420875  1
  In  In42  1  0.32708643  0.17347378  0.38082831  1
  In  In43  1  0.32721615  0.17267740  0.86832073  1
  In  In44  1  0.34393181  0.49692352  0.37552458  1
  In  In45  1  0.33444970  0.49451372  0.87999046  1
  In  In46  1  0.33290793  0.83911688  0.37916295  1
  In  In47  1  0.32947718  0.83985871  0.86088556  1
  In  In48  1  0.66488225  0.17467024  0.38147732  1
  In  In49  1  0.66762996  0.16900156  0.87917150  1
  In  In50  1  0.66661912  0.49915278  0.36396204  1
  In  In51  1  0.64963304  0.48136382  0.87266108  1
  In  In52  1  0.67629015  0.82825651  0.37141945  1
  In  In53  1  0.67698521  0.84151822  0.86711248  1
  In  In54  1  0.15993204  0.00586557  0.12080541  1
  In  In55  1  0.12693946  0.04859642  0.67883914  1
  In  In56  1  0.17483629  0.33308342  0.12478543  1
  In  In57  1  0.19437829  0.29157732  0.66700964  1
  In  In58  1  0.17861677  0.65996432  0.12144718  1
  In  In59  1  0.15655968  0.68181315  0.65077972  1
  In  In60  1  0.50283026  0.02283708  0.11899232  1
  In  In61  1  0.48937171  0.01112485  0.63455132  1
  In  In62  1  0.50059635  0.33046549  0.12425479  1
  In  In63  1  0.50968990  0.32551432  0.63204332  1
  In  In64  1  0.51446989  0.66393014  0.12067457  1
  In  In65  1  0.49754195  0.66942267  0.63114896  1
  In  In66  1  0.84332134  0.00750523  0.11042956  1
  In  In67  1  0.81888354  0.01002852  0.63301907  1
  In  In68  1  0.84137381  0.32619340  0.12764845  1
  In  In69  1  0.84196668  0.32640793  0.63434475  1
  In  In70  1  0.81847431  0.65879492  0.11929570  1
  In  In71  1  0.83166759  0.66966349  0.63203891  1
  In  In72  1  0.33788102  0.65566386  0.24369850  1
  In  In73  1  0.67048877  -0.00500414  0.24999401  1
  In  In74  1  0.83026359  0.49783856  0.49357431  1
  In  In75  1  0.49733306  0.83774290  0.49930414  1
  In  In76  1  0.50049978  0.49440612  0.51007108  1
  In  In77  1  0.33270381  0.00301139  0.24490978  1
  In  In78  1  0.83207036  0.49617784  -0.00540226  1
  In  In79  1  -0.00068778  0.00491980  0.24158640  1
  In  In80  1  0.16917094  0.49059192  0.50854551  1
  In  In81  1  0.82827050  0.84476200  0.51552237  1
  In  In82  1  0.50145170  0.83815919  -0.01319900  1
  In  In83  1  -0.00323077  0.66245281  0.25302388  1
  In  In84  1  0.16510633  0.84626146  0.51199229  1
  In  In85  1  0.15944442  0.84099030  -0.01356228  1
  Cu  Cu86  1  0.50178743  0.17265919  0.24683422  1
  Cu  Cu87  1  0.32705523  0.32396972  0.50508691  1
  Cu  Cu88  1  0.49727492  0.49250725  0.24670499  1
  Cu  Cu89  1  0.82839933  0.82480539  0.24407531  1
  Cu  Cu90  1  0.32827074  0.67527393  0.51236026  1
  Cu  Cu91  1  0.33588116  0.66452871  -0.00450562  1
  Cu  Cu92  1  -0.00569675  0.66750421  0.51108132  1
  Cu  Cu93  1  0.82814043  0.49366447  0.24297831  1
  Cu  Cu94  1  0.16882815  0.49911124  0.75974280  1
  Cu  Cu95  1  -0.00221212  0.00121966  -0.01422030  1
  Cu  Cu96  1  0.82683924  0.16789132  0.75582215  1
  Cu  Cu97  1  0.83232680  0.83151719  0.75028371  1
  Cu  Cu98  1  0.50397047  0.17156227  0.75456369  1
  Cu  Cu99  1  0.50234828  0.49330312  0.75311471  1
  Cu  Cu100  1  0.66340349  0.00946538  0.50523894  1
  Cu  Cu101  1  0.83295913  0.16696933  0.24546543  1
  Cu  Cu102  1  0.50679066  0.83112060  0.75095750  1
  Cu  Cu103  1  0.01205088  0.01410953  0.50819937  1
  Cu  Cu104  1  0.66997786  0.33165881  0.50077256  1
  Cu  Cu105  1  0.83147295  0.50305331  0.75708965  1
  Cu  Cu106  1  0.67329898  0.66703582  -0.00356274  1
  Cu  Cu107  1  0.66565459  -0.00372888  -0.00873050  1
  Cu  Cu108  1  0.16587198  0.16893834  0.24092168  1
  Cu  Cu109  1  0.49712350  0.82522115  0.24469718  1
  Cu  Cu110  1  0.16804620  0.49481989  0.24583123  1
  Cu  Cu111  1  0.00698749  0.32537401  0.50616512  1
  Cu  Cu112  1  0.33281553  0.32819324  -0.00539138  1
  Cu  Cu113  1  0.32812809  0.01714802  0.51022107  1
  Cu  Cu114  1  0.00293553  0.66892396  -0.00883158  1
  Se  Se115  1  0.08147695  0.07714175  0.04464076  1
  Se  Se116  1  0.08828669  0.08579174  0.57403627  1
  Se  Se117  1  0.09622961  0.41818543  0.05434118  1
  Se  Se118  1  0.08604974  0.39974433  0.56888257  1
  Se  Se119  1  0.08288733  0.74667105  0.05723802  1
  Se  Se120  1  0.07503342  0.74966444  0.56672323  1
  Se  Se121  1  0.39845679  0.05845760  0.04881084  1
  Se  Se122  1  0.42353434  0.09228745  0.55607471  1
  Se  Se123  1  0.41928799  0.40964216  0.04990567  1
  Se  Se124  1  0.40416358  0.40741085  0.56452891  1
  Se  Se125  1  0.41505430  0.74642475  0.05530442  1
  Se  Se126  1  0.40750129  0.75938322  0.56672995  1
  Se  Se127  1  0.75005633  0.07989820  0.04431472  1
  Se  Se128  1  0.75209463  0.08988953  0.55477015  1
  Se  Se129  1  0.74785332  0.41566381  0.06428534  1
  Se  Se130  1  0.74598065  0.41417924  0.56149572  1
  Se  Se131  1  0.75511042  0.75284911  0.04765568  1
  Se  Se132  1  0.73942645  0.74029136  0.55690913  1
  Se  Se133  1  0.25173316  0.24676976  0.05270888  1
  Se  Se134  1  0.24724880  0.24829713  0.56756247  1
  Se  Se135  1  0.24875249  0.58151707  0.04572973  1
  Se  Se136  1  0.24284248  0.59588037  0.56678112  1
  Se  Se137  1  0.25163896  0.92016008  0.05508881  1
  Se  Se138  1  0.25007846  0.93694747  0.56957822  1
  Se  Se139  1  0.55422145  0.21896723  0.06198394  1
  Se  Se140  1  0.58317389  0.25167909  0.55385599  1
  Se  Se141  1  0.58776998  0.58305273  0.04715264  1
  Se  Se142  1  0.58995132  0.59286725  0.55907047  1
  Se  Se143  1  0.58784446  0.92100952  0.05832664  1
  Se  Se144  1  0.58626502  0.92434349  0.56234945  1
  Se  Se145  1  0.89750091  0.23879587  0.04922735  1
  Se  Se146  1  0.90994955  0.25165622  0.55327580  1
  Se  Se147  1  0.92500131  0.58956329  0.05641376  1
  Se  Se148  1  0.91768054  0.57930543  0.56436529  1
  Se  Se149  1  0.91900468  0.91615107  0.04291570  1
  Se  Se150  1  0.92883645  0.93153253  0.56557282  1
  Se  Se151  1  0.09111970  0.24787303  0.44686758  1
  Se  Se152  1  0.08573452  0.23737709  0.94173443  1
  Se  Se153  1  0.07242998  0.58696144  0.45143300  1
  Se  Se154  1  0.08785269  0.58276016  0.94547024  1
  Se  Se155  1  0.07391173  0.92605214  0.44172721  1
  Se  Se156  1  0.08309246  0.93376776  0.92218342  1
  Se  Se157  1  0.41621638  0.25287282  0.44643306  1
  Se  Se158  1  0.41504823  0.24401049  0.94149403  1
  Se  Se159  1  0.40486091  0.59154101  0.45248724  1
  Se  Se160  1  0.42116314  0.57739817  0.94872669  1
  Se  Se161  1  0.40375392  0.93698731  0.44592206  1
  Se  Se162  1  0.40298507  0.92562221  0.93596006  1
  Se  Se163  1  0.75655984  0.25311340  0.44584481  1
  Se  Se164  1  0.73611030  0.25688799  0.95255619  1
  Se  Se165  1  0.73785488  0.59141183  0.43955608  1
  Se  Se166  1  0.74735532  0.58711924  0.93255469  1
  Se  Se167  1  0.74157019  0.92773982  0.44289831  1
  Se  Se168  1  0.75368917  0.91237911  0.94445331  1
  Se  Se169  1  0.24316293  0.09251221  0.45074236  1
  Se  Se170  1  0.24216983  0.08740694  0.93485894  1
  Se  Se171  1  0.25600945  0.40824559  0.44057765  1
  Se  Se172  1  0.24612936  0.40872553  0.94202440  1
  Se  Se173  1  0.24894860  0.74692993  0.44636758  1
  Se  Se174  1  0.25695639  0.74671573  0.93676771  1
  Se  Se175  1  0.58168709  0.09238025  0.45066377  1
  Se  Se176  1  0.57965194  0.08051387  0.94348448  1
  Se  Se177  1  0.58923179  0.41346472  0.44121083  1
  Se  Se178  1  0.58173670  0.41441285  0.95445678  1
  Se  Se179  1  0.58750314  0.74599107  0.44097891  1
  Se  Se180  1  0.59104926  0.74278395  0.93303326  1
  Se  Se181  1  0.91991622  0.08561239  0.45272847  1
  Se  Se182  1  0.91422935  0.08569165  0.93453922  1
  Se  Se183  1  0.93029453  0.40682354  0.44294886  1
  Se  Se184  1  0.92564588  0.40427907  0.94307579  1
  Se  Se185  1  0.91623251  0.74719968  0.45115273  1
  Se  Se186  1  0.92260531  0.75771823  0.94322199  1
  Se  Se187  1  0.24984888  0.24413867  0.30203064  1
  Se  Se188  1  0.24255640  0.24724798  0.79377383  1
  Se  Se189  1  0.24052822  0.57602598  0.31120207  1
  Se  Se190  1  0.25666515  0.58202316  0.80934060  1
  Se  Se191  1  0.24345993  0.91048872  0.30718448  1
  Se  Se192  1  0.22746311  0.89907409  0.79560441  1
  Se  Se193  1  0.58465278  0.24966428  0.30705769  1
  Se  Se194  1  0.58682197  0.25385596  0.80895873  1
  Se  Se195  1  0.57533509  0.58177930  0.30084019  1
  Se  Se196  1  0.58485275  0.57959153  0.80448353  1
  Se  Se197  1  0.57261634  0.90529634  0.30862285  1
  Se  Se198  1  0.58707278  0.91968402  0.80192936  1
  Se  Se199  1  0.91754726  0.24472097  0.30481293  1
  Se  Se200  1  0.91113107  0.24956183  0.80814426  1
  Se  Se201  1  0.90581082  0.56793669  0.31192458  1
  Se  Se202  1  0.92009866  0.58490266  0.80696846  1
  Se  Se203  1  0.90805319  0.90624803  0.30300016  1
  Se  Se204  1  0.91589501  0.91867958  0.79930348  1
  Se  Se205  1  0.08859355  0.09078650  0.30614295  1
  Se  Se206  1  0.07836603  0.08420917  0.78837845  1
  Se  Se207  1  0.08152011  0.41142996  0.29670037  1
  Se  Se208  1  0.08371636  0.41523434  0.80976030  1
  Se  Se209  1  0.09140032  0.75991484  0.30536695  1
  Se  Se210  1  0.07854322  0.74220475  0.79820751  1
  Se  Se211  1  0.42472781  0.08833437  0.30805508  1
  Se  Se212  1  0.41679546  0.08712803  0.80338553  1
  Se  Se213  1  0.41125549  0.41414513  0.30123570  1
  Se  Se214  1  0.41915719  0.41393803  0.81007538  1
  Se  Se215  1  0.41842127  0.75271191  0.30997910  1
  Se  Se216  1  0.42073577  0.75141087  0.80469497  1
  Se  Se217  1  0.76041937  0.08537017  0.30997022  1
  Se  Se218  1  0.74253250  0.08264049  0.80640807  1
  Se  Se219  1  0.74635882  0.41072259  0.29947630  1
  Se  Se220  1  0.75124946  0.41501565  0.80938096  1
  Se  Se221  1  0.74694231  0.74348649  0.29825215  1
  Se  Se222  1  0.74978306  0.74615929  0.80186583  1
  Se  Se223  1  0.24955418  0.09340593  0.18227599  1
  Se  Se224  1  0.26746874  0.07759533  0.70428979  1
  Se  Se225  1  0.25663557  0.41461528  0.19619029  1
  Se  Se226  1  0.25360780  0.41713437  0.70653055  1
  Se  Se227  1  0.24361541  0.75402965  0.19676934  1
  Se  Se228  1  0.28070746  0.72375952  0.69639818  1
  Se  Se229  1  0.58844972  0.09271883  0.19304703  1
  Se  Se230  1  0.58438872  0.08818026  0.69662054  1
  Se  Se231  1  0.58391499  0.41316431  0.19362917  1
  Se  Se232  1  0.58844049  0.41359282  0.69888402  1
  Se  Se233  1  0.58631115  0.74506888  0.19608548  1
  Se  Se234  1  0.58661934  0.74425618  0.69975061  1
  Se  Se235  1  0.91473842  0.09606642  0.18252863  1
  Se  Se236  1  0.90958508  0.08887380  0.69631294  1
  Se  Se237  1  0.91935834  0.41311497  0.19688023  1
  Se  Se238  1  0.91297225  0.41805048  0.70279534  1
  Se  Se239  1  0.91458628  0.75142713  0.18403324  1
  Se  Se240  1  0.91898266  0.75208139  0.69671033  1
  Se  Se241  1  0.07957895  0.24627000  0.18395050  1
  Se  Se242  1  0.05895346  0.26696600  0.70123727  1
  Se  Se243  1  0.08653169  0.57722354  0.18912409  1
  Se  Se244  1  0.08189579  0.57848619  0.70497188  1
  Se  Se245  1  0.09382915  0.90733659  0.19352579  1
  Se  Se246  1  0.12075290  0.89944750  0.69619205  1
  Se  Se247  1  0.41243979  0.24965488  0.19401523  1
  Se  Se248  1  0.41883571  0.25367428  0.70011565  1
  Se  Se249  1  0.42130880  0.56916857  0.17917850  1
  Se  Se250  1  0.42246731  0.57631720  0.69608893  1
  Se  Se251  1  0.42804363  0.91273471  0.18573049  1
  Se  Se252  1  0.42040734  0.91880880  0.70357570  1
  Se  Se253  1  0.74635055  0.24733028  0.19204827  1
  Se  Se254  1  0.74677911  0.25143228  0.69778190  1
  Se  Se255  1  0.74567633  0.58465708  0.19688440  1
  Se  Se256  1  0.75104828  0.58559646  0.70011622  1
  Se  Se257  1  0.75901023  0.91277924  0.18280446  1
  Se  Se258  1  0.74702573  0.91545196  0.69825958  1
