# generated using pymatgen
data_In86Cu29Se144
_symmetry_space_group_name_H-M   'P 1'
_cell_length_a   17.58656648
_cell_length_b   17.59590201
_cell_length_c   23.45474892
_cell_angle_alpha   90.01703548
_cell_angle_beta   89.98505012
_cell_angle_gamma   90.00712070
_symmetry_Int_Tables_number   1
_chemical_formula_structural   In86Cu29Se144
_chemical_formula_sum   'In86 Cu29 Se144'
_cell_volume   7258.10662217
_cell_formula_units_Z   1
loop_
 _symmetry_equiv_pos_site_id
 _symmetry_equiv_pos_as_xyz
  1  'x, y, z'
loop_
 _atom_site_type_symbol
 _atom_site_label
 _atom_site_symmetry_multiplicity
 _atom_site_fract_x
 _atom_site_fract_y
 _atom_site_fract_z
 _atom_site_occupancy
  In  In0  1  0.00707038  0.17350619  0.12192617  1
  In  In1  1  -0.00960652  0.16747162  0.63000588  1
  In  In2  1  -0.01432837  0.50407619  0.13006210  1
  In  In3  1  0.00055459  0.49417594  0.62306746  1
  In  In4  1  -0.01051898  0.82468895  0.11631006  1
  In  In5  1  -0.01314555  0.84446962  0.63486471  1
  In  In6  1  0.32989597  0.15724314  0.11676776  1
  In  In7  1  0.33191029  0.17916384  0.62830020  1
  In  In8  1  0.33827879  0.49927634  0.12368969  1
  In  In9  1  0.33471262  0.50345729  0.62151317  1
  In  In10  1  0.32793790  0.84529908  0.11929931  1
  In  In11  1  0.32170347  0.83071422  0.62905661  1
  In  In12  1  0.66837442  0.16758455  0.12347405  1
  In  In13  1  0.69678059  0.16140634  0.63605757  1
  In  In14  1  0.67856056  0.47731750  0.12470023  1
  In  In15  1  0.67076344  0.49701108  0.62548361  1
  In  In16  1  0.68029588  0.83089902  0.12681364  1
  In  In17  1  0.66745227  0.82573514  0.62418544  1
  In  In18  1  0.17219002  0.00855260  0.37551258  1
  In  In19  1  0.15000346  0.01371097  0.88133162  1
  In  In20  1  0.13966425  0.35575146  0.39789007  1
  In  In21  1  0.15467665  0.32781469  0.87322588  1
  In  In22  1  0.14584717  0.66960291  0.37556476  1
  In  In23  1  0.16538287  0.66529591  0.86678306  1
  In  In24  1  0.51834754  0.00841883  0.36211669  1
  In  In25  1  0.51355080  0.01151583  0.87514486  1
  In  In26  1  0.51967043  0.33317507  0.37350930  1
  In  In27  1  0.52112923  0.31235364  0.87921093  1
  In  In28  1  0.49487165  0.66708625  0.37881373  1
  In  In29  1  0.49804338  0.66311299  0.86464060  1
  In  In30  1  0.81944911  0.01804969  0.39005184  1
  In  In31  1  0.84121047  -0.00430497  0.88143501  1
  In  In32  1  0.83278566  0.33813117  0.37534356  1
  In  In33  1  0.83318942  0.33132440  0.87766334  1
  In  In34  1  0.83830368  0.66035949  0.38570505  1
  In  In35  1  0.83577528  0.66632658  0.86977197  1
  In  In36  1  -0.02485718  0.19973428  0.39871065  1
  In  In37  1  -0.00336678  0.17172766  0.87682120  1
  In  In38  1  -0.01057238  0.49718065  0.38188869  1
  In  In39  1  -0.02134708  0.47660465  0.85646428  1
  In  In40  1  -0.00593709  0.82027240  0.37219443  1
  In  In41  1  -0.00173280  0.83323025  0.87378945  1
  In  In42  1  0.32231862  0.16676113  0.37609299  1
  In  In43  1  0.33647507  0.16446908  0.87949240  1
  In  In44  1  0.33377704  0.50247289  0.38658891  1
  In  In45  1  0.32401384  0.49999572  0.86737112  1
  In  In46  1  0.33759621  0.84011163  0.37566869  1
  In  In47  1  0.32862109  0.81824725  0.87210314  1
  In  In48  1  0.67087475  0.18212090  0.36252790  1
  In  In49  1  0.67228467  0.17834835  0.88047250  1
  In  In50  1  0.68234029  0.48799425  0.38633534  1
  In  In51  1  0.67430557  0.50321380  0.86889106  1
  In  In52  1  0.67273751  0.85468667  0.37180444  1
  In  In53  1  0.68039889  0.83603061  0.87464736  1
  In  In54  1  0.16915551  0.00004527  0.11530524  1
  In  In55  1  0.14910933  -0.00467220  0.62827613  1
  In  In56  1  0.16188398  0.32032894  0.12386632  1
  In  In57  1  0.14231444  0.31472269  0.60669744  1
  In  In58  1  0.14328501  0.65893327  0.12139105  1
  In  In59  1  0.16944761  0.66022440  0.63088436  1
  In  In60  1  0.50054163  0.01590478  0.12960891  1
  In  In61  1  0.52188278  0.00081160  0.62111882  1
  In  In62  1  0.52827582  0.31158862  0.14036523  1
  In  In63  1  0.50333001  0.34198721  0.62488339  1
  In  In64  1  0.50609177  0.66311837  0.12085783  1
  In  In65  1  0.51140333  0.65144118  0.63373520  1
  In  In66  1  0.82459083  -0.00476251  0.12227528  1
  In  In67  1  0.84636394  0.01816856  0.61049646  1
  In  In68  1  0.83153651  0.33267693  0.12102100  1
  In  In69  1  0.83462370  0.32853668  0.62759295  1
  In  In70  1  0.83915932  0.67552915  0.11721484  1
  In  In71  1  0.83430543  0.66328539  0.62676268  1
  In  In72  1  0.50203283  0.49030658  -0.00508010  1
  In  In73  1  0.50255905  0.83927214  -0.00249125  1
  In  In74  1  0.33623054  0.00305427  0.25177695  1
  In  In75  1  -0.00352291  0.00311191  0.25139161  1
  In  In76  1  0.66876501  0.66599896  0.24819387  1
  In  In77  1  0.50527378  0.82873074  0.49912856  1
  In  In78  1  0.33550311  0.34413246  0.74362551  1
  In  In79  1  0.67647978  0.00166183  0.75420397  1
  In  In80  1  0.33310535  -0.00333993  0.75892202  1
  In  In81  1  0.32554546  0.67081322  0.26091598  1
  In  In82  1  0.16068186  0.83226601  0.49684559  1
  In  In83  1  0.32773108  0.33474372  0.24569404  1
  In  In84  1  0.50328988  0.17312926  0.49477349  1
  In  In85  1  0.15803761  0.49850338  -0.00965885  1
  Cu  Cu86  1  0.49547372  0.82897499  0.74524163  1
  Cu  Cu87  1  0.67138375  0.33181323  0.50286646  1
  Cu  Cu88  1  0.34092020  0.32775068  0.00310727  1
  Cu  Cu89  1  0.67099536  0.00744714  -0.00070115  1
  Cu  Cu90  1  0.16163924  0.16635064  0.75025599  1
  Cu  Cu91  1  -0.00257274  0.00199292  0.00087520  1
  Cu  Cu92  1  0.83311133  0.50033673  0.74493599  1
  Cu  Cu93  1  0.83140831  0.82966013  0.75069738  1
  Cu  Cu94  1  0.82977770  0.17081809  0.25319062  1
  Cu  Cu95  1  0.15699662  0.17450778  0.25431197  1
  Cu  Cu96  1  0.83774378  0.83246683  0.24757730  1
  Cu  Cu97  1  0.32345684  0.66980152  -0.00554563  1
  Cu  Cu98  1  0.14919545  0.49619442  0.25398776  1
  Cu  Cu99  1  0.67485159  0.66321103  -0.00433117  1
  Cu  Cu100  1  0.33813369  0.66486331  0.50352693  1
  Cu  Cu101  1  0.33011579  0.33822530  0.50555839  1
  Cu  Cu102  1  -0.00081762  0.00435075  0.50482981  1
  Cu  Cu103  1  0.67081834  0.66051006  0.50543152  1
  Cu  Cu104  1  0.32817807  -0.00119478  -0.00428074  1
  Cu  Cu105  1  0.50278291  0.50159785  0.25474331  1
  Cu  Cu106  1  0.33837110  0.00560137  0.49970219  1
  Cu  Cu107  1  -0.00257651  0.66832288  -0.00722314  1
  Cu  Cu108  1  0.50253060  0.49758754  0.74982729  1
  Cu  Cu109  1  0.16580809  0.50052875  0.74287197  1
  Cu  Cu110  1  0.15848792  0.82858527  0.74993872  1
  Cu  Cu111  1  0.83529028  0.49544816  0.25431566  1
  Cu  Cu112  1  0.15855214  0.82689088  0.24258839  1
  Cu  Cu113  1  -0.00078412  0.66373158  0.50604913  1
  Cu  Cu114  1  -0.00364196  0.33099446  -0.00443970  1
  Se  Se115  1  0.08345867  0.08528159  0.05279661  1
  Se  Se116  1  0.08117895  0.08593569  0.55988945  1
  Se  Se117  1  0.07551204  0.41263613  0.05853032  1
  Se  Se118  1  0.08880910  0.42596127  0.54934137  1
  Se  Se119  1  0.08146480  0.74902822  0.04825754  1
  Se  Se120  1  0.07696498  0.74947475  0.56492051  1
  Se  Se121  1  0.41614653  0.07597967  0.05042034  1
  Se  Se122  1  0.41745893  0.08138033  0.56231200  1
  Se  Se123  1  0.42091134  0.40357957  0.06536547  1
  Se  Se124  1  0.41893920  0.41853733  0.55484685  1
  Se  Se125  1  0.40957757  0.74288784  0.05520174  1
  Se  Se126  1  0.41469924  0.74587051  0.56452028  1
  Se  Se127  1  0.75548948  0.08795978  0.05364043  1
  Se  Se128  1  0.73955805  0.08058967  0.55146233  1
  Se  Se129  1  0.76670566  0.42529197  0.04848807  1
  Se  Se130  1  0.75369355  0.41477547  0.55696329  1
  Se  Se131  1  0.75009851  0.75296517  0.04931946  1
  Se  Se132  1  0.75255806  0.74707807  0.55591120  1
  Se  Se133  1  0.25014243  0.24893970  0.05358726  1
  Se  Se134  1  0.25158998  0.24486902  0.55152372  1
  Se  Se135  1  0.25110902  0.58475882  0.05618490  1
  Se  Se136  1  0.24866379  0.58719854  0.55472396  1
  Se  Se137  1  0.24432511  0.91211729  0.04471962  1
  Se  Se138  1  0.25433564  0.92454694  0.55589413  1
  Se  Se139  1  0.58353112  0.24779976  0.05315565  1
  Se  Se140  1  0.59243610  0.25007926  0.56333720  1
  Se  Se141  1  0.59519129  0.58194740  0.05584004  1
  Se  Se142  1  0.58345934  0.57823922  0.55506817  1
  Se  Se143  1  0.59156287  0.92424350  0.06033191  1
  Se  Se144  1  0.60162490  0.92277771  0.54804974  1
  Se  Se145  1  0.91769052  0.24812153  0.05368479  1
  Se  Se146  1  0.91926375  0.25198713  0.55659708  1
  Se  Se147  1  0.91924999  0.58578397  0.05196600  1
  Se  Se148  1  0.91437796  0.57958444  0.55663713  1
  Se  Se149  1  0.91308013  0.91804921  0.05354457  1
  Se  Se150  1  0.91752113  0.91288516  0.55215162  1
  Se  Se151  1  0.10515353  0.22814402  0.44370533  1
  Se  Se152  1  0.08643215  0.24727731  0.94927654  1
  Se  Se153  1  0.07919938  0.58306911  0.44775590  1
  Se  Se154  1  0.06718522  0.58238285  0.92951840  1
  Se  Se155  1  0.07257180  0.92554381  0.43762634  1
  Se  Se156  1  0.07841183  0.91712715  0.94560409  1
  Se  Se157  1  0.40823707  0.26422733  0.43748243  1
  Se  Se158  1  0.42190648  0.24725985  0.94558926  1
  Se  Se159  1  0.42375317  0.58294828  0.45136997  1
  Se  Se160  1  0.40724647  0.58690191  0.94043692  1
  Se  Se161  1  0.42106369  0.93092601  0.43961554  1
  Se  Se162  1  0.41034818  0.92314145  0.93284880  1
  Se  Se163  1  0.74734030  0.25063666  0.44156937  1
  Se  Se164  1  0.76555047  0.24221745  0.95046055  1
  Se  Se165  1  0.75714446  0.57676672  0.45413471  1
  Se  Se166  1  0.75589200  0.58157876  0.94071606  1
  Se  Se167  1  0.76834394  0.90147871  0.44531107  1
  Se  Se168  1  0.75049158  0.91719036  0.94910450  1
  Se  Se169  1  0.24918901  0.08519409  0.45032990  1
  Se  Se170  1  0.24705786  0.08703846  0.94531961  1
  Se  Se171  1  0.24743639  0.42438395  0.45401794  1
  Se  Se172  1  0.25943358  0.40511213  0.94149459  1
  Se  Se173  1  0.25881625  0.74238562  0.43962116  1
  Se  Se174  1  0.23812812  0.74920975  0.94255766  1
  Se  Se175  1  0.59548488  0.08415929  0.43786969  1
  Se  Se176  1  0.58694415  0.09084420  0.94791498  1
  Se  Se177  1  0.58443316  0.41532074  0.45085556  1
  Se  Se178  1  0.60232982  0.40719252  0.94296667  1
  Se  Se179  1  0.59924211  0.74229968  0.43855480  1
  Se  Se180  1  0.58638988  0.74086299  0.93929182  1
  Se  Se181  1  0.91292686  0.09011878  0.45610238  1
  Se  Se182  1  0.91703167  0.08748168  0.94754744  1
  Se  Se183  1  0.92788276  0.39668244  0.44855379  1
  Se  Se184  1  0.91610489  0.42070595  0.94640933  1
  Se  Se185  1  0.91961867  0.74997718  0.45125129  1
  Se  Se186  1  0.91139009  0.75252159  0.94223284  1
  Se  Se187  1  0.23727281  0.25684886  0.31274655  1
  Se  Se188  1  0.24978137  0.24575400  0.80532971  1
  Se  Se189  1  0.23559408  0.57217792  0.31242286  1
  Se  Se190  1  0.24947846  0.58315752  0.79684076  1
  Se  Se191  1  0.23787914  0.90631219  0.30388426  1
  Se  Se192  1  0.23518586  0.91074811  0.81349597  1
  Se  Se193  1  0.57546056  0.24949419  0.29539620  1
  Se  Se194  1  0.59882758  0.24952424  0.79992571  1
  Se  Se195  1  0.58448407  0.57848375  0.31512270  1
  Se  Se196  1  0.58652429  0.58320744  0.80106134  1
  Se  Se197  1  0.57615574  0.90547544  0.29912816  1
  Se  Se198  1  0.57585205  0.90769995  0.80683821  1
  Se  Se199  1  0.91587630  0.25186769  0.30595178  1
  Se  Se200  1  0.93889942  0.27559043  0.81133538  1
  Se  Se201  1  0.91289538  0.58221871  0.30957366  1
  Se  Se202  1  0.91715597  0.58558252  0.79789556  1
  Se  Se203  1  0.90739776  0.91583308  0.31316187  1
  Se  Se204  1  0.91258140  0.91484809  0.80499612  1
  Se  Se205  1  0.08007890  0.09303581  0.31467351  1
  Se  Se206  1  0.07582718  0.08675813  0.80384983  1
  Se  Se207  1  0.07193931  0.41281939  0.31026294  1
  Se  Se208  1  0.08975162  0.41474214  0.79936583  1
  Se  Se209  1  0.07608635  0.74649814  0.29766710  1
  Se  Se210  1  0.07495677  0.74559863  0.80285789  1
  Se  Se211  1  0.42268572  0.10063581  0.30666470  1
  Se  Se212  1  0.42840058  0.09418767  0.80438407  1
  Se  Se213  1  0.41668053  0.42338762  0.31066554  1
  Se  Se214  1  0.42877865  0.41682100  0.81529533  1
  Se  Se215  1  0.42743115  0.76278809  0.30564403  1
  Se  Se216  1  0.41217924  0.74654653  0.79892122  1
  Se  Se217  1  0.75117711  0.08149339  0.30471156  1
  Se  Se218  1  0.76367210  0.09093422  0.81389449  1
  Se  Se219  1  0.74590548  0.41451549  0.30341802  1
  Se  Se220  1  0.75609731  0.41616964  0.80397240  1
  Se  Se221  1  0.75844253  0.75191582  0.31059684  1
  Se  Se222  1  0.74558431  0.74731440  0.80210234  1
  Se  Se223  1  0.23611009  0.09028122  0.19522732  1
  Se  Se224  1  0.24559133  0.08533894  0.69287591  1
  Se  Se225  1  0.23462408  0.42962549  0.18827026  1
  Se  Se226  1  0.23696837  0.41516407  0.67986660  1
  Se  Se227  1  0.24403439  0.74993288  0.18493734  1
  Se  Se228  1  0.24815966  0.74831818  0.70057073  1
  Se  Se229  1  0.59162481  0.08388295  0.19626694  1
  Se  Se230  1  0.58303686  0.09182199  0.69528566  1
  Se  Se231  1  0.58646921  0.42085747  0.20055598  1
  Se  Se232  1  0.58661714  0.41608262  0.69696904  1
  Se  Se233  1  0.57547576  0.75651595  0.18977154  1
  Se  Se234  1  0.58544113  0.74889495  0.69602902  1
  Se  Se235  1  0.90875165  0.09181731  0.18938957  1
  Se  Se236  1  0.91090047  0.07862836  0.69610718  1
  Se  Se237  1  0.91335133  0.41127699  0.19629687  1
  Se  Se238  1  0.91851202  0.41562805  0.69494201  1
  Se  Se239  1  0.91835195  0.74730217  0.19476396  1
  Se  Se240  1  0.91586258  0.74627383  0.69793366  1
  Se  Se241  1  0.07553408  0.25648777  0.19938073  1
  Se  Se242  1  0.08215622  0.25104553  0.69501039  1
  Se  Se243  1  0.07273410  0.58394937  0.19917513  1
  Se  Se244  1  0.07697225  0.58310958  0.69440097  1
  Se  Se245  1  0.08400524  0.91461114  0.18580633  1
  Se  Se246  1  0.07656724  0.91939390  0.70416929  1
  Se  Se247  1  0.41352210  0.23760409  0.19057934  1
  Se  Se248  1  0.42966144  0.24505456  0.69605546  1
  Se  Se249  1  0.42139583  0.58201854  0.19672512  1
  Se  Se250  1  0.41425137  0.57822561  0.69772000  1
  Se  Se251  1  0.42197524  0.91015490  0.19030356  1
  Se  Se252  1  0.42387205  0.91684879  0.68660835  1
  Se  Se253  1  0.75119555  0.25186261  0.19326970  1
  Se  Se254  1  0.74269740  0.26540011  0.70283203  1
  Se  Se255  1  0.75980863  0.57723195  0.18895298  1
  Se  Se256  1  0.74651325  0.58493779  0.69584143  1
  Se  Se257  1  0.75129192  0.91679350  0.19938075  1
  Se  Se258  1  0.75780497  0.91325895  0.68781148  1
