# generated using pymatgen
data_In86Cu29Se144
_symmetry_space_group_name_H-M   'P 1'
_cell_length_a   17.58940516
_cell_length_b   17.58178246
_cell_length_c   23.44837670
_cell_angle_alpha   89.98022135
_cell_angle_beta   90.03573466
_cell_angle_gamma   90.01373451
_symmetry_Int_Tables_number   1
_chemical_formula_structural   In86Cu29Se144
_chemical_formula_sum   'In86 Cu29 Se144'
_cell_volume   7251.48101961
_cell_formula_units_Z   1
loop_
 _symmetry_equiv_pos_site_id
 _symmetry_equiv_pos_as_xyz
  1  'x, y, z'
loop_
 _atom_site_type_symbol
 _atom_site_label
 _atom_site_symmetry_multiplicity
 _atom_site_fract_x
 _atom_site_fract_y
 _atom_site_fract_z
 _atom_site_occupancy
  In  In0  1  0.00008153  0.16338612  0.12315466  1
  In  In1  1  -0.00164511  0.16592678  0.63228198  1
  In  In2  1  0.00210318  0.49368607  0.12720667  1
  In  In3  1  -0.01460163  0.48789322  0.62050781  1
  In  In4  1  0.00964487  0.83838881  0.12246804  1
  In  In5  1  0.01447454  0.84759005  0.61677941  1
  In  In6  1  0.33787656  0.17311612  0.12246686  1
  In  In7  1  0.32855408  0.15670561  0.62467603  1
  In  In8  1  0.32566894  0.50324213  0.12497387  1
  In  In9  1  0.34192602  0.49012354  0.62268760  1
  In  In10  1  0.33473327  0.83543856  0.12221269  1
  In  In11  1  0.33665135  0.85194785  0.61691754  1
  In  In12  1  0.66118941  0.16191393  0.12384400  1
  In  In13  1  0.68714256  0.17334014  0.59606116  1
  In  In14  1  0.67231206  0.49842027  0.13689262  1
  In  In15  1  0.66014384  0.48293997  0.60646363  1
  In  In16  1  0.66078008  0.84737499  0.13616675  1
  In  In17  1  0.66661949  0.84503848  0.60600341  1
  In  In18  1  0.15636793  0.00768500  0.37483587  1
  In  In19  1  0.16627920  -0.00205849  0.87868825  1
  In  In20  1  0.16306948  0.32174779  0.36411536  1
  In  In21  1  0.15480825  0.34254345  0.88228718  1
  In  In22  1  0.17531284  0.67521873  0.37398805  1
  In  In23  1  0.16628391  0.67043886  0.88173098  1
  In  In24  1  0.52493921  -0.01465919  0.40415686  1
  In  In25  1  0.48986354  0.00739042  0.87778561  1
  In  In26  1  0.50399850  0.33526743  0.37814073  1
  In  In27  1  0.49781540  0.31603520  0.87033328  1
  In  In28  1  0.51277217  0.65875463  0.37840117  1
  In  In29  1  0.51178957  0.67887051  0.87087453  1
  In  In30  1  0.82971029  0.00270557  0.37670217  1
  In  In31  1  0.85770536  0.00935914  0.87273836  1
  In  In32  1  0.84054947  0.32247901  0.38824352  1
  In  In33  1  0.82366740  0.31862836  0.86965886  1
  In  In34  1  0.81835072  0.67974712  0.38149872  1
  In  In35  1  0.82924004  0.66011406  0.87499337  1
  In  In36  1  -0.02889159  0.14765768  0.34672274  1
  In  In37  1  -0.00622534  0.16210562  0.88197003  1
  In  In38  1  0.00155905  0.48351858  0.37195431  1
  In  In39  1  0.00760141  0.49920444  0.87746438  1
  In  In40  1  -0.01567045  0.84765960  0.38475122  1
  In  In41  1  0.02110564  0.85156383  0.86350990  1
  In  In42  1  0.33224744  0.16952041  0.36925564  1
  In  In43  1  0.34136126  0.15331282  0.87828745  1
  In  In44  1  0.36060744  0.49108394  0.37082506  1
  In  In45  1  0.33226216  0.48695302  0.87526085  1
  In  In46  1  0.33683913  0.84155011  0.38950257  1
  In  In47  1  0.31350631  0.85688776  0.88631157  1
  In  In48  1  0.68970101  0.15265094  0.40520725  1
  In  In49  1  0.65725182  0.16803946  0.87651434  1
  In  In50  1  0.65093850  0.50612736  0.38314141  1
  In  In51  1  0.68140705  0.48895080  0.87415029  1
  In  In52  1  0.67386978  0.83769154  0.37831706  1
  In  In53  1  0.66225753  0.82667896  0.87912274  1
  In  In54  1  0.15376359  -0.00517148  0.11415268  1
  In  In55  1  0.17481268  -0.01618492  0.64779943  1
  In  In56  1  0.16497597  0.33213186  0.11957944  1
  In  In57  1  0.15910992  0.31706191  0.63330199  1
  In  In58  1  0.17526676  0.67060380  0.11396669  1
  In  In59  1  0.15876247  0.67912747  0.62762917  1
  In  In60  1  0.50436821  0.00345356  0.12258852  1
  In  In61  1  0.49625471  0.00261887  0.60755828  1
  In  In62  1  0.50682941  0.31300534  0.13150689  1
  In  In63  1  0.51522801  0.33634689  0.60353560  1
  In  In64  1  0.49703096  0.67921322  0.13564191  1
  In  In65  1  0.50554386  0.67579909  0.61719482  1
  In  In66  1  0.82900797  0.01158920  0.13424339  1
  In  In67  1  0.84315833  0.01254628  0.61214353  1
  In  In68  1  0.84511553  0.33025980  0.13696458  1
  In  In69  1  0.83442536  0.32585396  0.61972512  1
  In  In70  1  0.82420377  0.66146824  0.13382482  1
  In  In71  1  0.82877074  0.65753543  0.61545567  1
  In  In72  1  -0.00103310  0.67018532  0.24733331  1
  In  In73  1  0.66573086  0.66421662  0.73879466  1
  In  In74  1  0.66830178  0.32925674  0.26028914  1
  In  In75  1  0.83300640  0.49496556  0.01193749  1
  In  In76  1  0.16703264  0.16465459  0.49967312  1
  In  In77  1  0.33181514  0.32071313  0.74791537  1
  In  In78  1  0.33645355  0.00981601  0.25311084  1
  In  In79  1  0.33893284  0.66212722  0.25462252  1
  In  In80  1  0.49416384  0.49811043  0.00253519  1
  In  In81  1  0.66710404  0.00403361  0.73713681  1
  In  In82  1  0.16747774  0.50527315  0.50103227  1
  In  In83  1  0.33865106  0.67392615  0.74617998  1
  In  In84  1  0.83379336  0.83759923  -0.00276258  1
  In  In85  1  -0.00353438  0.66670456  0.75524647  1
  Cu  Cu86  1  -0.00203115  0.32250801  0.49788433  1
  Cu  Cu87  1  0.82941034  0.84428598  0.25601887  1
  Cu  Cu88  1  0.65540431  0.67305681  0.00627196  1
  Cu  Cu89  1  0.82574055  0.50897978  0.26010982  1
  Cu  Cu90  1  0.33196844  -0.00062470  0.00327346  1
  Cu  Cu91  1  0.00412833  0.00721866  0.49779727  1
  Cu  Cu92  1  0.50758390  0.15821730  0.25820985  1
  Cu  Cu93  1  0.33217488  0.34343171  0.49270959  1
  Cu  Cu94  1  0.16984947  0.49107271  0.24809105  1
  Cu  Cu95  1  -0.00127236  0.66916648  0.49983230  1
  Cu  Cu96  1  0.32935719  0.32867563  -0.00229746  1
  Cu  Cu97  1  0.51422116  0.49017260  0.73947230  1
  Cu  Cu98  1  0.49415186  0.85061737  0.74543677  1
  Cu  Cu99  1  0.83841983  0.82954254  0.74174780  1
  Cu  Cu100  1  0.16098747  0.50028543  0.75394326  1
  Cu  Cu101  1  0.83341225  0.16476667  0.74528938  1
  Cu  Cu102  1  0.66074476  0.32379775  0.00027446  1
  Cu  Cu103  1  0.16384893  0.83950735  0.24961157  1
  Cu  Cu104  1  0.16253246  0.17270594  0.24046849  1
  Cu  Cu105  1  0.50799771  0.16640593  0.74270451  1
  Cu  Cu106  1  0.66382088  -0.00299714  0.00290634  1
  Cu  Cu107  1  0.33328677  0.67091557  0.49765050  1
  Cu  Cu108  1  0.33923607  0.66829242  0.00063539  1
  Cu  Cu109  1  0.00155222  0.67443786  -0.00401732  1
  Cu  Cu110  1  0.50914751  0.83735200  0.26095215  1
  Cu  Cu111  1  -0.00334987  0.33094522  0.00342131  1
  Cu  Cu112  1  0.82902277  0.47523534  0.74467694  1
  Cu  Cu113  1  0.15844282  0.16366285  0.75915226  1
  Cu  Cu114  1  0.66747251  0.66917535  0.49775994  1
  Se  Se115  1  0.09474678  0.09977346  0.05222545  1
  Se  Se116  1  0.08461651  0.07671998  0.56547667  1
  Se  Se117  1  0.08017751  0.42027365  0.05219248  1
  Se  Se118  1  0.08353454  0.40194925  0.55586720  1
  Se  Se119  1  0.08570757  0.75382315  0.05194490  1
  Se  Se120  1  0.08530132  0.75146290  0.54969736  1
  Se  Se121  1  0.41593028  0.08238402  0.05657027  1
  Se  Se122  1  0.40528751  0.08878763  0.54801639  1
  Se  Se123  1  0.41210844  0.40320489  0.06284313  1
  Se  Se124  1  0.41995507  0.42223151  0.54566306  1
  Se  Se125  1  0.41937345  0.74821507  0.05799018  1
  Se  Se126  1  0.41287950  0.75365310  0.55518661  1
  Se  Se127  1  0.74665097  0.07949568  0.05650334  1
  Se  Se128  1  0.73625707  0.05448458  0.54297068  1
  Se  Se129  1  0.73833237  0.40172229  0.06426746  1
  Se  Se130  1  0.77000680  0.42322001  0.55114366  1
  Se  Se131  1  0.74444552  0.74900856  0.06262347  1
  Se  Se132  1  0.75292827  0.75055909  0.55060935  1
  Se  Se133  1  0.24799640  0.24629518  0.05277628  1
  Se  Se134  1  0.25565712  0.26416175  0.55672310  1
  Se  Se135  1  0.25412248  0.58126817  0.04807434  1
  Se  Se136  1  0.25793840  0.59349512  0.56450395  1
  Se  Se137  1  0.24917857  0.91306018  0.05424617  1
  Se  Se138  1  0.23348799  0.92342535  0.55875832  1
  Se  Se139  1  0.57628344  0.23985648  0.05131642  1
  Se  Se140  1  0.56971619  0.22806539  0.54213413  1
  Se  Se141  1  0.58542501  0.58465711  0.06563110  1
  Se  Se142  1  0.58274794  0.58679602  0.55154489  1
  Se  Se143  1  0.58238103  0.91221400  0.05560248  1
  Se  Se144  1  0.57417628  0.91433729  0.53983009  1
  Se  Se145  1  0.91185132  0.25268777  0.05857558  1
  Se  Se146  1  0.92030070  0.23812440  0.55463668  1
  Se  Se147  1  0.92453839  0.59752936  0.06091580  1
  Se  Se148  1  0.91972221  0.57921862  0.54980119  1
  Se  Se149  1  0.91643086  0.92476619  0.06189006  1
  Se  Se150  1  0.92177718  0.91814102  0.54889374  1
  Se  Se151  1  0.07570250  0.24469773  0.43519878  1
  Se  Se152  1  0.07938540  0.25040441  0.94734218  1
  Se  Se153  1  0.07742650  0.59053554  0.43635984  1
  Se  Se154  1  0.08333099  0.58395565  0.94722331  1
  Se  Se155  1  0.08551198  0.91947780  0.44595564  1
  Se  Se156  1  0.08327633  0.91465721  0.94842993  1
  Se  Se157  1  0.40769466  0.25503089  0.43970927  1
  Se  Se158  1  0.41603060  0.24766178  0.94537266  1
  Se  Se159  1  0.41447739  0.58719505  0.44418206  1
  Se  Se160  1  0.41494963  0.59105161  0.93404224  1
  Se  Se161  1  0.41404449  0.92249909  0.45882811  1
  Se  Se162  1  0.41909837  0.91739818  0.94910172  1
  Se  Se163  1  0.74765817  0.26385694  0.46187848  1
  Se  Se164  1  0.74663877  0.24480321  0.94611683  1
  Se  Se165  1  0.74846059  0.58224716  0.44612042  1
  Se  Se166  1  0.73867407  0.58912647  0.95049331  1
  Se  Se167  1  0.75647841  0.91747825  0.44876461  1
  Se  Se168  1  0.74486395  0.92756612  0.93473079  1
  Se  Se169  1  0.25794780  0.07584323  0.44033575  1
  Se  Se170  1  0.25078500  0.08224922  0.94740398  1
  Se  Se171  1  0.24664505  0.41695350  0.43293687  1
  Se  Se172  1  0.24852019  0.41865777  0.94888883  1
  Se  Se173  1  0.24614943  0.75395400  0.44937320  1
  Se  Se174  1  0.25269811  0.75005401  0.94830531  1
  Se  Se175  1  0.56053804  0.11375484  0.45136346  1
  Se  Se176  1  0.58189374  0.08032278  0.94602892  1
  Se  Se177  1  0.57756739  0.41727567  0.45213013  1
  Se  Se178  1  0.58667239  0.41018285  0.94051892  1
  Se  Se179  1  0.58509015  0.75257602  0.44375177  1
  Se  Se180  1  0.57542583  0.75657491  0.95187818  1
  Se  Se181  1  0.92213005  0.08810548  0.44068274  1
  Se  Se182  1  0.90586369  0.09130922  0.95434287  1
  Se  Se183  1  0.92213200  0.41824140  0.45028492  1
  Se  Se184  1  0.91477587  0.41196847  0.94170584  1
  Se  Se185  1  0.91280156  0.75131463  0.44841861  1
  Se  Se186  1  0.92217020  0.74806202  0.93233811  1
  Se  Se187  1  0.25249188  0.24685304  0.29542067  1
  Se  Se188  1  0.24207823  0.24592288  0.81711892  1
  Se  Se189  1  0.24529697  0.56981990  0.31225798  1
  Se  Se190  1  0.24878735  0.57884439  0.80758052  1
  Se  Se191  1  0.24812101  0.91272515  0.31076162  1
  Se  Se192  1  0.25164236  0.92595316  0.80390618  1
  Se  Se193  1  0.58896503  0.23270054  0.32116966  1
  Se  Se194  1  0.58792778  0.24980351  0.79850980  1
  Se  Se195  1  0.57696377  0.57469221  0.30318092  1
  Se  Se196  1  0.58281702  0.57219719  0.80763310  1
  Se  Se197  1  0.58578322  0.92495200  0.31426377  1
  Se  Se198  1  0.58373912  0.91703939  0.80807530  1
  Se  Se199  1  0.92249849  0.27316072  0.30484491  1
  Se  Se200  1  0.91575449  0.24235692  0.80527189  1
  Se  Se201  1  0.91473420  0.58664009  0.31564803  1
  Se  Se202  1  0.90167322  0.56494912  0.80555795  1
  Se  Se203  1  0.91834148  0.92488545  0.30505488  1
  Se  Se204  1  0.91503608  0.91197550  0.80104747  1
  Se  Se205  1  0.08751849  0.08511482  0.29702894  1
  Se  Se206  1  0.07705876  0.08006919  0.81243408  1
  Se  Se207  1  0.08140961  0.41034992  0.29774856  1
  Se  Se208  1  0.07749012  0.41432476  0.80317713  1
  Se  Se209  1  0.08327202  0.76041783  0.31096376  1
  Se  Se210  1  0.10205517  0.75387340  0.80090414  1
  Se  Se211  1  0.43349819  0.07552496  0.32094182  1
  Se  Se212  1  0.42332425  0.08851218  0.79939039  1
  Se  Se213  1  0.41861407  0.39858237  0.29987221  1
  Se  Se214  1  0.42691073  0.41931906  0.80145269  1
  Se  Se215  1  0.42054804  0.75915902  0.31515313  1
  Se  Se216  1  0.42284414  0.76545070  0.80805316  1
  Se  Se217  1  0.75294316  0.10025622  0.31543873  1
  Se  Se218  1  0.75287484  0.08523657  0.80746765  1
  Se  Se219  1  0.75431540  0.42214271  0.32094305  1
  Se  Se220  1  0.74047091  0.40057836  0.79934657  1
  Se  Se221  1  0.74758071  0.75382998  0.30257914  1
  Se  Se222  1  0.75568874  0.75526272  0.80336910  1
  Se  Se223  1  0.24390075  0.08473385  0.18584372  1
  Se  Se224  1  0.24671063  0.09106920  0.70250810  1
  Se  Se225  1  0.25120284  0.41224871  0.19094165  1
  Se  Se226  1  0.24202417  0.42238304  0.69179969  1
  Se  Se227  1  0.24505404  0.75490844  0.19529309  1
  Se  Se228  1  0.24797120  0.76440199  0.69037159  1
  Se  Se229  1  0.58439049  0.07896837  0.19686695  1
  Se  Se230  1  0.58344111  0.09367587  0.67506877  1
  Se  Se231  1  0.57632863  0.41580779  0.19648586  1
  Se  Se232  1  0.59004347  0.40478539  0.68499162  1
  Se  Se233  1  0.58661598  0.75273159  0.20333313  1
  Se  Se234  1  0.57982468  0.76963024  0.68913015  1
  Se  Se235  1  0.92336091  0.08551074  0.19862648  1
  Se  Se236  1  0.91532312  0.07563087  0.69644058  1
  Se  Se237  1  0.90864698  0.43367011  0.19991459  1
  Se  Se238  1  0.92122074  0.39992944  0.69466219  1
  Se  Se239  1  0.90634433  0.76485193  0.19083047  1
  Se  Se240  1  0.91497948  0.74697582  0.68319460  1
  Se  Se241  1  0.07783243  0.25705878  0.19033781  1
  Se  Se242  1  0.07619115  0.24787761  0.70658227  1
  Se  Se243  1  0.09776399  0.58329460  0.19052176  1
  Se  Se244  1  0.08243312  0.57520850  0.68901090  1
  Se  Se245  1  0.08224804  0.92171667  0.19580637  1
  Se  Se246  1  0.06873480  0.91620946  0.70408820  1
  Se  Se247  1  0.42210071  0.23657165  0.20220542  1
  Se  Se248  1  0.42710026  0.24891058  0.68160825  1
  Se  Se249  1  0.42564961  0.57126069  0.19377703  1
  Se  Se250  1  0.43042710  0.57653491  0.68945419  1
  Se  Se251  1  0.42326659  0.90909493  0.19697016  1
  Se  Se252  1  0.41721866  0.93284034  0.68827747  1
  Se  Se253  1  0.75296336  0.24127943  0.19540320  1
  Se  Se254  1  0.74937005  0.23723458  0.68469359  1
  Se  Se255  1  0.74110003  0.58956535  0.20735696  1
  Se  Se256  1  0.75334740  0.56510947  0.68750968  1
  Se  Se257  1  0.74587583  0.92786148  0.20268448  1
  Se  Se258  1  0.75941814  0.90998958  0.68260603  1
