# generated using pymatgen
data_In86Cu29Se144
_symmetry_space_group_name_H-M   'P 1'
_cell_length_a   17.57844011
_cell_length_b   17.58213008
_cell_length_c   23.43998842
_cell_angle_alpha   89.99955814
_cell_angle_beta   89.94842231
_cell_angle_gamma   90.00088302
_symmetry_Int_Tables_number   1
_chemical_formula_structural   In86Cu29Se144
_chemical_formula_sum   'In86 Cu29 Se144'
_cell_volume   7244.51038198
_cell_formula_units_Z   1
loop_
 _symmetry_equiv_pos_site_id
 _symmetry_equiv_pos_as_xyz
  1  'x, y, z'
loop_
 _atom_site_type_symbol
 _atom_site_label
 _atom_site_symmetry_multiplicity
 _atom_site_fract_x
 _atom_site_fract_y
 _atom_site_fract_z
 _atom_site_occupancy
  In  In0  1  0.01515698  0.15238482  0.14414714  1
  In  In1  1  0.00945769  0.15586766  0.62894564  1
  In  In2  1  0.00260170  0.50084581  0.13637557  1
  In  In3  1  0.00521857  0.49348691  0.63008792  1
  In  In4  1  0.00344320  0.83913429  0.12115090  1
  In  In5  1  0.01053928  0.82617709  0.63383345  1
  In  In6  1  0.32914549  0.18310281  0.13101091  1
  In  In7  1  0.33117768  0.16363981  0.62433166  1
  In  In8  1  0.32309690  0.48429673  0.12400023  1
  In  In9  1  0.31093089  0.50609300  0.62658777  1
  In  In10  1  0.33016257  0.83486491  0.11435681  1
  In  In11  1  0.33832085  0.83698134  0.61978295  1
  In  In12  1  0.66728209  0.15402269  0.13349736  1
  In  In13  1  0.64985249  0.16080780  0.62123656  1
  In  In14  1  0.67638367  0.50874260  0.11480817  1
  In  In15  1  0.67878495  0.49600378  0.62657897  1
  In  In16  1  0.68288734  0.84740030  0.10802799  1
  In  In17  1  0.66640201  0.84804176  0.62808796  1
  In  In18  1  0.15713624  0.00968978  0.38341879  1
  In  In19  1  0.16612526  0.00351966  0.87347323  1
  In  In20  1  0.16801208  0.33075910  0.37590779  1
  In  In21  1  0.16204665  0.32427977  0.86839026  1
  In  In22  1  0.15230909  0.67386602  0.38391891  1
  In  In23  1  0.15751271  0.68137583  0.87986837  1
  In  In24  1  0.50558651  -0.00236612  0.38040860  1
  In  In25  1  0.49747382  -0.00308597  0.87120932  1
  In  In26  1  0.48555297  0.33477537  0.37763157  1
  In  In27  1  0.49651126  0.34063102  0.87609271  1
  In  In28  1  0.50573179  0.67679952  0.37842567  1
  In  In29  1  0.50027965  0.66373935  0.88081012  1
  In  In30  1  0.84553141  0.02006656  0.35240570  1
  In  In31  1  0.82859432  -0.01129412  0.87342707  1
  In  In32  1  0.85234681  0.32236766  0.37067768  1
  In  In33  1  0.84697057  0.32917054  0.87836246  1
  In  In34  1  0.84879832  0.65621075  0.37256423  1
  In  In35  1  0.85003159  0.66286980  0.88814362  1
  In  In36  1  0.02738715  0.18679125  0.34928130  1
  In  In37  1  0.00869664  0.17617021  0.86963663  1
  In  In38  1  0.02362188  0.50934204  0.35154712  1
  In  In39  1  0.00006797  0.49572646  0.87579024  1
  In  In40  1  0.00269186  0.84119722  0.37118287  1
  In  In41  1  0.00059663  0.83598601  0.87696410  1
  In  In42  1  0.31962524  0.18137896  0.38674090  1
  In  In43  1  0.32284769  0.15423077  0.86510489  1
  In  In44  1  0.32250630  0.48016307  0.36841035  1
  In  In45  1  0.34263334  0.49864846  0.87259115  1
  In  In46  1  0.32984814  0.83596791  0.38291165  1
  In  In47  1  0.32235152  0.84321295  0.87957524  1
  In  In48  1  0.67718256  0.15188328  0.37720622  1
  In  In49  1  0.67110726  0.15275446  0.87475442  1
  In  In50  1  0.66400466  0.50383992  0.37331810  1
  In  In51  1  0.66742156  0.50033643  0.88397427  1
  In  In52  1  0.66001865  0.84131169  0.37800745  1
  In  In53  1  0.66452051  0.84634420  0.88734350  1
  In  In54  1  0.16335642  -0.00170474  0.11985061  1
  In  In55  1  0.16799945  -0.00050894  0.62351774  1
  In  In56  1  0.17308703  0.32717789  0.13968557  1
  In  In57  1  0.16578681  0.33018827  0.62603209  1
  In  In58  1  0.13332819  0.66813354  0.12622446  1
  In  In59  1  0.15146973  0.66193899  0.61357952  1
  In  In60  1  0.50750152  -0.00416305  0.12146636  1
  In  In61  1  0.49713598  -0.00176164  0.62611718  1
  In  In62  1  0.48770930  0.33407650  0.12380686  1
  In  In63  1  0.49491231  0.30878399  0.61626817  1
  In  In64  1  0.50776167  0.67605113  0.11601573  1
  In  In65  1  0.48357613  0.66704293  0.62210613  1
  In  In66  1  0.84199510  -0.00204433  0.12745501  1
  In  In67  1  0.83614455  -0.00610850  0.63662777  1
  In  In68  1  0.83898525  0.34489651  0.12004222  1
  In  In69  1  0.83828674  0.33972536  0.62660615  1
  In  In70  1  0.86276282  0.68154781  0.10661284  1
  In  In71  1  0.84357118  0.67512955  0.62895772  1
  In  In72  1  0.66777333  0.32463289  0.74751720  1
  In  In73  1  0.49114412  0.50296642  0.49425365  1
  In  In74  1  0.32010650  0.67033156  0.75588197  1
  In  In75  1  0.83503941  0.83611913  0.49238887  1
  In  In76  1  0.83720097  0.16491591  0.49257734  1
  In  In77  1  0.67296676  0.67415936  0.25202216  1
  In  In78  1  0.66839799  0.33360959  0.25290752  1
  In  In79  1  0.83788867  0.16475816  0.00706275  1
  In  In80  1  0.49441234  0.16537314  -0.00196839  1
  In  In81  1  0.16387690  0.50801695  0.00356467  1
  In  In82  1  0.32594705  0.00829969  0.25355354  1
  In  In83  1  0.66610609  0.67369266  0.76385613  1
  In  In84  1  0.83958719  0.49458965  0.50419233  1
  In  In85  1  0.32739435  0.66438579  0.24811326  1
  Cu  Cu86  1  0.33614829  0.66489672  0.00020599  1
  Cu  Cu87  1  0.49578233  0.15931504  0.74585399  1
  Cu  Cu88  1  0.83700055  0.83143851  0.24099338  1
  Cu  Cu89  1  0.32663151  0.33623898  0.00441472  1
  Cu  Cu90  1  0.32888245  0.00349188  -0.00554702  1
  Cu  Cu91  1  0.49837564  0.16497241  0.25200014  1
  Cu  Cu92  1  0.00308631  0.00358289  0.00019865  1
  Cu  Cu93  1  0.00715851  0.33300215  -0.00199979  1
  Cu  Cu94  1  0.50034449  0.83656943  0.75021524  1
  Cu  Cu95  1  0.66207786  0.67051360  0.50174058  1
  Cu  Cu96  1  0.83932529  0.50142674  0.75599716  1
  Cu  Cu97  1  0.49420400  0.48504112  0.74798614  1
  Cu  Cu98  1  0.83673434  0.16064074  0.75477724  1
  Cu  Cu99  1  0.84137956  0.83484608  0.75530047  1
  Cu  Cu100  1  0.32855618  0.33205717  0.50292102  1
  Cu  Cu101  1  0.83918841  0.50438207  0.24461877  1
  Cu  Cu102  1  0.66828352  0.66374111  -0.00333361  1
  Cu  Cu103  1  0.16573997  0.84036418  0.75051164  1
  Cu  Cu104  1  0.16844875  0.16663545  0.74536824  1
  Cu  Cu105  1  0.33771538  0.00080495  0.50254036  1
  Cu  Cu106  1  0.00827019  0.33161086  0.49719937  1
  Cu  Cu107  1  0.49434198  0.49765663  0.24212870  1
  Cu  Cu108  1  0.66434812  0.00094023  0.50128126  1
  Cu  Cu109  1  0.32489870  0.66939095  0.49903927  1
  Cu  Cu110  1  0.66251775  0.33355898  0.00225481  1
  Cu  Cu111  1  0.15833412  0.49469099  0.74863654  1
  Cu  Cu112  1  0.50290868  0.84139417  0.24986022  1
  Cu  Cu113  1  0.00273751  -0.00131194  0.49973031  1
  Cu  Cu114  1  0.15796588  0.83442916  0.24792202  1
  Se  Se115  1  0.08041350  0.08996500  0.05631919  1
  Se  Se116  1  0.08629826  0.08336138  0.55213084  1
  Se  Se117  1  0.08575746  0.40862354  0.06320233  1
  Se  Se118  1  0.08420750  0.41559765  0.55646362  1
  Se  Se119  1  0.08876229  0.76090671  0.05077199  1
  Se  Se120  1  0.07987761  0.76005972  0.55175636  1
  Se  Se121  1  0.40388072  0.08027673  0.06294960  1
  Se  Se122  1  0.42031185  0.08471687  0.55619709  1
  Se  Se123  1  0.41577249  0.41975384  0.05119054  1
  Se  Se124  1  0.40771612  0.41714612  0.56270717  1
  Se  Se125  1  0.41858590  0.75389079  0.04946188  1
  Se  Se126  1  0.41531050  0.74962980  0.54797850  1
  Se  Se127  1  0.74109302  0.07322879  0.05730501  1
  Se  Se128  1  0.75232054  0.07506178  0.56061013  1
  Se  Se129  1  0.75232494  0.41663094  0.04873095  1
  Se  Se130  1  0.73979942  0.40105871  0.55296324  1
  Se  Se131  1  0.75382062  0.74537529  0.04901804  1
  Se  Se132  1  0.74534095  0.74811464  0.56056430  1
  Se  Se133  1  0.24439423  0.25343542  0.05762006  1
  Se  Se134  1  0.24671438  0.24674478  0.55618498  1
  Se  Se135  1  0.25414338  0.59562333  0.06603119  1
  Se  Se136  1  0.24247951  0.58181456  0.54833979  1
  Se  Se137  1  0.24623934  0.91933765  0.04906923  1
  Se  Se138  1  0.25107863  0.91717957  0.55346295  1
  Se  Se139  1  0.58843143  0.25011375  0.06299101  1
  Se  Se140  1  0.59119088  0.25044263  0.54748415  1
  Se  Se141  1  0.58177312  0.58226490  0.05020109  1
  Se  Se142  1  0.58763140  0.58486160  0.56157427  1
  Se  Se143  1  0.57044266  0.90388309  0.05153563  1
  Se  Se144  1  0.58198837  0.91634802  0.55448622  1
  Se  Se145  1  0.93232540  0.25228734  0.06304037  1
  Se  Se146  1  0.92423668  0.25418785  0.55789288  1
  Se  Se147  1  0.92144471  0.56534755  0.05814139  1
  Se  Se148  1  0.92576698  0.59032916  0.56002075  1
  Se  Se149  1  0.91751647  0.92077603  0.05205141  1
  Se  Se150  1  0.92072497  0.92087000  0.55961954  1
  Se  Se151  1  0.08384184  0.24209414  0.44249079  1
  Se  Se152  1  0.08917551  0.24774410  0.94641263  1
  Se  Se153  1  0.07905695  0.57087429  0.44134983  1
  Se  Se154  1  0.06998450  0.59493486  0.94616651  1
  Se  Se155  1  0.08457775  0.91196876  0.44743592  1
  Se  Se156  1  0.08596813  0.92096594  0.94424203  1
  Se  Se157  1  0.41785395  0.25102044  0.45327505  1
  Se  Se158  1  0.40261062  0.25470357  0.94002512  1
  Se  Se159  1  0.40179918  0.59146767  0.43235974  1
  Se  Se160  1  0.41628786  0.57900648  0.94687323  1
  Se  Se161  1  0.41913059  0.91605775  0.44736900  1
  Se  Se162  1  0.41536714  0.92038413  0.94436004  1
  Se  Se163  1  0.74634692  0.26050914  0.43796219  1
  Se  Se164  1  0.74280035  0.25261435  0.94230628  1
  Se  Se165  1  0.74511955  0.59121671  0.44406858  1
  Se  Se166  1  0.75591514  0.57932449  0.94846926  1
  Se  Se167  1  0.75180104  0.93500117  0.43624825  1
  Se  Se168  1  0.75789242  0.91842263  0.95327827  1
  Se  Se169  1  0.25062660  0.08194857  0.45013762  1
  Se  Se170  1  0.24515150  0.08960052  0.94542006  1
  Se  Se171  1  0.24586615  0.41524726  0.44886147  1
  Se  Se172  1  0.24990053  0.41578350  0.94008110  1
  Se  Se173  1  0.24225601  0.75539626  0.44814963  1
  Se  Se174  1  0.25280395  0.74810329  0.94699647  1
  Se  Se175  1  0.58373682  0.08737784  0.44835362  1
  Se  Se176  1  0.58898156  0.07265671  0.94683651  1
  Se  Se177  1  0.58861770  0.41293322  0.44123678  1
  Se  Se178  1  0.57962176  0.41553072  0.94769182  1
  Se  Se179  1  0.58243945  0.75769867  0.45012943  1
  Se  Se180  1  0.58390439  0.74792781  0.94554155  1
  Se  Se181  1  0.92972053  0.07825260  0.43493625  1
  Se  Se182  1  0.92313142  0.08305520  0.93759280  1
  Se  Se183  1  0.92965639  0.41400719  0.43783753  1
  Se  Se184  1  0.91961179  0.41539482  0.94905482  1
  Se  Se185  1  0.92799691  0.74053232  0.44286199  1
  Se  Se186  1  0.91433605  0.76457949  0.94999693  1
  Se  Se187  1  0.25649145  0.25470369  0.30630685  1
  Se  Se188  1  0.25217742  0.25052192  0.79939251  1
  Se  Se189  1  0.24053226  0.58243256  0.31362185  1
  Se  Se190  1  0.23335107  0.57481019  0.81473072  1
  Se  Se191  1  0.24155462  0.90944553  0.30981493  1
  Se  Se192  1  0.25145798  0.92176147  0.80275817  1
  Se  Se193  1  0.57765140  0.24564594  0.31361803  1
  Se  Se194  1  0.57484367  0.23810518  0.81029227  1
  Se  Se195  1  0.57112743  0.57965581  0.30309220  1
  Se  Se196  1  0.57350040  0.56790246  0.80682453  1
  Se  Se197  1  0.58562145  0.92232553  0.30419136  1
  Se  Se198  1  0.58626256  0.91285672  0.80652300  1
  Se  Se199  1  0.89437751  0.21393311  0.30549199  1
  Se  Se200  1  0.91702403  0.25187678  0.80132846  1
  Se  Se201  1  0.92536739  0.58990195  0.29337976  1
  Se  Se202  1  0.92050174  0.58580914  0.80883078  1
  Se  Se203  1  0.91867433  0.91479656  0.29800989  1
  Se  Se204  1  0.92432256  0.92253593  0.80483440  1
  Se  Se205  1  0.08694868  0.07081735  0.29923192  1
  Se  Se206  1  0.08529162  0.08618740  0.80257180  1
  Se  Se207  1  0.06314574  0.38366730  0.30501705  1
  Se  Se208  1  0.07739340  0.41172615  0.80480336  1
  Se  Se209  1  0.08050454  0.74924310  0.30426246  1
  Se  Se210  1  0.08289793  0.75510031  0.80312828  1
  Se  Se211  1  0.41767534  0.09089828  0.31666553  1
  Se  Se212  1  0.41421649  0.07600093  0.80102331  1
  Se  Se213  1  0.41764900  0.41433897  0.29926063  1
  Se  Se214  1  0.40884770  0.40600588  0.80105633  1
  Se  Se215  1  0.42120129  0.75881386  0.30619488  1
  Se  Se216  1  0.42075858  0.75473357  0.81043479  1
  Se  Se217  1  0.73492678  0.07783423  0.29446812  1
  Se  Se218  1  0.75013086  0.07640142  0.80264445  1
  Se  Se219  1  0.76330266  0.42743919  0.31022157  1
  Se  Se220  1  0.75322256  0.41906899  0.80991613  1
  Se  Se221  1  0.76402131  0.76128662  0.31454450  1
  Se  Se222  1  0.76128213  0.75834924  0.81975779  1
  Se  Se223  1  0.23751550  0.09479858  0.19218935  1
  Se  Se224  1  0.25139994  0.07999166  0.69444970  1
  Se  Se225  1  0.25559756  0.41506506  0.20438996  1
  Se  Se226  1  0.24686412  0.41466138  0.69790508  1
  Se  Se227  1  0.24167735  0.75769905  0.18769904  1
  Se  Se228  1  0.24051392  0.75570972  0.68712404  1
  Se  Se229  1  0.57546092  0.07792778  0.19863517  1
  Se  Se230  1  0.58438421  0.07696238  0.69710766  1
  Se  Se231  1  0.58509659  0.42427116  0.18618618  1
  Se  Se232  1  0.57750606  0.41453484  0.68535307  1
  Se  Se233  1  0.58400560  0.76179800  0.19067407  1
  Se  Se234  1  0.57535430  0.74949890  0.69124224  1
  Se  Se235  1  0.90268111  0.09238244  0.19776087  1
  Se  Se236  1  0.92139701  0.08061940  0.69883257  1
  Se  Se237  1  0.91812408  0.41034607  0.19926867  1
  Se  Se238  1  0.91695332  0.41575813  0.69953506  1
  Se  Se239  1  0.92503012  0.75002432  0.19178675  1
  Se  Se240  1  0.92208437  0.74843930  0.70311129  1
  Se  Se241  1  0.07159851  0.26256756  0.20406280  1
  Se  Se242  1  0.08057821  0.25038073  0.69595611  1
  Se  Se243  1  0.10523836  0.56580898  0.19955898  1
  Se  Se244  1  0.08426686  0.58577237  0.69502293  1
  Se  Se245  1  0.08150192  0.92272766  0.19359223  1
  Se  Se246  1  0.08194307  0.92401726  0.69676495  1
  Se  Se247  1  0.41934510  0.25351362  0.20100608  1
  Se  Se248  1  0.41484086  0.24726238  0.69554647  1
  Se  Se249  1  0.42155050  0.58397710  0.18338560  1
  Se  Se250  1  0.41494626  0.57645107  0.69656555  1
  Se  Se251  1  0.41325020  0.91386198  0.19199818  1
  Se  Se252  1  0.41398871  0.91431716  0.69542453  1
  Se  Se253  1  0.75558499  0.25034997  0.18768838  1
  Se  Se254  1  0.75845892  0.23543930  0.68697537  1
  Se  Se255  1  0.75979587  0.58799692  0.18773535  1
  Se  Se256  1  0.75658055  0.58291955  0.69849185  1
  Se  Se257  1  0.75009352  0.91452078  0.19202201  1
  Se  Se258  1  0.75007402  0.91265140  0.70419512  1
