# generated using pymatgen
data_In86Cu29Se144
_symmetry_space_group_name_H-M   'P 1'
_cell_length_a   17.58298044
_cell_length_b   17.59379879
_cell_length_c   23.44811129
_cell_angle_alpha   90.02923097
_cell_angle_beta   89.99474704
_cell_angle_gamma   90.00145060
_symmetry_Int_Tables_number   1
_chemical_formula_structural   In86Cu29Se144
_chemical_formula_sum   'In86 Cu29 Se144'
_cell_volume   7253.70554625
_cell_formula_units_Z   1
loop_
 _symmetry_equiv_pos_site_id
 _symmetry_equiv_pos_as_xyz
  1  'x, y, z'
loop_
 _atom_site_type_symbol
 _atom_site_label
 _atom_site_symmetry_multiplicity
 _atom_site_fract_x
 _atom_site_fract_y
 _atom_site_fract_z
 _atom_site_occupancy
  In  In0  1  -0.00752457  0.17510527  0.13261865  1
  In  In1  1  0.00722568  0.14616791  0.63161327  1
  In  In2  1  -0.00633783  0.49274648  0.11257041  1
  In  In3  1  0.01168741  0.50844007  0.61319928  1
  In  In4  1  0.02855299  0.82537887  0.12800622  1
  In  In5  1  0.03083783  0.81099023  0.65293964  1
  In  In6  1  0.32807507  0.15007948  0.12123861  1
  In  In7  1  0.33025895  0.18423418  0.63310295  1
  In  In8  1  0.32870797  0.51197858  0.12502244  1
  In  In9  1  0.33248636  0.50232114  0.62397625  1
  In  In10  1  0.32419252  0.83181596  0.13129378  1
  In  In11  1  0.32448962  0.82830393  0.63151067  1
  In  In12  1  0.68096271  0.17767422  0.11748238  1
  In  In13  1  0.65941402  0.17071237  0.62191640  1
  In  In14  1  0.67097391  0.48815891  0.13674327  1
  In  In15  1  0.66904516  0.49622075  0.60835081  1
  In  In16  1  0.65132172  0.82911825  0.13268451  1
  In  In17  1  0.65907935  0.83679205  0.62029314  1
  In  In18  1  0.16999868  -0.00290684  0.37963777  1
  In  In19  1  0.17191746  -0.00588894  0.86165707  1
  In  In20  1  0.15577684  0.33946336  0.37799209  1
  In  In21  1  0.17347033  0.32472543  0.87764961  1
  In  In22  1  0.17453210  0.66521668  0.37768973  1
  In  In23  1  0.17011912  0.67097042  0.86911496  1
  In  In24  1  0.47510687  -0.00539525  0.37450473  1
  In  In25  1  0.49003897  0.00720295  0.87193363  1
  In  In26  1  0.51375670  0.34042572  0.37195258  1
  In  In27  1  0.48787359  0.32665443  0.87107803  1
  In  In28  1  0.49477649  0.66668754  0.38048280  1
  In  In29  1  0.47774890  0.67570466  0.87393286  1
  In  In30  1  0.84076642  -0.01167988  0.37387961  1
  In  In31  1  0.84900128  0.00023550  0.88188677  1
  In  In32  1  0.83697296  0.33958657  0.37095848  1
  In  In33  1  0.83927778  0.33444895  0.89001144  1
  In  In34  1  0.82022318  0.66554214  0.37117752  1
  In  In35  1  0.84022089  0.65105723  0.88113614  1
  In  In36  1  0.00416612  0.17096164  0.37023047  1
  In  In37  1  0.00803909  0.15844732  0.88238448  1
  In  In38  1  0.00995904  0.49276951  0.37941136  1
  In  In39  1  -0.00398917  0.50667465  0.88085994  1
  In  In40  1  0.00960666  0.84438466  0.36940983  1
  In  In41  1  0.02404712  0.84470950  0.86226601  1
  In  In42  1  0.33173509  0.14668403  0.37466872  1
  In  In43  1  0.33861359  0.16825588  0.86493596  1
  In  In44  1  0.31858410  0.51497244  0.38389754  1
  In  In45  1  0.32591650  0.49657652  0.87143865  1
  In  In46  1  0.32953186  0.83318518  0.38177861  1
  In  In47  1  0.30106070  0.80822847  0.83034849  1
  In  In48  1  0.66045344  0.17689770  0.37181564  1
  In  In49  1  0.66227644  0.17248505  0.88368705  1
  In  In50  1  0.66341412  0.49995632  0.37964521  1
  In  In51  1  0.67775797  0.50338204  0.87933068  1
  In  In52  1  0.66567059  0.81908677  0.37523408  1
  In  In53  1  0.65296543  0.83089189  0.87482175  1
  In  In54  1  0.17481926  -0.01273414  0.13535186  1
  In  In55  1  0.16671636  -0.00399231  0.62596322  1
  In  In56  1  0.14193989  0.33664569  0.12494647  1
  In  In57  1  0.17725299  0.34456268  0.61579964  1
  In  In58  1  0.17813245  0.66872600  0.11068612  1
  In  In59  1  0.17056584  0.66563175  0.62713537  1
  In  In60  1  0.48487010  -0.00205207  0.12319838  1
  In  In61  1  0.48453328  -0.01494394  0.62932536  1
  In  In62  1  0.51458653  0.33654614  0.12575042  1
  In  In63  1  0.48692156  0.33635061  0.62191643  1
  In  In64  1  0.49299724  0.67102266  0.13555886  1
  In  In65  1  0.49496525  0.66066908  0.62316624  1
  In  In66  1  0.84070153  0.01492141  0.12310864  1
  In  In67  1  0.84433310  -0.00010980  0.62578237  1
  In  In68  1  0.83596800  0.33354537  0.12511847  1
  In  In69  1  0.82726528  0.33947482  0.62054179  1
  In  In70  1  0.83622961  0.65034474  0.12647828  1
  In  In71  1  0.84911287  0.66475221  0.62291405  1
  In  In72  1  0.00702605  0.66552270  0.24993377  1
  In  In73  1  0.66300758  -0.00164417  0.74432481  1
  In  In74  1  0.83921382  0.83137674  0.00213218  1
  In  In75  1  0.00328828  0.33426996  0.75562762  1
  In  In76  1  0.48682519  0.83514825  -0.00183927  1
  In  In77  1  0.33429729  0.33125049  0.25272323  1
  In  In78  1  0.83979889  0.83099657  0.49445935  1
  In  In79  1  0.66101129  0.33662705  0.75153093  1
  In  In80  1  0.50026566  0.49807498  -0.00612660  1
  In  In81  1  0.83767056  0.17143183  0.49385529  1
  In  In82  1  0.49518593  0.17370573  0.50144729  1
  In  In83  1  0.16220240  0.17156871  0.00321314  1
  In  In84  1  0.66758258  0.00235602  0.24872247  1
  In  In85  1  0.66494982  0.66359706  0.75102691  1
  Cu  Cu86  1  0.66238741  0.66609577  0.49581239  1
  Cu  Cu87  1  0.82958192  0.16106161  0.75544867  1
  Cu  Cu88  1  0.83530887  0.17328586  0.24665087  1
  Cu  Cu89  1  0.17198342  0.50151172  0.74430323  1
  Cu  Cu90  1  0.01035180  0.67366581  -0.00278499  1
  Cu  Cu91  1  0.00517685  0.66615749  0.50145824  1
  Cu  Cu92  1  0.16088840  0.49930618  0.25118283  1
  Cu  Cu93  1  0.66530154  0.65708896  0.00753892  1
  Cu  Cu94  1  -0.00006522  0.32729261  0.49775606  1
  Cu  Cu95  1  0.33169523  0.67010111  0.50557544  1
  Cu  Cu96  1  0.33310499  0.33671433  0.49824005  1
  Cu  Cu97  1  0.83046375  0.49627501  0.24845245  1
  Cu  Cu98  1  0.49859445  0.50868298  0.25509792  1
  Cu  Cu99  1  0.84044063  0.82844226  0.75549208  1
  Cu  Cu100  1  0.67038581  0.32964095  0.00676103  1
  Cu  Cu101  1  0.50187340  0.16710311  0.24869344  1
  Cu  Cu102  1  0.65498767  0.00358834  0.50354576  1
  Cu  Cu103  1  0.84194393  0.50462013  0.74907734  1
  Cu  Cu104  1  0.33100411  0.00050969  -0.00406267  1
  Cu  Cu105  1  0.16606006  0.15771446  0.24931870  1
  Cu  Cu106  1  0.66539862  0.00519787  -0.00212481  1
  Cu  Cu107  1  0.33511726  0.32965086  -0.00364226  1
  Cu  Cu108  1  0.32684865  -0.00485906  0.50354491  1
  Cu  Cu109  1  0.00960578  -0.00019351  -0.00071505  1
  Cu  Cu110  1  0.01092607  -0.00870804  0.50494007  1
  Cu  Cu111  1  0.49326951  0.82670350  0.25588335  1
  Cu  Cu112  1  0.16711714  0.16873346  0.75102946  1
  Cu  Cu113  1  0.49235160  0.50414896  0.74932982  1
  Cu  Cu114  1  0.83835988  0.83367096  0.25147552  1
  Se  Se115  1  0.08270019  0.07792002  0.06703810  1
  Se  Se116  1  0.08905855  0.08368603  0.55347059  1
  Se  Se117  1  0.09547031  0.42850152  0.04839223  1
  Se  Se118  1  0.08443688  0.41484721  0.54757426  1
  Se  Se119  1  0.09650037  0.75843352  0.04480076  1
  Se  Se120  1  0.08170340  0.74954969  0.56013808  1
  Se  Se121  1  0.41663663  0.08285115  0.04781136  1
  Se  Se122  1  0.40784510  0.08133648  0.56070091  1
  Se  Se123  1  0.41326208  0.41008161  0.05949598  1
  Se  Se124  1  0.41488712  0.42180004  0.55079250  1
  Se  Se125  1  0.40622371  0.74056890  0.05966285  1
  Se  Se126  1  0.41352018  0.75284439  0.56105689  1
  Se  Se127  1  0.75302326  0.08307893  0.05076601  1
  Se  Se128  1  0.74569672  0.07780702  0.55771176  1
  Se  Se129  1  0.74843133  0.41892787  0.05848672  1
  Se  Se130  1  0.76031921  0.41944903  0.54544447  1
  Se  Se131  1  0.74160954  0.74648702  0.06287686  1
  Se  Se132  1  0.74631001  0.74371555  0.55756011  1
  Se  Se133  1  0.25439039  0.26009461  0.06472732  1
  Se  Se134  1  0.25376162  0.24961667  0.55162070  1
  Se  Se135  1  0.24352155  0.56760135  0.04732019  1
  Se  Se136  1  0.24696842  0.58229936  0.55475250  1
  Se  Se137  1  0.25468775  0.91956953  0.05694275  1
  Se  Se138  1  0.24614617  0.91030330  0.55754116  1
  Se  Se139  1  0.58039042  0.24662440  0.05317140  1
  Se  Se140  1  0.59121208  0.26683481  0.55397011  1
  Se  Se141  1  0.58158932  0.58155824  0.06672053  1
  Se  Se142  1  0.57969458  0.58475975  0.55144343  1
  Se  Se143  1  0.58785806  0.92183956  0.05678258  1
  Se  Se144  1  0.57362831  0.91840079  0.55493550  1
  Se  Se145  1  0.91703745  0.24823077  0.05771106  1
  Se  Se146  1  0.92712238  0.24884463  0.56520950  1
  Se  Se147  1  0.92191938  0.59285153  0.04847128  1
  Se  Se148  1  0.91581479  0.58164033  0.54716084  1
  Se  Se149  1  0.92996587  0.91982639  0.06207457  1
  Se  Se150  1  0.92782243  0.91018032  0.56199504  1
  Se  Se151  1  0.08428258  0.24428335  0.44571259  1
  Se  Se152  1  0.06985617  0.26478495  0.94756994  1
  Se  Se153  1  0.08703386  0.58374710  0.44463763  1
  Se  Se154  1  0.08912870  0.58947253  0.94073398  1
  Se  Se155  1  0.08986039  0.90806006  0.44840784  1
  Se  Se156  1  0.09301668  0.92379741  0.94044053  1
  Se  Se157  1  0.40819435  0.25718502  0.43270302  1
  Se  Se158  1  0.41470824  0.24364337  0.94419055  1
  Se  Se159  1  0.41318453  0.58476983  0.45126193  1
  Se  Se160  1  0.40241509  0.58997194  0.94553060  1
  Se  Se161  1  0.41556967  0.91340506  0.45383228  1
  Se  Se162  1  0.40110365  0.91673908  0.93239112  1
  Se  Se163  1  0.74115400  0.26043556  0.44243013  1
  Se  Se164  1  0.75253890  0.24662159  0.95089985  1
  Se  Se165  1  0.75136997  0.58465323  0.44667897  1
  Se  Se166  1  0.75360189  0.58024548  0.95441676  1
  Se  Se167  1  0.73877702  0.92424849  0.44321431  1
  Se  Se168  1  0.74201834  0.91798489  0.94065463  1
  Se  Se169  1  0.24789239  0.08390462  0.45178661  1
  Se  Se170  1  0.25023270  0.08499691  0.93840359  1
  Se  Se171  1  0.24477370  0.41650878  0.44556454  1
  Se  Se172  1  0.25178220  0.41266591  0.94469101  1
  Se  Se173  1  0.24649186  0.75060067  0.45114190  1
  Se  Se174  1  0.25716376  0.76279299  0.92793027  1
  Se  Se175  1  0.58135373  0.07985111  0.43702429  1
  Se  Se176  1  0.57801728  0.08053499  0.94335954  1
  Se  Se177  1  0.57759857  0.42084967  0.44846982  1
  Se  Se178  1  0.59290853  0.40324947  0.93760429  1
  Se  Se179  1  0.57860182  0.75400787  0.44879587  1
  Se  Se180  1  0.58424605  0.73542878  0.94679647  1
  Se  Se181  1  0.92641286  0.06951079  0.44479393  1
  Se  Se182  1  0.92063561  0.08545345  0.95422531  1
  Se  Se183  1  0.91943150  0.41326589  0.44509621  1
  Se  Se184  1  0.91111211  0.43068017  0.95047637  1
  Se  Se185  1  0.92846360  0.74054443  0.43287271  1
  Se  Se186  1  0.92864985  0.75261562  0.93497667  1
  Se  Se187  1  0.24328340  0.24110572  0.31161607  1
  Se  Se188  1  0.25124388  0.25420896  0.80094998  1
  Se  Se189  1  0.24613210  0.58247959  0.30184473  1
  Se  Se190  1  0.25359811  0.58410313  0.80054043  1
  Se  Se191  1  0.27099198  0.93439895  0.31398377  1
  Se  Se192  1  0.27328313  0.94242554  0.79017684  1
  Se  Se193  1  0.58364964  0.25402517  0.29769831  1
  Se  Se194  1  0.57598531  0.23755786  0.80437934  1
  Se  Se195  1  0.58287591  0.58763515  0.31149127  1
  Se  Se196  1  0.57484847  0.57539384  0.81504229  1
  Se  Se197  1  0.57729292  0.91332239  0.31056731  1
  Se  Se198  1  0.57195388  0.90936187  0.80353978  1
  Se  Se199  1  0.91830328  0.25332213  0.30426886  1
  Se  Se200  1  0.90994046  0.24314918  0.81334405  1
  Se  Se201  1  0.91308670  0.57654057  0.30893461  1
  Se  Se202  1  0.92297927  0.58659580  0.80346127  1
  Se  Se203  1  0.92264619  0.91947837  0.29873179  1
  Se  Se204  1  0.91742073  0.91840035  0.80684553  1
  Se  Se205  1  0.08461146  0.07806463  0.30865236  1
  Se  Se206  1  0.08311457  0.08752177  0.80485032  1
  Se  Se207  1  0.07815192  0.41299878  0.30064740  1
  Se  Se208  1  0.09479430  0.42609555  0.81146285  1
  Se  Se209  1  0.09827572  0.75775416  0.30490931  1
  Se  Se210  1  0.08809528  0.74909000  0.79522201  1
  Se  Se211  1  0.41670651  0.08240879  0.29722605  1
  Se  Se212  1  0.41585155  0.08270286  0.79648523  1
  Se  Se213  1  0.41461549  0.42799789  0.31378016  1
  Se  Se214  1  0.41523305  0.41709462  0.80408675  1
  Se  Se215  1  0.40972356  0.74693998  0.31127554  1
  Se  Se216  1  0.42662089  0.75198427  0.79076456  1
  Se  Se217  1  0.75950857  0.09110814  0.31108569  1
  Se  Se218  1  0.74943300  0.08141825  0.81462741  1
  Se  Se219  1  0.74625951  0.41941490  0.30674562  1
  Se  Se220  1  0.76353760  0.42078987  0.80731629  1
  Se  Se221  1  0.74921541  0.75204337  0.29891274  1
  Se  Se222  1  0.75612293  0.75218186  0.81530900  1
  Se  Se223  1  0.25579658  0.07848319  0.20008043  1
  Se  Se224  1  0.24645976  0.09008826  0.69108508  1
  Se  Se225  1  0.24310827  0.41790584  0.19115559  1
  Se  Se226  1  0.25434455  0.41420110  0.69431617  1
  Se  Se227  1  0.24247284  0.74135418  0.19292218  1
  Se  Se228  1  0.23364157  0.75653808  0.70189176  1
  Se  Se229  1  0.58055620  0.08843161  0.18458867  1
  Se  Se230  1  0.57143760  0.08880221  0.68709608  1
  Se  Se231  1  0.57765543  0.41753670  0.20498008  1
  Se  Se232  1  0.57966721  0.43120342  0.68920725  1
  Se  Se233  1  0.58182547  0.74518173  0.20576525  1
  Se  Se234  1  0.57816125  0.75584916  0.69227957  1
  Se  Se235  1  0.91857467  0.08277223  0.20142850  1
  Se  Se236  1  0.91429344  0.07976834  0.70253191  1
  Se  Se237  1  0.91808261  0.42136044  0.19202207  1
  Se  Se238  1  0.91803583  0.42099998  0.68873441  1
  Se  Se239  1  0.91437668  0.75446493  0.18728338  1
  Se  Se240  1  0.91737324  0.74089664  0.70176185  1
  Se  Se241  1  0.08434169  0.24779599  0.20176114  1
  Se  Se242  1  0.08986723  0.25070412  0.68857666  1
  Se  Se243  1  0.08656888  0.57639500  0.18355817  1
  Se  Se244  1  0.08245581  0.57998265  0.69328912  1
  Se  Se245  1  0.07925189  0.91879575  0.20192669  1
  Se  Se246  1  0.06494413  0.93988834  0.69531482  1
  Se  Se247  1  0.41953269  0.24373820  0.18626332  1
  Se  Se248  1  0.42682710  0.25348369  0.69848608  1
  Se  Se249  1  0.41019943  0.58370573  0.20027005  1
  Se  Se250  1  0.41075107  0.58725126  0.69599126  1
  Se  Se251  1  0.41843280  0.91024339  0.19560169  1
  Se  Se252  1  0.39513694  0.92272318  0.70241676  1
  Se  Se253  1  0.74843427  0.25515950  0.19644815  1
  Se  Se254  1  0.75644206  0.24247548  0.69338611  1
  Se  Se255  1  0.74763182  0.58488434  0.19962599  1
  Se  Se256  1  0.75421056  0.57557959  0.68803143  1
  Se  Se257  1  0.75822158  0.91210896  0.18725089  1
  Se  Se258  1  0.76054969  0.90330737  0.69139421  1
