# generated using pymatgen
data_In86Cu29Se144
_symmetry_space_group_name_H-M   'P 1'
_cell_length_a   17.57554805
_cell_length_b   17.57447523
_cell_length_c   23.43633500
_cell_angle_alpha   89.97045616
_cell_angle_beta   89.97443147
_cell_angle_gamma   89.99549109
_symmetry_Int_Tables_number   1
_chemical_formula_structural   In86Cu29Se144
_chemical_formula_sum   'In86 Cu29 Se144'
_cell_volume   7239.03767977
_cell_formula_units_Z   1
loop_
 _symmetry_equiv_pos_site_id
 _symmetry_equiv_pos_as_xyz
  1  'x, y, z'
loop_
 _atom_site_type_symbol
 _atom_site_label
 _atom_site_symmetry_multiplicity
 _atom_site_fract_x
 _atom_site_fract_y
 _atom_site_fract_z
 _atom_site_occupancy
  In  In0  1  0.00280423  0.15902776  0.13957102  1
  In  In1  1  0.00986368  0.17949707  0.61579486  1
  In  In2  1  -0.01368392  0.50465583  0.12515790  1
  In  In3  1  0.01220658  0.49367772  0.63776159  1
  In  In4  1  0.00703444  0.84153692  0.12100079  1
  In  In5  1  -0.00016559  0.83157532  0.62155571  1
  In  In6  1  0.32050599  0.17977099  0.12058861  1
  In  In7  1  0.33819264  0.17174119  0.61397762  1
  In  In8  1  0.35629913  0.50143782  0.11609288  1
  In  In9  1  0.33198042  0.49942207  0.61820957  1
  In  In10  1  0.32460007  0.81999773  0.11694359  1
  In  In11  1  0.32814351  0.84759997  0.62018289  1
  In  In12  1  0.68547579  0.15948318  0.14828013  1
  In  In13  1  0.65771674  0.15410906  0.61358496  1
  In  In14  1  0.66905167  0.50174891  0.13095991  1
  In  In15  1  0.65643675  0.51392955  0.61460407  1
  In  In16  1  0.66578937  0.83239477  0.12331880  1
  In  In17  1  0.68277061  0.83377834  0.62148241  1
  In  In18  1  0.15228458  0.01257227  0.38645080  1
  In  In19  1  0.16699741  -0.00477986  0.88337904  1
  In  In20  1  0.16126577  0.33245553  0.37771735  1
  In  In21  1  0.14917295  0.33923589  0.87567622  1
  In  In22  1  0.17079709  0.65737314  0.37891721  1
  In  In23  1  0.16773889  0.67558364  0.87402420  1
  In  In24  1  0.51244464  -0.00294913  0.37413491  1
  In  In25  1  0.49543675  -0.00933298  0.87488062  1
  In  In26  1  0.50340847  0.32373049  0.38009391  1
  In  In27  1  0.51040647  0.33661689  0.87946483  1
  In  In28  1  0.49383552  0.66183545  0.36753588  1
  In  In29  1  0.49323741  0.66499420  0.89048928  1
  In  In30  1  0.83123553  0.00041396  0.37007832  1
  In  In31  1  0.82154229  0.00028374  0.87494112  1
  In  In32  1  0.81821347  0.31103793  0.35603648  1
  In  In33  1  0.84422760  0.33027723  0.87442480  1
  In  In34  1  0.82898104  0.67981145  0.37575681  1
  In  In35  1  0.83744704  0.65939045  0.88385756  1
  In  In36  1  -0.00295780  0.16736951  0.37343806  1
  In  In37  1  0.00064210  0.18053233  0.87165828  1
  In  In38  1  0.01426135  0.49043643  0.37678985  1
  In  In39  1  -0.00644451  0.48955135  0.86839760  1
  In  In40  1  -0.01690311  0.84096525  0.37998278  1
  In  In41  1  0.00927070  0.82269871  0.88249728  1
  In  In42  1  0.32745136  0.16477083  0.39155098  1
  In  In43  1  0.33119361  0.15221501  0.87633588  1
  In  In44  1  0.32381510  0.50676528  0.37703022  1
  In  In45  1  0.33489382  0.51125342  0.87995325  1
  In  In46  1  0.33655168  0.81954945  0.37200052  1
  In  In47  1  0.33303626  0.82611903  0.89176779  1
  In  In48  1  0.66810468  0.16218353  0.37471979  1
  In  In49  1  0.67513167  0.16559106  0.86971117  1
  In  In50  1  0.65856546  0.49594549  0.37074737  1
  In  In51  1  0.65652434  0.50367148  0.88859771  1
  In  In52  1  0.67081316  0.84237120  0.36515854  1
  In  In53  1  0.66276363  0.83549212  0.88312348  1
  In  In54  1  0.16015885  -0.00302033  0.12559481  1
  In  In55  1  0.17836544  0.00328035  0.60396996  1
  In  In56  1  0.17546839  0.31728387  0.12247499  1
  In  In57  1  0.16271515  0.33578664  0.62203093  1
  In  In58  1  0.16604857  0.68025500  0.12501942  1
  In  In59  1  0.15630400  0.65808762  0.61733041  1
  In  In60  1  0.51523448  -0.00144056  0.12802624  1
  In  In61  1  0.50930084  0.02243502  0.62259359  1
  In  In62  1  0.50733799  0.34409198  0.12421556  1
  In  In63  1  0.50039804  0.33355165  0.61565542  1
  In  In64  1  0.50011800  0.66823059  0.12491354  1
  In  In65  1  0.51403324  0.65554645  0.61798365  1
  In  In66  1  0.84408006  -0.00305876  0.13599025  1
  In  In67  1  0.82361310  -0.00651691  0.61861881  1
  In  In68  1  0.82746070  0.33780563  0.13691986  1
  In  In69  1  0.84917430  0.33666927  0.62118231  1
  In  In70  1  0.82232576  0.65797509  0.11969445  1
  In  In71  1  0.83824004  0.68108296  0.62033403  1
  In  In72  1  0.33456022  0.00203902  0.74750551  1
  In  In73  1  0.83707969  0.16669752  0.00279784  1
  In  In74  1  0.33000517  0.66935829  0.75848185  1
  In  In75  1  0.33688422  0.33796724  0.24515217  1
  In  In76  1  0.83823553  0.49769214  0.49621535  1
  In  In77  1  -0.00176991  -0.00259516  0.74373846  1
  In  In78  1  0.67237878  0.66737885  0.74567033  1
  In  In79  1  0.67419639  0.33198367  0.75013301  1
  In  In80  1  0.49978932  0.17008782  0.00707211  1
  In  In81  1  0.33085555  0.32963156  0.74124496  1
  In  In82  1  0.16782842  0.50058587  -0.00254767  1
  In  In83  1  0.49636784  0.83423262  0.49494094  1
  In  In84  1  0.33605153  -0.00656247  0.25714893  1
  In  In85  1  -0.00336439  0.66881793  0.25243591  1
  Cu  Cu86  1  0.66672092  0.34019503  0.00998216  1
  Cu  Cu87  1  0.67017717  0.32975090  0.49149650  1
  Cu  Cu88  1  -0.00550334  0.66873401  0.00232555  1
  Cu  Cu89  1  0.83395695  0.16504226  0.74601679  1
  Cu  Cu90  1  0.66680526  -0.00355967  0.00128630  1
  Cu  Cu91  1  0.49977568  0.49993159  0.75141076  1
  Cu  Cu92  1  0.33105371  0.66617152  0.49740249  1
  Cu  Cu93  1  0.66514183  0.66744177  0.00727219  1
  Cu  Cu94  1  0.83360057  0.50042314  0.25095558  1
  Cu  Cu95  1  0.83869822  0.50274424  0.75401582  1
  Cu  Cu96  1  0.33231031  0.34213525  0.49928863  1
  Cu  Cu97  1  0.16412478  0.16538249  0.25515617  1
  Cu  Cu98  1  0.15978487  0.83819690  0.24947467  1
  Cu  Cu99  1  0.50650282  0.16848788  0.25480751  1
  Cu  Cu100  1  0.50898032  0.84127403  0.75484792  1
  Cu  Cu101  1  0.50406922  0.50288471  0.24784715  1
  Cu  Cu102  1  0.50153717  0.82745403  0.24715434  1
  Cu  Cu103  1  0.00205383  0.00274229  0.00649218  1
  Cu  Cu104  1  0.16604844  0.83307139  0.75040970  1
  Cu  Cu105  1  -0.01041790  -0.00331636  0.49923138  1
  Cu  Cu106  1  0.00114738  0.32916266  0.49665916  1
  Cu  Cu107  1  0.16215613  0.17064268  0.74592278  1
  Cu  Cu108  1  -0.00306491  0.33548682  -0.00067333  1
  Cu  Cu109  1  0.00144075  0.66852714  0.49800603  1
  Cu  Cu110  1  0.82971493  0.83334027  0.24773321  1
  Cu  Cu111  1  0.17383245  0.50222721  0.25290070  1
  Cu  Cu112  1  0.32806653  -0.00277540  0.00360729  1
  Cu  Cu113  1  0.83651404  0.83372337  0.74754225  1
  Cu  Cu114  1  0.67169903  0.00004960  0.49219715  1
  Se  Se115  1  0.08063843  0.08878270  0.06056537  1
  Se  Se116  1  0.07627731  0.08106442  0.54976167  1
  Se  Se117  1  0.07801053  0.41348657  0.06188594  1
  Se  Se118  1  0.07560824  0.41739871  0.55465216  1
  Se  Se119  1  0.08149540  0.75139656  0.05202425  1
  Se  Se120  1  0.08496094  0.75330868  0.55118828  1
  Se  Se121  1  0.40840614  0.07585893  0.06563487  1
  Se  Se122  1  0.40416573  0.06731164  0.55516556  1
  Se  Se123  1  0.40306822  0.38875318  0.05573385  1
  Se  Se124  1  0.42043434  0.42268104  0.55093227  1
  Se  Se125  1  0.42221185  0.75188773  0.05420673  1
  Se  Se126  1  0.41141839  0.74273267  0.56118677  1
  Se  Se127  1  0.74508281  0.07851574  0.06178156  1
  Se  Se128  1  0.75389979  0.08390222  0.54745033  1
  Se  Se129  1  0.75522416  0.41923583  0.06152951  1
  Se  Se130  1  0.74282428  0.41032103  0.55826860  1
  Se  Se131  1  0.75239976  0.75384526  0.05325545  1
  Se  Se132  1  0.73511872  0.73281301  0.55350091  1
  Se  Se133  1  0.24546334  0.24739347  0.04192096  1
  Se  Se134  1  0.24959671  0.25752411  0.55369350  1
  Se  Se135  1  0.25343562  0.58791913  0.06157491  1
  Se  Se136  1  0.24804485  0.58188493  0.55132323  1
  Se  Se137  1  0.24300516  0.91516303  0.05689522  1
  Se  Se138  1  0.24679728  0.90535827  0.54115331  1
  Se  Se139  1  0.60118255  0.24576903  0.06902069  1
  Se  Se140  1  0.58456777  0.25040495  0.54928434  1
  Se  Se141  1  0.58475532  0.57956409  0.05963843  1
  Se  Se142  1  0.57801752  0.58110386  0.53758790  1
  Se  Se143  1  0.58063111  0.91424605  0.05225929  1
  Se  Se144  1  0.59036376  0.92154131  0.55637325  1
  Se  Se145  1  0.92199739  0.25633378  0.06504822  1
  Se  Se146  1  0.91336442  0.24753988  0.54752734  1
  Se  Se147  1  0.91115769  0.58119114  0.05023503  1
  Se  Se148  1  0.92573616  0.58443260  0.56096554  1
  Se  Se149  1  0.91447222  0.92103791  0.05653482  1
  Se  Se150  1  0.91128310  0.91028278  0.55442246  1
  Se  Se151  1  0.08551927  0.24339894  0.44579918  1
  Se  Se152  1  0.08063984  0.24972697  0.94851076  1
  Se  Se153  1  0.08298811  0.58024762  0.44798563  1
  Se  Se154  1  0.07244300  0.58737568  0.93887877  1
  Se  Se155  1  0.07575389  0.91405088  0.44721974  1
  Se  Se156  1  0.08146014  0.91587469  0.95041017  1
  Se  Se157  1  0.41533136  0.25201891  0.45142613  1
  Se  Se158  1  0.41291745  0.25052022  0.93865442  1
  Se  Se159  1  0.41507673  0.58509788  0.44275438  1
  Se  Se160  1  0.41915430  0.57365821  0.95516071  1
  Se  Se161  1  0.40718235  0.92444436  0.43551172  1
  Se  Se162  1  0.41709834  0.91907612  0.95080929  1
  Se  Se163  1  0.75495900  0.24511608  0.44278798  1
  Se  Se164  1  0.74191616  0.25950490  0.94467716  1
  Se  Se165  1  0.74518472  0.58534349  0.43888438  1
  Se  Se166  1  0.74676908  0.58352783  0.95115061  1
  Se  Se167  1  0.75267578  0.91258452  0.44127002  1
  Se  Se168  1  0.75367053  0.91552882  0.94917208  1
  Se  Se169  1  0.24458362  0.08099360  0.45510755  1
  Se  Se170  1  0.24699981  0.08237919  0.95012431  1
  Se  Se171  1  0.24499852  0.41866222  0.44372980  1
  Se  Se172  1  0.25536276  0.40721936  0.93807054  1
  Se  Se173  1  0.24879594  0.74953497  0.44436056  1
  Se  Se174  1  0.24793858  0.73950895  0.95144989  1
  Se  Se175  1  0.58158202  0.08420631  0.44667310  1
  Se  Se176  1  0.58964917  0.08206208  0.94210291  1
  Se  Se177  1  0.58324409  0.41504592  0.44498659  1
  Se  Se178  1  0.57736409  0.41707577  0.95688300  1
  Se  Se179  1  0.58528633  0.75003279  0.43210656  1
  Se  Se180  1  0.58278800  0.74994479  0.95081403  1
  Se  Se181  1  0.91380740  0.08179207  0.44098532  1
  Se  Se182  1  0.92585072  0.07795616  0.93831280  1
  Se  Se183  1  0.91740876  0.40276461  0.43388261  1
  Se  Se184  1  0.91318174  0.41816594  0.94647191  1
  Se  Se185  1  0.91141320  0.75004606  0.45063638  1
  Se  Se186  1  0.91217480  0.75423344  0.94894342  1
  Se  Se187  1  0.25277069  0.24436405  0.30927548  1
  Se  Se188  1  0.24527071  0.24296814  0.80943499  1
  Se  Se189  1  0.25417890  0.59073409  0.30118675  1
  Se  Se190  1  0.23714702  0.57177651  0.80737741  1
  Se  Se191  1  0.23784424  0.91283624  0.31601363  1
  Se  Se192  1  0.25008473  0.90785133  0.81134401  1
  Se  Se193  1  0.58784250  0.25355678  0.30676631  1
  Se  Se194  1  0.57671032  0.24443827  0.80558895  1
  Se  Se195  1  0.58694146  0.58734470  0.30071670  1
  Se  Se196  1  0.57761967  0.58424100  0.80997942  1
  Se  Se197  1  0.58075827  0.91792362  0.29668733  1
  Se  Se198  1  0.59216643  0.92152955  0.80843491  1
  Se  Se199  1  0.94015990  0.26943500  0.30491803  1
  Se  Se200  1  0.91541400  0.25066209  0.79813808  1
  Se  Se201  1  0.91280977  0.57636015  0.31555488  1
  Se  Se202  1  0.91748636  0.58928113  0.80700240  1
  Se  Se203  1  0.91514105  0.91578142  0.30006185  1
  Se  Se204  1  0.91510517  0.91145630  0.81158606  1
  Se  Se205  1  0.07991355  0.07994059  0.30455140  1
  Se  Se206  1  0.08935220  0.08448339  0.80764236  1
  Se  Se207  1  0.09081018  0.41467123  0.30065512  1
  Se  Se208  1  0.07836640  0.41241993  0.79885515  1
  Se  Se209  1  0.08486081  0.75646169  0.31429065  1
  Se  Se210  1  0.08203987  0.75068216  0.80242360  1
  Se  Se211  1  0.41974467  0.09419931  0.31335067  1
  Se  Se212  1  0.42901274  0.09125290  0.80413301  1
  Se  Se213  1  0.42305299  0.42345334  0.31054113  1
  Se  Se214  1  0.41937121  0.41911214  0.80894449  1
  Se  Se215  1  0.41371903  0.74548162  0.29648319  1
  Se  Se216  1  0.42736277  0.76057789  0.81299810  1
  Se  Se217  1  0.74419890  0.07931327  0.30311151  1
  Se  Se218  1  0.75157728  0.08212649  0.79882550  1
  Se  Se219  1  0.74653075  0.41837165  0.30210278  1
  Se  Se220  1  0.75184985  0.42884930  0.81452989  1
  Se  Se221  1  0.74756544  0.74789195  0.29921905  1
  Se  Se222  1  0.75648601  0.75517485  0.81061548  1
  Se  Se223  1  0.24923741  0.08809116  0.19564010  1
  Se  Se224  1  0.24242722  0.09042638  0.68680438  1
  Se  Se225  1  0.24729912  0.42671123  0.18409406  1
  Se  Se226  1  0.24211101  0.42939934  0.69227110  1
  Se  Se227  1  0.24625742  0.75541396  0.19918965  1
  Se  Se228  1  0.24879221  0.75587329  0.68930844  1
  Se  Se229  1  0.58536799  0.07906479  0.20380974  1
  Se  Se230  1  0.59576442  0.08263565  0.69777383  1
  Se  Se231  1  0.58746250  0.41463092  0.19988446  1
  Se  Se232  1  0.58100263  0.42373969  0.69020437  1
  Se  Se233  1  0.58753284  0.74666496  0.19398306  1
  Se  Se234  1  0.57685165  0.75721038  0.68928640  1
  Se  Se235  1  0.89790739  0.10068821  0.20199384  1
  Se  Se236  1  0.91416183  0.08959445  0.68232726  1
  Se  Se237  1  0.92106444  0.41934310  0.20024935  1
  Se  Se238  1  0.91634696  0.41499954  0.69988755  1
  Se  Se239  1  0.91126360  0.75389262  0.18625791  1
  Se  Se240  1  0.92074492  0.75164951  0.69556696  1
  Se  Se241  1  0.08956561  0.25268015  0.19793381  1
  Se  Se242  1  0.08076428  0.25573527  0.69454955  1
  Se  Se243  1  0.08913459  0.57985389  0.19155816  1
  Se  Se244  1  0.08048154  0.59566863  0.69827292  1
  Se  Se245  1  0.07627232  0.92227597  0.19883218  1
  Se  Se246  1  0.09863327  0.91757298  0.68562935  1
  Se  Se247  1  0.42613182  0.24028308  0.18941501  1
  Se  Se248  1  0.42965081  0.24093247  0.68975164  1
  Se  Se249  1  0.41728319  0.58307470  0.19546705  1
  Se  Se250  1  0.42107830  0.58240286  0.69225440  1
  Se  Se251  1  0.41920171  0.90970779  0.18810839  1
  Se  Se252  1  0.42901177  0.91320440  0.68943494  1
  Se  Se253  1  0.75731952  0.25392046  0.21070217  1
  Se  Se254  1  0.75657960  0.24572537  0.68332802  1
  Se  Se255  1  0.75097821  0.58698568  0.20031229  1
  Se  Se256  1  0.75934357  0.57303200  0.68648265  1
  Se  Se257  1  0.74629628  0.91658873  0.19399528  1
  Se  Se258  1  0.75098126  0.91693420  0.69751842  1
