# generated using pymatgen
data_In86Cu29Se144
_symmetry_space_group_name_H-M   'P 1'
_cell_length_a   17.58456843
_cell_length_b   17.58955342
_cell_length_c   23.44935840
_cell_angle_alpha   90.00496026
_cell_angle_beta   89.96016261
_cell_angle_gamma   90.00507601
_symmetry_Int_Tables_number   1
_chemical_formula_structural   In86Cu29Se144
_chemical_formula_sum   'In86 Cu29 Se144'
_cell_volume   7252.99508842
_cell_formula_units_Z   1
loop_
 _symmetry_equiv_pos_site_id
 _symmetry_equiv_pos_as_xyz
  1  'x, y, z'
loop_
 _atom_site_type_symbol
 _atom_site_label
 _atom_site_symmetry_multiplicity
 _atom_site_fract_x
 _atom_site_fract_y
 _atom_site_fract_z
 _atom_site_occupancy
  In  In0  1  0.01513344  0.15626449  0.13909498  1
  In  In1  1  0.01031989  0.17964861  0.62359790  1
  In  In2  1  -0.00656341  0.50373668  0.12084769  1
  In  In3  1  0.00572468  0.49732749  0.62166980  1
  In  In4  1  0.01050197  0.83305622  0.12292182  1
  In  In5  1  0.01178143  0.81918582  0.63221677  1
  In  In6  1  0.33119338  0.17920656  0.12849370  1
  In  In7  1  0.33963367  0.15727774  0.62890932  1
  In  In8  1  0.33289914  0.49768544  0.12354067  1
  In  In9  1  0.31800322  0.51187788  0.63455312  1
  In  In10  1  0.33177860  0.82720798  0.11958408  1
  In  In11  1  0.33106128  0.83279246  0.62560850  1
  In  In12  1  0.65530220  0.15955849  0.12685020  1
  In  In13  1  0.65935251  0.18198670  0.62695708  1
  In  In14  1  0.67173396  0.50632708  0.11707078  1
  In  In15  1  0.66659445  0.50162979  0.62844358  1
  In  In16  1  0.66126104  0.83852017  0.12526675  1
  In  In17  1  0.65144662  0.83252332  0.63124346  1
  In  In18  1  0.15564138  0.00358764  0.37324810  1
  In  In19  1  0.18409538  -0.01848789  0.89062651  1
  In  In20  1  0.17234452  0.33673125  0.37162186  1
  In  In21  1  0.16146453  0.33134263  0.86986584  1
  In  In22  1  0.17982421  0.65692537  0.38086798  1
  In  In23  1  0.17885073  0.68446971  0.86109786  1
  In  In24  1  0.50817064  -0.01335142  0.37830505  1
  In  In25  1  0.47582743  -0.01076367  0.86931573  1
  In  In26  1  0.48122149  0.33608747  0.37765141  1
  In  In27  1  0.50755859  0.33982446  0.86749002  1
  In  In28  1  0.49327822  0.68267399  0.37896637  1
  In  In29  1  0.48647288  0.66289509  0.87755314  1
  In  In30  1  0.83869242  0.00657314  0.36627094  1
  In  In31  1  0.82961904  -0.00521258  0.87785100  1
  In  In32  1  0.84547122  0.33420880  0.37902736  1
  In  In33  1  0.84290078  0.34816693  0.86763532  1
  In  In34  1  0.83218988  0.65167927  0.38334478  1
  In  In35  1  0.82487910  0.65242980  0.86894785  1
  In  In36  1  0.01517152  0.17402680  0.35906920  1
  In  In37  1  0.00862800  0.18164451  0.87185939  1
  In  In38  1  0.01538152  0.48741937  0.39123880  1
  In  In39  1  -0.00416085  0.49704838  0.87067400  1
  In  In40  1  0.00569601  0.84486182  0.37289064  1
  In  In41  1  0.01934882  0.82707822  0.87396127  1
  In  In42  1  0.32938715  0.18181058  0.37583062  1
  In  In43  1  0.32173612  0.15811622  0.87269760  1
  In  In44  1  0.32457148  0.49293044  0.36913718  1
  In  In45  1  0.34816125  0.51336203  0.86705588  1
  In  In46  1  0.34597266  0.81894194  0.37850883  1
  In  In47  1  0.33060515  0.82423057  0.87582781  1
  In  In48  1  0.66688357  0.15089568  0.37584697  1
  In  In49  1  0.65009237  0.17109698  0.87358914  1
  In  In50  1  0.67581950  0.51123892  0.38275446  1
  In  In51  1  0.66367135  0.50074845  0.87619056  1
  In  In52  1  0.65276589  0.83483109  0.37500792  1
  In  In53  1  0.64794381  0.80837838  0.86305955  1
  In  In54  1  0.16538823  -0.00367976  0.12333598  1
  In  In55  1  0.18476778  -0.00359781  0.62657859  1
  In  In56  1  0.17182897  0.32784142  0.13022564  1
  In  In57  1  0.15520290  0.34707891  0.63348769  1
  In  In58  1  0.16941158  0.68257610  0.11219628  1
  In  In59  1  0.17282757  0.66598655  0.62588990  1
  In  In60  1  0.50757091  -0.00616619  0.12895201  1
  In  In61  1  0.48275809  -0.01916452  0.61175631  1
  In  In62  1  0.48753218  0.33195288  0.12559106  1
  In  In63  1  0.50088659  0.33247069  0.62878143  1
  In  In64  1  0.49062065  0.66177520  0.11420280  1
  In  In65  1  0.47282700  0.69584639  0.65249730  1
  In  In66  1  0.82814001  0.00511274  0.13169289  1
  In  In67  1  0.83691077  -0.00116725  0.62175898  1
  In  In68  1  0.84445599  0.34838157  0.12255391  1
  In  In69  1  0.82980544  0.34374898  0.62593655  1
  In  In70  1  0.84785468  0.65581527  0.11524256  1
  In  In71  1  0.84620045  0.65323806  0.63788073  1
  In  In72  1  0.17191867  0.50864584  -0.00965715  1
  In  In73  1  0.16828859  0.17040863  0.49623666  1
  In  In74  1  0.66474629  0.32837761  0.24689768  1
  In  In75  1  0.49268911  0.16525265  0.00363367  1
  In  In76  1  0.83408375  0.16804799  0.50237270  1
  In  In77  1  0.00552018  0.66626057  0.24179829  1
  In  In78  1  0.50216872  0.50452773  0.50917456  1
  In  In79  1  0.32834343  0.00072284  0.24848523  1
  In  In80  1  0.66330735  0.66806430  0.25439467  1
  In  In81  1  0.83272469  0.82743791  0.49784615  1
  In  In82  1  0.00922260  0.00382101  0.74396547  1
  In  In83  1  0.83826650  0.17160468  -0.00317680  1
  In  In84  1  0.83079940  0.82803675  -0.00191898  1
  In  In85  1  0.66329996  0.00507924  0.75344430  1
  Cu  Cu86  1  0.16946323  0.16893833  0.75056006  1
  Cu  Cu87  1  0.50629379  0.49647673  0.75224666  1
  Cu  Cu88  1  0.00713005  0.00202755  0.00335311  1
  Cu  Cu89  1  0.65676551  -0.00155248  0.49828947  1
  Cu  Cu90  1  0.17318232  0.49938565  0.25125706  1
  Cu  Cu91  1  0.83092330  0.49679010  0.74934808  1
  Cu  Cu92  1  0.16982411  0.83332243  0.24573247  1
  Cu  Cu93  1  0.16337246  0.50097108  0.75190928  1
  Cu  Cu94  1  0.65979095  -0.00812776  -0.00119108  1
  Cu  Cu95  1  0.00380173  -0.00198467  0.49489900  1
  Cu  Cu96  1  0.49852317  0.17028927  0.74737285  1
  Cu  Cu97  1  0.49738877  0.16200337  0.25013873  1
  Cu  Cu98  1  0.83358158  0.18031990  0.74907342  1
  Cu  Cu99  1  0.00769297  0.33455877  -0.00350163  1
  Cu  Cu100  1  0.84096679  0.49765325  0.25105128  1
  Cu  Cu101  1  0.00709905  0.66502117  0.50856397  1
  Cu  Cu102  1  0.66393799  0.66821590  0.51213291  1
  Cu  Cu103  1  0.32633755  0.33546075  0.50187055  1
  Cu  Cu104  1  0.65906150  0.66247385  -0.00707497  1
  Cu  Cu105  1  0.34019022  -0.00528329  0.50195817  1
  Cu  Cu106  1  0.83509267  0.16865157  0.25141630  1
  Cu  Cu107  1  0.32598773  -0.00627088  -0.00055072  1
  Cu  Cu108  1  0.83708114  0.83028205  0.75340070  1
  Cu  Cu109  1  0.33466730  0.66643560  0.50747117  1
  Cu  Cu110  1  0.33272058  0.33617233  0.00067678  1
  Cu  Cu111  1  0.49246978  0.50299823  0.24784283  1
  Cu  Cu112  1  0.66298297  0.33505323  0.50638751  1
  Cu  Cu113  1  0.82806150  0.83845921  0.25085609  1
  Cu  Cu114  1  0.67099876  0.34187551  -0.00379690  1
  Se  Se115  1  0.08594035  0.08774761  0.05689984  1
  Se  Se116  1  0.08083626  0.07607996  0.55951065  1
  Se  Se117  1  0.08790496  0.41695279  0.05607543  1
  Se  Se118  1  0.08638701  0.41383713  0.55203680  1
  Se  Se119  1  0.05423042  0.72946115  0.05419150  1
  Se  Se120  1  0.09126082  0.75217476  0.55502469  1
  Se  Se121  1  0.40486918  0.07280655  0.06423910  1
  Se  Se122  1  0.41871234  0.08709455  0.55061913  1
  Se  Se123  1  0.41794840  0.41727668  0.05291392  1
  Se  Se124  1  0.40454382  0.41636071  0.56368308  1
  Se  Se125  1  0.42848766  0.76440687  0.05062095  1
  Se  Se126  1  0.42060700  0.75039622  0.55739186  1
  Se  Se127  1  0.74038952  0.07805136  0.05224457  1
  Se  Se128  1  0.73856911  0.07617465  0.55913770  1
  Se  Se129  1  0.75555120  0.41921351  0.05260110  1
  Se  Se130  1  0.74564498  0.42121508  0.55491157  1
  Se  Se131  1  0.73979929  0.73722173  0.05961863  1
  Se  Se132  1  0.75084851  0.74691951  0.56912879  1
  Se  Se133  1  0.25064186  0.25228660  0.05365475  1
  Se  Se134  1  0.25121032  0.25368367  0.56527268  1
  Se  Se135  1  0.26249950  0.59472788  0.05224735  1
  Se  Se136  1  0.24782034  0.57961178  0.55207741  1
  Se  Se137  1  0.24335661  0.91083358  0.05494631  1
  Se  Se138  1  0.25156405  0.91323045  0.55094696  1
  Se  Se139  1  0.59167797  0.25946561  0.05643810  1
  Se  Se140  1  0.57523265  0.25115589  0.55217323  1
  Se  Se141  1  0.58000668  0.57808624  0.05057650  1
  Se  Se142  1  0.57609915  0.60017184  0.57345494  1
  Se  Se143  1  0.57618802  0.91121811  0.05224180  1
  Se  Se144  1  0.58312459  0.90736470  0.55097789  1
  Se  Se145  1  0.92928240  0.25405715  0.05960973  1
  Se  Se146  1  0.92437697  0.26247428  0.55542548  1
  Se  Se147  1  0.92155037  0.57708552  0.04272216  1
  Se  Se148  1  0.91759510  0.58418107  0.55650293  1
  Se  Se149  1  0.91549532  0.92615255  0.05833682  1
  Se  Se150  1  0.92804362  0.91662778  0.55769517  1
  Se  Se151  1  0.07362279  0.25884669  0.44116279  1
  Se  Se152  1  0.09169470  0.24902423  0.94790481  1
  Se  Se153  1  0.09041793  0.58493467  0.45113584  1
  Se  Se154  1  0.08400496  0.59274215  0.92757153  1
  Se  Se155  1  0.09064814  0.91351712  0.44744668  1
  Se  Se156  1  0.08284443  0.91052765  0.95202247  1
  Se  Se157  1  0.41233802  0.25160385  0.45201981  1
  Se  Se158  1  0.41234265  0.25475729  0.93802520  1
  Se  Se159  1  0.41107966  0.58458726  0.44210870  1
  Se  Se160  1  0.41721146  0.57531670  0.95094584  1
  Se  Se161  1  0.42101132  0.90978100  0.44690050  1
  Se  Se162  1  0.41154274  0.91159750  0.94842895  1
  Se  Se163  1  0.73995254  0.25573618  0.44075387  1
  Se  Se164  1  0.74434361  0.25654828  0.93609539  1
  Se  Se165  1  0.74914995  0.58526655  0.46071326  1
  Se  Se166  1  0.74957610  0.57963633  0.94710982  1
  Se  Se167  1  0.74891147  0.92647070  0.43984302  1
  Se  Se168  1  0.73315766  0.91039264  0.93554023  1
  Se  Se169  1  0.25929748  0.07416413  0.44052660  1
  Se  Se170  1  0.24709780  0.08789862  0.95291916  1
  Se  Se171  1  0.24746076  0.41860210  0.44575363  1
  Se  Se172  1  0.25958984  0.41290103  0.93365267  1
  Se  Se173  1  0.25435660  0.74848300  0.44835261  1
  Se  Se174  1  0.23775903  0.75614704  0.94590878  1
  Se  Se175  1  0.57589187  0.08461212  0.44662136  1
  Se  Se176  1  0.57858677  0.07244190  0.93973349  1
  Se  Se177  1  0.58617983  0.41346289  0.44054988  1
  Se  Se178  1  0.57908248  0.41693492  0.94512013  1
  Se  Se179  1  0.58787897  0.74694124  0.44954198  1
  Se  Se180  1  0.57422624  0.74846136  0.94614340  1
  Se  Se181  1  0.92777694  0.08475982  0.43813116  1
  Se  Se182  1  0.92800216  0.07634161  0.93867596  1
  Se  Se183  1  0.89912393  0.43528975  0.44545295  1
  Se  Se184  1  0.92011533  0.41615551  0.94671392  1
  Se  Se185  1  0.93096510  0.74075972  0.44022576  1
  Se  Se186  1  0.91585972  0.74541653  0.93201431  1
  Se  Se187  1  0.23634059  0.23920570  0.30450183  1
  Se  Se188  1  0.25266008  0.25231235  0.80419026  1
  Se  Se189  1  0.25512523  0.58778867  0.30068621  1
  Se  Se190  1  0.25134229  0.58298072  0.80110393  1
  Se  Se191  1  0.24650152  0.90765836  0.31306814  1
  Se  Se192  1  0.26038756  0.92430857  0.80990621  1
  Se  Se193  1  0.57522774  0.24487769  0.31251095  1
  Se  Se194  1  0.58594772  0.25289743  0.79684172  1
  Se  Se195  1  0.57392892  0.57398440  0.31347437  1
  Se  Se196  1  0.57934649  0.58435001  0.80977542  1
  Se  Se197  1  0.58617638  0.91757537  0.30086897  1
  Se  Se198  1  0.56942536  0.90966162  0.80194164  1
  Se  Se199  1  0.91562167  0.25493029  0.30292691  1
  Se  Se200  1  0.92164594  0.25628822  0.80289130  1
  Se  Se201  1  0.92044629  0.58023835  0.30954825  1
  Se  Se202  1  0.91666086  0.58110096  0.79982118  1
  Se  Se203  1  0.91849286  0.91617775  0.30184812  1
  Se  Se204  1  0.91627752  0.91623686  0.80820262  1
  Se  Se205  1  0.08027123  0.07392754  0.29641609  1
  Se  Se206  1  0.09415323  0.08484729  0.81306816  1
  Se  Se207  1  0.08543739  0.42331246  0.30666711  1
  Se  Se208  1  0.07923955  0.41478335  0.80199202  1
  Se  Se209  1  0.09182442  0.75144177  0.30861021  1
  Se  Se210  1  0.08097538  0.75078904  0.79377767  1
  Se  Se211  1  0.41826875  0.08562104  0.31417658  1
  Se  Se212  1  0.41584609  0.08950939  0.80300246  1
  Se  Se213  1  0.41284355  0.41457958  0.30021421  1
  Se  Se214  1  0.41574941  0.41407525  0.80100154  1
  Se  Se215  1  0.41810443  0.74674296  0.29927559  1
  Se  Se216  1  0.41291276  0.74589256  0.80432722  1
  Se  Se217  1  0.74842736  0.08349460  0.29928184  1
  Se  Se218  1  0.75958557  0.09666257  0.81090726  1
  Se  Se219  1  0.75126757  0.42247881  0.30757069  1
  Se  Se220  1  0.74445912  0.41730239  0.80417228  1
  Se  Se221  1  0.76022842  0.75362225  0.31548241  1
  Se  Se222  1  0.75108058  0.74536679  0.80111533  1
  Se  Se223  1  0.23932565  0.09404493  0.19262772  1
  Se  Se224  1  0.25216404  0.08281527  0.69979799  1
  Se  Se225  1  0.25504284  0.41513402  0.19520955  1
  Se  Se226  1  0.24969280  0.41502614  0.70171777  1
  Se  Se227  1  0.24871745  0.74853120  0.19166605  1
  Se  Se228  1  0.27099586  0.73073212  0.69247003  1
  Se  Se229  1  0.58339665  0.07894455  0.20090574  1
  Se  Se230  1  0.57459875  0.08519043  0.68621358  1
  Se  Se231  1  0.57948032  0.42619580  0.18970556  1
  Se  Se232  1  0.58659208  0.41418242  0.69551290  1
  Se  Se233  1  0.57572152  0.74872572  0.18948265  1
  Se  Se234  1  0.59159320  0.74566522  0.70580351  1
  Se  Se235  1  0.91600241  0.08107102  0.19930355  1
  Se  Se236  1  0.90993491  0.09636247  0.68907216  1
  Se  Se237  1  0.92670912  0.41871041  0.19781910  1
  Se  Se238  1  0.91855348  0.41937340  0.69373294  1
  Se  Se239  1  0.90473938  0.75698830  0.18918253  1
  Se  Se240  1  0.92235037  0.74851789  0.70129419  1
  Se  Se241  1  0.06728817  0.27020543  0.19455344  1
  Se  Se242  1  0.08188327  0.25241437  0.70179635  1
  Se  Se243  1  0.09854219  0.57662635  0.18422936  1
  Se  Se244  1  0.08465580  0.58238504  0.69172404  1
  Se  Se245  1  0.08342202  0.91611649  0.19577386  1
  Se  Se246  1  0.10220091  0.90683473  0.69567480  1
  Se  Se247  1  0.41693355  0.25112342  0.20134307  1
  Se  Se248  1  0.41265389  0.25223620  0.69503872  1
  Se  Se249  1  0.41449310  0.58513685  0.19088916  1
  Se  Se250  1  0.41755025  0.57620066  0.70113695  1
  Se  Se251  1  0.41884285  0.90825676  0.19345294  1
  Se  Se252  1  0.40950522  0.92227762  0.69334823  1
  Se  Se253  1  0.75883857  0.24417797  0.18409149  1
  Se  Se254  1  0.74826917  0.25698625  0.69374541  1
  Se  Se255  1  0.76062504  0.58103451  0.19357296  1
  Se  Se256  1  0.74593728  0.58365666  0.70022673  1
  Se  Se257  1  0.74425807  0.91756361  0.19531749  1
  Se  Se258  1  0.75910168  0.91412686  0.69397744  1
