# generated using pymatgen
data_In86Cu29Se144
_symmetry_space_group_name_H-M   'P 1'
_cell_length_a   17.57409700
_cell_length_b   17.57466330
_cell_length_c   23.42559710
_cell_angle_alpha   89.97691885
_cell_angle_beta   89.98729198
_cell_angle_gamma   89.99802138
_symmetry_Int_Tables_number   1
_chemical_formula_structural   In86Cu29Se144
_chemical_formula_sum   'In86 Cu29 Se144'
_cell_volume   7235.20191822
_cell_formula_units_Z   1
loop_
 _symmetry_equiv_pos_site_id
 _symmetry_equiv_pos_as_xyz
  1  'x, y, z'
loop_
 _atom_site_type_symbol
 _atom_site_label
 _atom_site_symmetry_multiplicity
 _atom_site_fract_x
 _atom_site_fract_y
 _atom_site_fract_z
 _atom_site_occupancy
  In  In0  1  0.00266674  0.16408915  0.11627850  1
  In  In1  1  -0.00286060  0.16612543  0.62805345  1
  In  In2  1  -0.00145447  0.47414861  0.12535516  1
  In  In3  1  -0.00948845  0.48869303  0.63389277  1
  In  In4  1  0.00538311  0.84616807  0.11256389  1
  In  In5  1  0.01945166  0.83868543  0.62804829  1
  In  In6  1  0.32714408  0.18704612  0.12349037  1
  In  In7  1  0.32390936  0.17653453  0.61988878  1
  In  In8  1  0.33548806  0.49502189  0.11696407  1
  In  In9  1  0.34594507  0.50491376  0.62841494  1
  In  In10  1  0.33191459  0.82737237  0.12485047  1
  In  In11  1  0.32673060  0.82604194  0.62570755  1
  In  In12  1  0.66869705  0.14973389  0.12379020  1
  In  In13  1  0.67569926  0.15893233  0.62830153  1
  In  In14  1  0.66640866  0.50971612  0.11933542  1
  In  In15  1  0.68374414  0.49109168  0.65033971  1
  In  In16  1  0.67192930  0.83913816  0.11417221  1
  In  In17  1  0.66024644  0.84019524  0.62925497  1
  In  In18  1  0.15849891  0.01093445  0.37930377  1
  In  In19  1  0.14118108  0.01891286  0.90014012  1
  In  In20  1  0.15291636  0.31865190  0.36247242  1
  In  In21  1  0.15925028  0.34587748  0.88370500  1
  In  In22  1  0.18239136  0.66659412  0.37174995  1
  In  In23  1  0.16954427  0.66570057  0.87936730  1
  In  In24  1  0.49976407  -0.01810588  0.36961766  1
  In  In25  1  0.49992925  -0.01364325  0.87744487  1
  In  In26  1  0.49828078  0.34364513  0.37091714  1
  In  In27  1  0.52046494  0.33645128  0.88156858  1
  In  In28  1  0.49715248  0.68038725  0.37288462  1
  In  In29  1  0.49729165  0.66987367  0.87483953  1
  In  In30  1  0.84644514  0.00725945  0.36494420  1
  In  In31  1  0.83678668  0.00556207  0.87729020  1
  In  In32  1  0.82727050  0.31262084  0.37533334  1
  In  In33  1  0.81788960  0.32206037  0.86911290  1
  In  In34  1  0.82941177  0.66382127  0.37381709  1
  In  In35  1  0.83413864  0.67866793  0.87266050  1
  In  In36  1  -0.00144344  0.16388981  0.37331918  1
  In  In37  1  -0.00832475  0.16136151  0.87680237  1
  In  In38  1  0.01139968  0.49551608  0.36714940  1
  In  In39  1  0.01377408  0.50072861  0.87551703  1
  In  In40  1  -0.00281633  0.85353067  0.37341235  1
  In  In41  1  -0.01868352  0.85428020  0.89874464  1
  In  In42  1  0.31414214  0.15978155  0.37021285  1
  In  In43  1  0.32661627  0.16454653  0.88140903  1
  In  In44  1  0.33595456  0.50464145  0.36046903  1
  In  In45  1  0.32071150  0.50731856  0.88659507  1
  In  In46  1  0.34275693  0.82570304  0.37660771  1
  In  In47  1  0.33716388  0.83230961  0.88252205  1
  In  In48  1  0.68929016  0.16733046  0.37727653  1
  In  In49  1  0.68252046  0.17830267  0.87005315  1
  In  In50  1  0.65994615  0.49236372  0.37700508  1
  In  In51  1  0.65407941  0.48639779  0.86945648  1
  In  In52  1  0.64871112  0.82882777  0.37530865  1
  In  In53  1  0.66540308  0.83632210  0.87229531  1
  In  In54  1  0.15004892  -0.00488228  0.11257688  1
  In  In55  1  0.16045357  -0.00210442  0.62563030  1
  In  In56  1  0.16731824  0.32665057  0.11455043  1
  In  In57  1  0.15875467  0.31860854  0.62367660  1
  In  In58  1  0.18063692  0.67603841  0.12089181  1
  In  In59  1  0.16564503  0.68629542  0.62975282  1
  In  In60  1  0.51471181  -0.00297973  0.12705931  1
  In  In61  1  0.51668917  -0.00288836  0.62513062  1
  In  In62  1  0.48700146  0.33411382  0.11945290  1
  In  In63  1  0.50200180  0.34178713  0.62649722  1
  In  In64  1  0.49299128  0.66016958  0.11960674  1
  In  In65  1  0.49607921  0.66944913  0.63312495  1
  In  In66  1  0.83872818  -0.00061660  0.11539315  1
  In  In67  1  0.82627321  0.01092453  0.63155181  1
  In  In68  1  0.85190904  0.33897228  0.12431926  1
  In  In69  1  0.84149330  0.32765345  0.63406326  1
  In  In70  1  0.82124610  0.66767109  0.11872396  1
  In  In71  1  0.82707550  0.65667712  0.63471967  1
  In  In72  1  0.49982605  0.16581091  0.00377861  1
  In  In73  1  0.83393465  0.49237019  0.50928976  1
  In  In74  1  0.50486017  0.50049345  0.49942742  1
  In  In75  1  0.00468423  0.66892305  0.24415345  1
  In  In76  1  0.83121090  0.49818461  -0.00193423  1
  In  In77  1  0.33594604  0.33781158  0.75121909  1
  In  In78  1  0.32976999  -0.00439074  0.75716426  1
  In  In79  1  0.17034771  0.50178055  0.49555561  1
  In  In80  1  0.49593414  0.15941297  0.50197992  1
  In  In81  1  0.66765571  0.66897991  0.24236489  1
  In  In82  1  0.67137459  0.33135390  0.25327638  1
  In  In83  1  0.32792050  0.00086534  0.24437677  1
  In  In84  1  0.83268398  0.84289539  0.50212430  1
  In  In85  1  0.00248699  0.67257828  0.75273669  1
  Cu  Cu86  1  0.51145428  0.16473531  0.75212600  1
  Cu  Cu87  1  0.33410082  0.67534239  0.50206920  1
  Cu  Cu88  1  0.84174249  0.16260062  0.24539521  1
  Cu  Cu89  1  0.15779361  0.16963440  0.24462465  1
  Cu  Cu90  1  0.50017152  0.16690071  0.24294960  1
  Cu  Cu91  1  0.83474956  0.84188340  0.75522823  1
  Cu  Cu92  1  0.49819796  0.50597722  0.75532187  1
  Cu  Cu93  1  0.49486055  0.50081255  0.24351895  1
  Cu  Cu94  1  0.17078919  0.49999982  0.75630932  1
  Cu  Cu95  1  0.17071256  0.49351399  0.24076654  1
  Cu  Cu96  1  0.33634479  0.66666436  0.00091313  1
  Cu  Cu97  1  0.15539685  0.16793619  0.75444103  1
  Cu  Cu98  1  0.66919189  0.00049254  -0.00422745  1
  Cu  Cu99  1  0.66143266  0.67175076  -0.00569615  1
  Cu  Cu100  1  0.32254631  0.32781973  0.49095728  1
  Cu  Cu101  1  0.65850189  0.66404299  0.50751152  1
  Cu  Cu102  1  -0.00405390  0.32560766  0.49808529  1
  Cu  Cu103  1  0.66703932  -0.00206183  0.50036574  1
  Cu  Cu104  1  0.83186125  0.84220488  0.24115274  1
  Cu  Cu105  1  0.32720197  -0.00819292  0.49758777  1
  Cu  Cu106  1  0.00318001  0.00875120  0.49985962  1
  Cu  Cu107  1  0.50195885  0.82954280  0.75346224  1
  Cu  Cu108  1  0.16613017  0.84006150  0.24455520  1
  Cu  Cu109  1  0.33216846  -0.00365550  0.00462095  1
  Cu  Cu110  1  0.83720001  0.16252430  0.75169547  1
  Cu  Cu111  1  0.16794492  0.83719290  0.75963563  1
  Cu  Cu112  1  0.00644880  0.66173110  -0.00019946  1
  Cu  Cu113  1  0.00311807  0.67736878  0.50455830  1
  Cu  Cu114  1  -0.00058397  0.32588053  -0.00351030  1
  Se  Se115  1  0.07577708  0.08033272  0.04218966  1
  Se  Se116  1  0.08531160  0.08867903  0.55799612  1
  Se  Se117  1  0.08179858  0.41325877  0.04721490  1
  Se  Se118  1  0.07454158  0.41389294  0.55498247  1
  Se  Se119  1  0.08548261  0.74786520  0.05468875  1
  Se  Se120  1  0.09160179  0.75921524  0.55124825  1
  Se  Se121  1  0.41005192  0.07755496  0.06725635  1
  Se  Se122  1  0.40501389  0.06958716  0.56392159  1
  Se  Se123  1  0.43226430  0.42921452  0.04807928  1
  Se  Se124  1  0.40357552  0.40654740  0.55191551  1
  Se  Se125  1  0.41835332  0.75327518  0.05296236  1
  Se  Se126  1  0.42002101  0.75088256  0.55903078  1
  Se  Se127  1  0.75258744  0.08451497  0.04764033  1
  Se  Se128  1  0.75115938  0.08125349  0.55153867  1
  Se  Se129  1  0.74504104  0.40783941  0.06046898  1
  Se  Se130  1  0.74013194  0.40697771  0.56661620  1
  Se  Se131  1  0.75029919  0.75120453  0.04563962  1
  Se  Se132  1  0.74830367  0.74338253  0.56035128  1
  Se  Se133  1  0.25459514  0.25280708  0.04302071  1
  Se  Se134  1  0.23998103  0.24838617  0.54677943  1
  Se  Se135  1  0.24993889  0.58313476  0.05215439  1
  Se  Se136  1  0.25563879  0.59103953  0.56134374  1
  Se  Se137  1  0.24907817  0.91235882  0.05742432  1
  Se  Se138  1  0.24675508  0.91465886  0.55964734  1
  Se  Se139  1  0.59186628  0.25318762  0.06334167  1
  Se  Se140  1  0.58376545  0.24927753  0.56233960  1
  Se  Se141  1  0.58309801  0.58623665  0.04952970  1
  Se  Se142  1  0.59120363  0.57743789  0.57070946  1
  Se  Se143  1  0.58158509  0.91935406  0.04752109  1
  Se  Se144  1  0.58335135  0.91175918  0.54963735  1
  Se  Se145  1  0.91298269  0.24817438  0.05066278  1
  Se  Se146  1  0.91403509  0.24878901  0.55739099  1
  Se  Se147  1  0.92472985  0.58342630  0.06195855  1
  Se  Se148  1  0.92715678  0.59244428  0.56183336  1
  Se  Se149  1  0.90678132  0.90641889  0.04522766  1
  Se  Se150  1  0.92648247  0.92648970  0.56305058  1
  Se  Se151  1  0.08258799  0.24719237  0.44333583  1
  Se  Se152  1  0.08318505  0.24524258  0.94157681  1
  Se  Se153  1  0.07622835  0.59516945  0.43989559  1
  Se  Se154  1  0.09107846  0.57835612  0.94938817  1
  Se  Se155  1  0.08259894  0.91953959  0.44815213  1
  Se  Se156  1  0.10211163  0.89569272  0.95205565  1
  Se  Se157  1  0.41104336  0.25071664  0.43571775  1
  Se  Se158  1  0.41572228  0.25685638  0.94036050  1
  Se  Se159  1  0.40775202  0.58728311  0.44213063  1
  Se  Se160  1  0.41914272  0.58481265  0.94580981  1
  Se  Se161  1  0.41709178  0.91506790  0.44643149  1
  Se  Se162  1  0.41851959  0.91599015  0.95258335  1
  Se  Se163  1  0.75040604  0.24961046  0.45498365  1
  Se  Se164  1  0.75325137  0.24740743  0.95023250  1
  Se  Se165  1  0.74038809  0.58604122  0.44709606  1
  Se  Se166  1  0.74393388  0.58907741  0.93658568  1
  Se  Se167  1  0.74524683  0.92240385  0.43343389  1
  Se  Se168  1  0.75068916  0.91632330  0.94130915  1
  Se  Se169  1  0.24769313  0.08394625  0.45035327  1
  Se  Se170  1  0.25185746  0.08570331  0.95520732  1
  Se  Se171  1  0.25175960  0.41293732  0.42908483  1
  Se  Se172  1  0.25705352  0.40670580  0.95084254  1
  Se  Se173  1  0.24921704  0.75323879  0.44578463  1
  Se  Se174  1  0.25105457  0.74897865  0.94864236  1
  Se  Se175  1  0.58631827  0.07612539  0.43674295  1
  Se  Se176  1  0.58769409  0.08242206  0.93672278  1
  Se  Se177  1  0.59426246  0.39774195  0.44946163  1
  Se  Se178  1  0.58717694  0.42265426  0.95502750  1
  Se  Se179  1  0.57856713  0.74618876  0.45104135  1
  Se  Se180  1  0.57894397  0.75738234  0.94222768  1
  Se  Se181  1  0.91432478  0.08387029  0.44473563  1
  Se  Se182  1  0.92882131  0.06959333  0.95021742  1
  Se  Se183  1  0.92271767  0.41361031  0.43857717  1
  Se  Se184  1  0.92120835  0.41059742  0.93649762  1
  Se  Se185  1  0.91959652  0.74744126  0.44051172  1
  Se  Se186  1  0.91543070  0.74178061  0.95167845  1
  Se  Se187  1  0.24945513  0.24797127  0.29594092  1
  Se  Se188  1  0.24367622  0.24743101  0.80884620  1
  Se  Se189  1  0.24686861  0.58324058  0.29455178  1
  Se  Se190  1  0.25170116  0.58544342  0.80707302  1
  Se  Se191  1  0.24341227  0.91514284  0.31218629  1
  Se  Se192  1  0.23831042  0.92111534  0.82417119  1
  Se  Se193  1  0.57890972  0.23967501  0.31229184  1
  Se  Se194  1  0.58790748  0.25437939  0.80429031  1
  Se  Se195  1  0.57673939  0.57725790  0.30678670  1
  Se  Se196  1  0.58401420  0.58793045  0.80711751  1
  Se  Se197  1  0.58646144  0.91199494  0.29898487  1
  Se  Se198  1  0.58310408  0.92010292  0.80113546  1
  Se  Se199  1  0.91780242  0.24856123  0.30278447  1
  Se  Se200  1  0.91621892  0.24868362  0.80621888  1
  Se  Se201  1  0.91323338  0.57987626  0.30620886  1
  Se  Se202  1  0.91570025  0.57969171  0.81107629  1
  Se  Se203  1  0.92092032  0.92018124  0.29393479  1
  Se  Se204  1  0.92202592  0.91835934  0.80942613  1
  Se  Se205  1  0.08159835  0.08283214  0.30182719  1
  Se  Se206  1  0.08134854  0.07874225  0.80918506  1
  Se  Se207  1  0.08376128  0.41346155  0.29401987  1
  Se  Se208  1  0.08469117  0.41411416  0.80196986  1
  Se  Se209  1  0.08807703  0.75937793  0.30969831  1
  Se  Se210  1  0.08122701  0.76175206  0.81929077  1
  Se  Se211  1  0.42082500  0.08821772  0.30768433  1
  Se  Se212  1  0.42414392  0.09129883  0.81136338  1
  Se  Se213  1  0.41492465  0.41279501  0.29648003  1
  Se  Se214  1  0.42154958  0.42240996  0.81655603  1
  Se  Se215  1  0.41034006  0.74453234  0.30021110  1
  Se  Se216  1  0.41205476  0.75376903  0.80630897  1
  Se  Se217  1  0.75309955  0.08435024  0.29975428  1
  Se  Se218  1  0.75097790  0.08040921  0.80424881  1
  Se  Se219  1  0.76063960  0.42401543  0.31268463  1
  Se  Se220  1  0.75180387  0.42045225  0.80407614  1
  Se  Se221  1  0.75834363  0.76035437  0.30540531  1
  Se  Se222  1  0.75001297  0.75485539  0.80192242  1
  Se  Se223  1  0.23826018  0.08945432  0.18316126  1
  Se  Se224  1  0.24571551  0.09394463  0.69586360  1
  Se  Se225  1  0.25072158  0.41062537  0.18458543  1
  Se  Se226  1  0.24214005  0.42187371  0.68595579  1
  Se  Se227  1  0.25130529  0.75187298  0.20027954  1
  Se  Se228  1  0.25007610  0.75365932  0.70511481  1
  Se  Se229  1  0.58778567  0.08031045  0.20077697  1
  Se  Se230  1  0.58978072  0.07877194  0.69808673  1
  Se  Se231  1  0.58316366  0.42131273  0.19022544  1
  Se  Se232  1  0.57674093  0.41559561  0.70306298  1
  Se  Se233  1  0.57911880  0.75643675  0.18333321  1
  Se  Se234  1  0.58645326  0.74942858  0.69782061  1
  Se  Se235  1  0.92051669  0.08080070  0.18711750  1
  Se  Se236  1  0.92179985  0.07882052  0.69910365  1
  Se  Se237  1  0.91630887  0.41500529  0.20437820  1
  Se  Se238  1  0.90191635  0.42505918  0.70457397  1
  Se  Se239  1  0.91001521  0.75521258  0.18462286  1
  Se  Se240  1  0.91233968  0.76313408  0.68919332  1
  Se  Se241  1  0.07938350  0.25232586  0.18657255  1
  Se  Se242  1  0.07566999  0.25351950  0.69961323  1
  Se  Se243  1  0.08945913  0.57681877  0.18231416  1
  Se  Se244  1  0.09176667  0.57819609  0.69032450  1
  Se  Se245  1  0.07946076  0.91893706  0.19243065  1
  Se  Se246  1  0.08718647  0.92124638  0.70410211  1
  Se  Se247  1  0.41626479  0.25410482  0.19665492  1
  Se  Se248  1  0.42473670  0.23961380  0.69210082  1
  Se  Se249  1  0.41038521  0.58227588  0.19092181  1
  Se  Se250  1  0.41216710  0.58799831  0.70355920  1
  Se  Se251  1  0.42391991  0.91121039  0.19249329  1
  Se  Se252  1  0.42244767  0.91298010  0.69209175  1
  Se  Se253  1  0.75713040  0.24357216  0.18824642  1
  Se  Se254  1  0.75129350  0.24548551  0.69839239  1
  Se  Se255  1  0.76252832  0.57113983  0.19484701  1
  Se  Se256  1  0.74898140  0.59205946  0.71227257  1
  Se  Se257  1  0.74871289  0.92224049  0.18613282  1
  Se  Se258  1  0.74946002  0.91787522  0.69587255  1
