# generated using pymatgen
data_In86Cu29Se144
_symmetry_space_group_name_H-M   'P 1'
_cell_length_a   17.57326479
_cell_length_b   17.57438757
_cell_length_c   23.43016926
_cell_angle_alpha   89.98419175
_cell_angle_beta   89.98933641
_cell_angle_gamma   89.99278918
_symmetry_Int_Tables_number   1
_chemical_formula_structural   In86Cu29Se144
_chemical_formula_sum   'In86 Cu29 Se144'
_cell_volume   7236.15816705
_cell_formula_units_Z   1
loop_
 _symmetry_equiv_pos_site_id
 _symmetry_equiv_pos_as_xyz
  1  'x, y, z'
loop_
 _atom_site_type_symbol
 _atom_site_label
 _atom_site_symmetry_multiplicity
 _atom_site_fract_x
 _atom_site_fract_y
 _atom_site_fract_z
 _atom_site_occupancy
  In  In0  1  -0.00380723  0.17390065  0.12872334  1
  In  In1  1  -0.00338365  0.18260123  0.62805436  1
  In  In2  1  -0.00399259  0.49039811  0.12669701  1
  In  In3  1  -0.01793644  0.51660710  0.63282963  1
  In  In4  1  -0.02009640  0.83631444  0.12642331  1
  In  In5  1  -0.00831720  0.81031631  0.62853199  1
  In  In6  1  0.33638412  0.15318620  0.12653381  1
  In  In7  1  0.34395044  0.15940328  0.63926297  1
  In  In8  1  0.33206921  0.50508951  0.11289550  1
  In  In9  1  0.33320047  0.50600271  0.63448524  1
  In  In10  1  0.35044005  0.83544485  0.12009113  1
  In  In11  1  0.34954906  0.82333470  0.62948694  1
  In  In12  1  0.64470576  0.13983436  0.09490067  1
  In  In13  1  0.67384117  0.16305822  0.63148261  1
  In  In14  1  0.67200355  0.51061134  0.11938661  1
  In  In15  1  0.67338781  0.49565131  0.63394958  1
  In  In16  1  0.66293469  0.82929715  0.12147139  1
  In  In17  1  0.66624685  0.84580277  0.63923636  1
  In  In18  1  0.17663504  -0.01089542  0.37508758  1
  In  In19  1  0.17558717  -0.00695981  0.87309137  1
  In  In20  1  0.15953481  0.34762712  0.37724760  1
  In  In21  1  0.18051169  0.34326082  0.86696972  1
  In  In22  1  0.16053864  0.67726423  0.37335662  1
  In  In23  1  0.16208693  0.65629604  0.86785247  1
  In  In24  1  0.49522302  -0.01437414  0.36430918  1
  In  In25  1  0.51199066  0.00499299  0.88348511  1
  In  In26  1  0.49474592  0.33572567  0.37536823  1
  In  In27  1  0.50373573  0.33783664  0.88035291  1
  In  In28  1  0.51585681  0.67414702  0.38037542  1
  In  In29  1  0.50259838  0.66569296  0.87142894  1
  In  In30  1  0.83060784  0.01438709  0.37627175  1
  In  In31  1  0.81299118  0.00604335  0.88736825  1
  In  In32  1  0.83988799  0.32495365  0.37722046  1
  In  In33  1  0.82067211  0.31942839  0.86581407  1
  In  In34  1  0.82775279  0.65838740  0.37491450  1
  In  In35  1  0.83607322  0.67453711  0.86371627  1
  In  In36  1  -0.01980155  0.16617932  0.37355560  1
  In  In37  1  -0.01636061  0.17098542  0.87527314  1
  In  In38  1  -0.00791155  0.49322736  0.36986928  1
  In  In39  1  0.00869581  0.50603780  0.87041937  1
  In  In40  1  0.00683063  0.82738581  0.37002673  1
  In  In41  1  -0.00576393  0.81594123  0.87133427  1
  In  In42  1  0.34966550  0.15484073  0.37776943  1
  In  In43  1  0.34646483  0.17464800  0.86857029  1
  In  In44  1  0.33669517  0.49734992  0.37656538  1
  In  In45  1  0.33531823  0.49927890  0.87377352  1
  In  In46  1  0.34010660  0.84496720  0.38063582  1
  In  In47  1  0.35185212  0.84699789  0.86480888  1
  In  In48  1  0.68019246  0.16762455  0.37327761  1
  In  In49  1  0.66835571  0.16954576  0.88169319  1
  In  In50  1  0.67405499  0.52589062  0.37414803  1
  In  In51  1  0.65452329  0.49073179  0.86988520  1
  In  In52  1  0.65521547  0.82063338  0.37036331  1
  In  In53  1  0.66965338  0.83402366  0.87828857  1
  In  In54  1  0.17656171  0.01173446  0.12943365  1
  In  In55  1  0.17341192  0.00149346  0.63029120  1
  In  In56  1  0.15105528  0.33485275  0.12327522  1
  In  In57  1  0.16223975  0.34209608  0.63635992  1
  In  In58  1  0.16335457  0.65169578  0.12250148  1
  In  In59  1  0.17031494  0.66783073  0.62871541  1
  In  In60  1  0.50572370  -0.00831501  0.12037380  1
  In  In61  1  0.50556558  -0.00508079  0.63255732  1
  In  In62  1  0.51050590  0.33215279  0.10455367  1
  In  In63  1  0.50380715  0.33124629  0.63953991  1
  In  In64  1  0.51050281  0.67989802  0.11202315  1
  In  In65  1  0.49525643  0.68183809  0.62993758  1
  In  In66  1  0.79730747  -0.02480595  0.09336867  1
  In  In67  1  0.81370020  -0.00676516  0.62632880  1
  In  In68  1  0.83448398  0.33038126  0.12030855  1
  In  In69  1  0.83066281  0.33757439  0.62783827  1
  In  In70  1  0.82073549  0.67120117  0.13276798  1
  In  In71  1  0.84065032  0.66613274  0.63609025  1
  In  In72  1  0.16518616  0.17102829  0.00483734  1
  In  In73  1  0.50778747  0.50706442  0.50172936  1
  In  In74  1  -0.00506802  -0.00315259  0.75429558  1
  In  In75  1  0.33066768  0.66947760  0.25100675  1
  In  In76  1  0.82925772  0.82921757  0.50206915  1
  In  In77  1  -0.00302590  0.00179828  0.24988598  1
  In  In78  1  0.16609593  0.82169891  -0.00420808  1
  In  In79  1  0.67263417  0.33087157  0.24280168  1
  In  In80  1  0.51133454  0.15934726  0.51244802  1
  In  In81  1  0.17175340  0.82992669  0.50688478  1
  In  In82  1  0.16626718  0.16664954  0.49843610  1
  In  In83  1  0.32585774  0.32165747  0.24108058  1
  In  In84  1  0.16186005  0.50518345  0.50994777  1
  In  In85  1  0.82658592  0.49358825  -0.00482263  1
  Cu  Cu86  1  0.66360781  0.66595016  -0.00503819  1
  Cu  Cu87  1  0.16946470  0.83240885  0.25063582  1
  Cu  Cu88  1  0.33890788  -0.00050822  -0.00269790  1
  Cu  Cu89  1  0.33212730  0.33919487  -0.00607741  1
  Cu  Cu90  1  0.00490469  0.34258390  -0.00287391  1
  Cu  Cu91  1  0.82898708  0.16923927  0.75279335  1
  Cu  Cu92  1  0.82573795  0.83088782  0.24613807  1
  Cu  Cu93  1  0.82862749  0.16134354  0.24262155  1
  Cu  Cu94  1  0.33690210  0.66691867  -0.00868071  1
  Cu  Cu95  1  0.50693625  0.83556522  0.24316330  1
  Cu  Cu96  1  0.16791562  0.16788421  0.75000719  1
  Cu  Cu97  1  0.50069678  0.50689932  0.24412543  1
  Cu  Cu98  1  0.50924802  0.15737338  0.24357732  1
  Cu  Cu99  1  0.50552903  0.16535190  0.75966712  1
  Cu  Cu100  1  0.50080489  0.50178691  0.75344401  1
  Cu  Cu101  1  0.15164901  0.49894649  0.24817283  1
  Cu  Cu102  1  0.16905760  0.16881747  0.25212378  1
  Cu  Cu103  1  -0.00779597  -0.00495457  -0.00237454  1
  Cu  Cu104  1  0.66421680  -0.00045899  0.50322796  1
  Cu  Cu105  1  0.83764183  0.49782525  0.75428976  1
  Cu  Cu106  1  0.17100702  0.83009626  0.75159421  1
  Cu  Cu107  1  0.83413458  0.49975750  0.24936955  1
  Cu  Cu108  1  0.33418460  0.32872947  0.51362502  1
  Cu  Cu109  1  0.17097299  0.49688379  0.74923710  1
  Cu  Cu110  1  -0.01505104  0.33703602  0.50228531  1
  Cu  Cu111  1  0.50285446  0.83639689  0.75658618  1
  Cu  Cu112  1  0.67790049  0.34397871  0.50053415  1
  Cu  Cu113  1  -0.00847746  0.66154062  -0.00416213  1
  Cu  Cu114  1  -0.00723799  0.00211591  0.50090902  1
  Se  Se115  1  0.07416715  0.07211404  0.05867641  1
  Se  Se116  1  0.07563290  0.07863171  0.56212108  1
  Se  Se117  1  0.08558072  0.42580557  0.05128743  1
  Se  Se118  1  0.06941047  0.41145070  0.56310174  1
  Se  Se119  1  0.06984351  0.74283443  0.05993218  1
  Se  Se120  1  0.07485650  0.73445732  0.55345108  1
  Se  Se121  1  0.41933544  0.08067922  0.05480070  1
  Se  Se122  1  0.40951725  0.07357998  0.56130097  1
  Se  Se123  1  0.41713186  0.42023278  0.04888457  1
  Se  Se124  1  0.41871672  0.41349853  0.56461665  1
  Se  Se125  1  0.41782537  0.75325524  0.04446086  1
  Se  Se126  1  0.42201920  0.75262062  0.55012014  1
  Se  Se127  1  0.77678493  0.10920135  0.05269859  1
  Se  Se128  1  0.74817844  0.08484098  0.55419784  1
  Se  Se129  1  0.73524743  0.40374971  0.05433189  1
  Se  Se130  1  0.75623117  0.42666185  0.55664460  1
  Se  Se131  1  0.74800163  0.74299279  0.05364306  1
  Se  Se132  1  0.74467156  0.75028042  0.57110421  1
  Se  Se133  1  0.25985069  0.26039707  0.06346953  1
  Se  Se134  1  0.25130578  0.24948026  0.56921578  1
  Se  Se135  1  0.24888968  0.58898265  0.04567253  1
  Se  Se136  1  0.26433167  0.59348944  0.55668450  1
  Se  Se137  1  0.25128311  0.92206355  0.05477860  1
  Se  Se138  1  0.26092750  0.92166365  0.56228214  1
  Se  Se139  1  0.57587708  0.24094800  0.03434914  1
  Se  Se140  1  0.59540130  0.26513876  0.56088931  1
  Se  Se141  1  0.58223636  0.58074354  0.04890430  1
  Se  Se142  1  0.59017481  0.59017546  0.56849712  1
  Se  Se143  1  0.59311099  0.91831757  0.05004258  1
  Se  Se144  1  0.58675418  0.91670638  0.56021178  1
  Se  Se145  1  0.92710931  0.25661864  0.05264035  1
  Se  Se146  1  0.90750183  0.24888584  0.55579448  1
  Se  Se147  1  0.91168291  0.58447527  0.05956430  1
  Se  Se148  1  0.91310366  0.59252744  0.55603190  1
  Se  Se149  1  0.91058450  0.90486872  0.04482106  1
  Se  Se150  1  0.92220592  0.91896048  0.56458121  1
  Se  Se151  1  0.07066681  0.25904388  0.44285941  1
  Se  Se152  1  0.08218379  0.25717440  0.93726070  1
  Se  Se153  1  0.07855204  0.58466884  0.43799979  1
  Se  Se154  1  0.08342552  0.58523805  0.94645402  1
  Se  Se155  1  0.07576321  0.92247846  0.44477693  1
  Se  Se156  1  0.07649301  0.91822703  0.93874816  1
  Se  Se157  1  0.41555129  0.25364143  0.45125638  1
  Se  Se158  1  0.41537074  0.25172866  0.94637563  1
  Se  Se159  1  0.41222401  0.59110498  0.44070628  1
  Se  Se160  1  0.42098191  0.58077599  0.94170583  1
  Se  Se161  1  0.42705509  0.92043837  0.44759477  1
  Se  Se162  1  0.42285026  0.91561980  0.94635711  1
  Se  Se163  1  0.75086024  0.25048456  0.44748261  1
  Se  Se164  1  0.76390074  0.24336026  0.94812727  1
  Se  Se165  1  0.74674177  0.59284421  0.45339085  1
  Se  Se166  1  0.74484207  0.58801050  0.93372238  1
  Se  Se167  1  0.74450599  0.92201749  0.43939942  1
  Se  Se168  1  0.73609092  0.91968728  0.95618030  1
  Se  Se169  1  0.26082708  0.07238443  0.44715291  1
  Se  Se170  1  0.25547056  0.08275373  0.94267747  1
  Se  Se171  1  0.25838688  0.40950866  0.45094745  1
  Se  Se172  1  0.24589672  0.42303022  0.94564610  1
  Se  Se173  1  0.25964437  0.74263908  0.44086945  1
  Se  Se174  1  0.25933046  0.74750933  0.92924343  1
  Se  Se175  1  0.58902869  0.07919483  0.43742071  1
  Se  Se176  1  0.58063891  0.09649476  0.95459756  1
  Se  Se177  1  0.59302484  0.41393193  0.43655516  1
  Se  Se178  1  0.58337683  0.42186300  0.95005379  1
  Se  Se179  1  0.58520081  0.75646493  0.45409579  1
  Se  Se180  1  0.57943217  0.75002023  0.94331187  1
  Se  Se181  1  0.91052455  0.08870444  0.45156179  1
  Se  Se182  1  0.91407203  0.08375940  0.94622481  1
  Se  Se183  1  0.90883947  0.42133268  0.44449585  1
  Se  Se184  1  0.92023095  0.41130080  0.93291837  1
  Se  Se185  1  0.92386537  0.74598593  0.43999872  1
  Se  Se186  1  0.90928066  0.74684076  0.94546522  1
  Se  Se187  1  0.24638191  0.24346625  0.31963479  1
  Se  Se188  1  0.25470316  0.24981680  0.80188116  1
  Se  Se189  1  0.23904948  0.57238022  0.30853303  1
  Se  Se190  1  0.25426866  0.58170094  0.80155327  1
  Se  Se191  1  0.25608280  0.91239261  0.30260180  1
  Se  Se192  1  0.25383344  0.91857937  0.79918435  1
  Se  Se193  1  0.57656188  0.24533722  0.30721377  1
  Se  Se194  1  0.58610955  0.25245447  0.81151603  1
  Se  Se195  1  0.57840920  0.58704800  0.30322652  1
  Se  Se196  1  0.58794427  0.58662245  0.80110722  1
  Se  Se197  1  0.59186788  0.91607177  0.29880543  1
  Se  Se198  1  0.58577038  0.92022331  0.80992089  1
  Se  Se199  1  0.90977759  0.24653556  0.29747219  1
  Se  Se200  1  0.91973724  0.25344632  0.79747108  1
  Se  Se201  1  0.91538433  0.58438829  0.30346918  1
  Se  Se202  1  0.92253812  0.58554644  0.80216790  1
  Se  Se203  1  0.90525623  0.91006771  0.31005401  1
  Se  Se204  1  0.90602638  0.91723073  0.81959372  1
  Se  Se205  1  0.08941317  0.08835695  0.31488838  1
  Se  Se206  1  0.08811849  0.08982354  0.81303681  1
  Se  Se207  1  0.07517425  0.40887255  0.30031750  1
  Se  Se208  1  0.08436531  0.41570866  0.80193443  1
  Se  Se209  1  0.08168126  0.74689638  0.29562033  1
  Se  Se210  1  0.08380435  0.74685863  0.80093412  1
  Se  Se211  1  0.42052206  0.08164291  0.29890423  1
  Se  Se212  1  0.42273248  0.07656806  0.80908781  1
  Se  Se213  1  0.41854307  0.42092861  0.29844943  1
  Se  Se214  1  0.41966960  0.41499802  0.80677783  1
  Se  Se215  1  0.42544420  0.75767087  0.30719422  1
  Se  Se216  1  0.41646747  0.74558414  0.80089258  1
  Se  Se217  1  0.74695530  0.08023822  0.29904563  1
  Se  Se218  1  0.74729549  0.08647541  0.80784110  1
  Se  Se219  1  0.75219414  0.42058857  0.31117350  1
  Se  Se220  1  0.74808649  0.41640207  0.80286779  1
  Se  Se221  1  0.74993476  0.74662566  0.30548661  1
  Se  Se222  1  0.73704353  0.74591727  0.80378415  1
  Se  Se223  1  0.25580637  0.08423143  0.20482323  1
  Se  Se224  1  0.25153973  0.07972862  0.70282992  1
  Se  Se225  1  0.24271769  0.42657101  0.18925525  1
  Se  Se226  1  0.25969568  0.41257071  0.70023477  1
  Se  Se227  1  0.24512099  0.75670163  0.18318191  1
  Se  Se228  1  0.25462867  0.74899796  0.69597619  1
  Se  Se229  1  0.59136131  0.07863259  0.18710753  1
  Se  Se230  1  0.58406030  0.08585788  0.69768801  1
  Se  Se231  1  0.57611180  0.42051823  0.18617776  1
  Se  Se232  1  0.58724388  0.41668724  0.70351570  1
  Se  Se233  1  0.58579711  0.74401604  0.19411483  1
  Se  Se234  1  0.58404927  0.75293672  0.70128139  1
  Se  Se235  1  0.90694687  0.07774113  0.18297144  1
  Se  Se236  1  0.90960063  0.08831316  0.69081139  1
  Se  Se237  1  0.90992522  0.41072022  0.19502456  1
  Se  Se238  1  0.91919138  0.41434270  0.69766575  1
  Se  Se239  1  0.91453055  0.74702616  0.19896544  1
  Se  Se240  1  0.90847867  0.75782283  0.70771415  1
  Se  Se241  1  0.08446974  0.24907836  0.19871415  1
  Se  Se242  1  0.08187922  0.25204139  0.70111624  1
  Se  Se243  1  0.07310513  0.58368552  0.19330847  1
  Se  Se244  1  0.08891274  0.58046076  0.69399396  1
  Se  Se245  1  0.08985098  0.91183683  0.18784066  1
  Se  Se246  1  0.08531538  0.90674135  0.69061325  1
  Se  Se247  1  0.43236014  0.24532813  0.18594902  1
  Se  Se248  1  0.41969331  0.24851404  0.70596247  1
  Se  Se249  1  0.41919654  0.58583004  0.18496627  1
  Se  Se250  1  0.42160318  0.58714740  0.69793323  1
  Se  Se251  1  0.41835598  0.91894515  0.19484242  1
  Se  Se252  1  0.41702170  0.91644117  0.70016218  1
  Se  Se253  1  0.74609290  0.23476104  0.17919747  1
  Se  Se254  1  0.74757913  0.25507780  0.69828883  1
  Se  Se255  1  0.74397668  0.58027969  0.20006645  1
  Se  Se256  1  0.75400623  0.58184552  0.70177203  1
  Se  Se257  1  0.74978095  0.91562559  0.18821750  1
  Se  Se258  1  0.75108030  0.92394917  0.70882346  1
