# generated using pymatgen
data_In86Cu29Se144
_symmetry_space_group_name_H-M   'P 1'
_cell_length_a   17.58433010
_cell_length_b   17.59052809
_cell_length_c   23.44761405
_cell_angle_alpha   90.00083777
_cell_angle_beta   90.01332686
_cell_angle_gamma   90.01077730
_symmetry_Int_Tables_number   1
_chemical_formula_structural   In86Cu29Se144
_chemical_formula_sum   'In86 Cu29 Se144'
_cell_volume   7252.76060912
_cell_formula_units_Z   1
loop_
 _symmetry_equiv_pos_site_id
 _symmetry_equiv_pos_as_xyz
  1  'x, y, z'
loop_
 _atom_site_type_symbol
 _atom_site_label
 _atom_site_symmetry_multiplicity
 _atom_site_fract_x
 _atom_site_fract_y
 _atom_site_fract_z
 _atom_site_occupancy
  In  In0  1  0.01249840  0.15851525  0.13598584  1
  In  In1  1  -0.00047465  0.16410693  0.61417724  1
  In  In2  1  0.00549604  0.49909106  0.12758041  1
  In  In3  1  0.00720528  0.50148696  0.61963066  1
  In  In4  1  -0.00222297  0.83341764  0.13831760  1
  In  In5  1  0.02111412  0.84148455  0.60609305  1
  In  In6  1  0.32188266  0.16503502  0.12065552  1
  In  In7  1  0.32018422  0.15497413  0.61476092  1
  In  In8  1  0.33852118  0.50648322  0.11451437  1
  In  In9  1  0.34078554  0.50607392  0.62176401  1
  In  In10  1  0.34779668  0.82675630  0.13940156  1
  In  In11  1  0.32586590  0.84289448  0.63110964  1
  In  In12  1  0.66554633  0.17194247  0.12383187  1
  In  In13  1  0.65997888  0.15394668  0.61288425  1
  In  In14  1  0.65895347  0.49218700  0.11706362  1
  In  In15  1  0.66267620  0.51582592  0.62998372  1
  In  In16  1  0.65133866  0.84355073  0.12341332  1
  In  In17  1  0.66316157  0.82190695  0.62419300  1
  In  In18  1  0.16827851  -0.00125647  0.37332312  1
  In  In19  1  0.17248826  0.00433542  0.86598755  1
  In  In20  1  0.16623392  0.34593640  0.38359182  1
  In  In21  1  0.17090686  0.33603964  0.88506018  1
  In  In22  1  0.16442062  0.66708803  0.38048001  1
  In  In23  1  0.17412122  0.64680328  0.87265517  1
  In  In24  1  0.50081290  0.00606070  0.37265596  1
  In  In25  1  0.48614409  0.01474856  0.89003473  1
  In  In26  1  0.48862377  0.33614280  0.38874529  1
  In  In27  1  0.47798710  0.34196104  0.89346929  1
  In  In28  1  0.48097805  0.67199341  0.37128041  1
  In  In29  1  0.49910240  0.66995008  0.87392365  1
  In  In30  1  0.84478757  -0.01327839  0.38725386  1
  In  In31  1  0.83644632  -0.00826166  0.86875669  1
  In  In32  1  0.83632520  0.31838133  0.37685268  1
  In  In33  1  0.84759348  0.33609819  0.87829459  1
  In  In34  1  0.85320668  0.66511510  0.38160540  1
  In  In35  1  0.82198852  0.66885055  0.87375927  1
  In  In36  1  0.00777192  0.16652173  0.37312994  1
  In  In37  1  0.01279945  0.16895814  0.87215836  1
  In  In38  1  0.02099590  0.51317250  0.36638162  1
  In  In39  1  0.00602174  0.49212076  0.88508858  1
  In  In40  1  0.00057786  0.83094619  0.37900502  1
  In  In41  1  -0.01136003  0.83753195  0.86955995  1
  In  In42  1  0.34427814  0.15829326  0.38334749  1
  In  In43  1  0.32936921  0.16284586  0.88206000  1
  In  In44  1  0.32034094  0.50980895  0.38583398  1
  In  In45  1  0.32226120  0.51460316  0.88147966  1
  In  In46  1  0.32157399  0.81860398  0.36201918  1
  In  In47  1  0.34025514  0.84173143  0.86648907  1
  In  In48  1  0.66556505  0.15466226  0.39034431  1
  In  In49  1  0.64503566  0.15750509  0.87193021  1
  In  In50  1  0.65969074  0.48793497  0.37501028  1
  In  In51  1  0.65467842  0.50947291  0.88130499  1
  In  In52  1  0.67520069  0.84938431  0.38006966  1
  In  In53  1  0.66849019  0.82311954  0.87321283  1
  In  In54  1  0.16444502  0.00403329  0.13217435  1
  In  In55  1  0.16672504  -0.00080246  0.62214305  1
  In  In56  1  0.16603222  0.32538809  0.12105805  1
  In  In57  1  0.18333202  0.33840163  0.60596719  1
  In  In58  1  0.17685736  0.66071545  0.13218307  1
  In  In59  1  0.16930345  0.67430546  0.61880798  1
  In  In60  1  0.48592168  -0.01552271  0.11088387  1
  In  In61  1  0.48841091  -0.00701154  0.62676332  1
  In  In62  1  0.48677036  0.32860444  0.10846038  1
  In  In63  1  0.48203601  0.32909516  0.61352832  1
  In  In64  1  0.49326870  0.66322480  0.12094197  1
  In  In65  1  0.50616403  0.66649102  0.62996718  1
  In  In66  1  0.83573938  0.00618010  0.13168722  1
  In  In67  1  0.84566211  0.01334272  0.61157327  1
  In  In68  1  0.83226002  0.34371170  0.12695046  1
  In  In69  1  0.84483544  0.32846697  0.62238625  1
  In  In70  1  0.84836855  0.66808739  0.12753096  1
  In  In71  1  0.82516710  0.66385527  0.62459332  1
  In  In72  1  0.83428717  0.49637899  0.50269278  1
  In  In73  1  0.66284845  -0.00996344  0.75051643  1
  In  In74  1  0.32948061  0.33378942  0.25079001  1
  In  In75  1  0.66453462  -0.00024044  0.25550733  1
  In  In76  1  0.16519425  0.83269141  0.00064815  1
  In  In77  1  0.33029727  0.33792218  0.74950538  1
  In  In78  1  0.66417444  0.33580802  0.75121753  1
  In  In79  1  0.00846454  0.33382503  0.74766046  1
  In  In80  1  0.00365398  0.67315952  0.74493972  1
  In  In81  1  0.50231788  0.83670168  0.49653104  1
  In  In82  1  0.66972020  0.66483352  0.24338815  1
  In  In83  1  0.82923998  0.17002703  0.00286835  1
  In  In84  1  0.82768279  0.82980584  -0.00073366  1
  In  In85  1  0.66469547  0.33010395  0.24903428  1
  Cu  Cu86  1  0.66428663  0.66324958  -0.00145226  1
  Cu  Cu87  1  0.48984504  0.50406794  0.24520538  1
  Cu  Cu88  1  0.16543811  0.83304825  0.74252381  1
  Cu  Cu89  1  0.00332912  0.00591577  0.00496415  1
  Cu  Cu90  1  0.65927443  0.33361385  0.50177605  1
  Cu  Cu91  1  0.83223416  0.50888384  0.75388503  1
  Cu  Cu92  1  0.17023812  0.16651483  0.25252618  1
  Cu  Cu93  1  0.66729101  0.33154699  -0.00116925  1
  Cu  Cu94  1  0.16444588  0.16193884  0.74348446  1
  Cu  Cu95  1  0.83757208  0.83061987  0.25913868  1
  Cu  Cu96  1  0.16813595  0.50401377  0.25326605  1
  Cu  Cu97  1  0.83421803  0.16053384  0.73809314  1
  Cu  Cu98  1  0.50136171  0.16803901  0.25596408  1
  Cu  Cu99  1  -0.00045654  0.33077918  0.49542793  1
  Cu  Cu100  1  0.48885333  0.16392629  0.75694006  1
  Cu  Cu101  1  0.33621636  0.67263181  0.00103313  1
  Cu  Cu102  1  0.00885857  0.00366762  0.49444358  1
  Cu  Cu103  1  0.84726924  0.49812434  0.24897010  1
  Cu  Cu104  1  0.33371516  0.66941439  0.49998804  1
  Cu  Cu105  1  0.16242534  0.83659971  0.25582165  1
  Cu  Cu106  1  0.00506333  0.65700988  0.00424182  1
  Cu  Cu107  1  0.32832554  -0.00685857  0.49948822  1
  Cu  Cu108  1  0.84756146  0.16029817  0.25703136  1
  Cu  Cu109  1  0.50225240  0.50817129  0.74991795  1
  Cu  Cu110  1  0.49546368  0.83025909  0.75175016  1
  Cu  Cu111  1  0.00167186  0.33653455  0.00459219  1
  Cu  Cu112  1  0.32196897  0.00023366  -0.00045650  1
  Cu  Cu113  1  0.83983603  0.84007579  0.74375712  1
  Cu  Cu114  1  0.66291431  0.66335134  0.50199218  1
  Se  Se115  1  0.08819373  0.08623978  0.05740024  1
  Se  Se116  1  0.09136539  0.08589163  0.55043701  1
  Se  Se117  1  0.08749641  0.41867214  0.05652947  1
  Se  Se118  1  0.08059441  0.41532472  0.54966491  1
  Se  Se119  1  0.07492256  0.74640991  0.06356434  1
  Se  Se120  1  0.07974371  0.73649708  0.54448323  1
  Se  Se121  1  0.40784225  0.08270233  0.05304571  1
  Se  Se122  1  0.41473124  0.07391719  0.55333500  1
  Se  Se123  1  0.42078202  0.42667026  0.04590851  1
  Se  Se124  1  0.40869968  0.41895422  0.54809835  1
  Se  Se125  1  0.41615965  0.75691749  0.05563839  1
  Se  Se126  1  0.41388402  0.75083099  0.56122842  1
  Se  Se127  1  0.74316555  0.07188949  0.05891119  1
  Se  Se128  1  0.75443730  0.08825538  0.54672459  1
  Se  Se129  1  0.75080261  0.41440030  0.05187888  1
  Se  Se130  1  0.73989416  0.41101343  0.56520271  1
  Se  Se131  1  0.74078337  0.74122428  0.06456996  1
  Se  Se132  1  0.74778438  0.74683788  0.55254885  1
  Se  Se133  1  0.26169406  0.26280164  0.05221774  1
  Se  Se134  1  0.25643585  0.24562420  0.54301478  1
  Se  Se135  1  0.24782363  0.59018167  0.05094371  1
  Se  Se136  1  0.25225294  0.58550466  0.55435338  1
  Se  Se137  1  0.25322788  0.91634531  0.06499854  1
  Se  Se138  1  0.24547047  0.90994069  0.55321713  1
  Se  Se139  1  0.58480234  0.24699670  0.05128154  1
  Se  Se140  1  0.57759029  0.24811118  0.55431482  1
  Se  Se141  1  0.57933883  0.58226752  0.05349148  1
  Se  Se142  1  0.57818842  0.58254758  0.55452117  1
  Se  Se143  1  0.58449502  0.91838027  0.04585431  1
  Se  Se144  1  0.59017208  0.92353090  0.56095643  1
  Se  Se145  1  0.92421159  0.25179908  0.06467565  1
  Se  Se146  1  0.91378483  0.24816810  0.54696669  1
  Se  Se147  1  0.91714223  0.57864420  0.05723311  1
  Se  Se148  1  0.92347787  0.59331637  0.55565191  1
  Se  Se149  1  0.92171353  0.92076351  0.05948697  1
  Se  Se150  1  0.92332411  0.92077806  0.54743769  1
  Se  Se151  1  0.08691783  0.24985449  0.44432422  1
  Se  Se152  1  0.07983804  0.25241153  0.94718763  1
  Se  Se153  1  0.08850007  0.57763286  0.44913245  1
  Se  Se154  1  0.09014517  0.57946112  0.94874851  1
  Se  Se155  1  0.08917391  0.91478990  0.44388427  1
  Se  Se156  1  0.07372884  0.92213746  0.94012980  1
  Se  Se157  1  0.42288585  0.24007231  0.45341803  1
  Se  Se158  1  0.42097841  0.23277535  0.95050820  1
  Se  Se159  1  0.41884177  0.58714886  0.44749920  1
  Se  Se160  1  0.41826272  0.58879660  0.94535158  1
  Se  Se161  1  0.40614869  0.91562191  0.43499550  1
  Se  Se162  1  0.40716560  0.91545336  0.94811865  1
  Se  Se163  1  0.74498528  0.25371941  0.44819254  1
  Se  Se164  1  0.74217262  0.25312343  0.93335574  1
  Se  Se165  1  0.74334723  0.58454077  0.43883301  1
  Se  Se166  1  0.75204804  0.58310612  0.94651272  1
  Se  Se167  1  0.74158945  0.93093983  0.45427346  1
  Se  Se168  1  0.74296049  0.92476727  0.94011506  1
  Se  Se169  1  0.24909173  0.08004828  0.44540037  1
  Se  Se170  1  0.23674694  0.08200289  0.94673145  1
  Se  Se171  1  0.26449972  0.40723795  0.45176343  1
  Se  Se172  1  0.26849915  0.40743471  0.94532374  1
  Se  Se173  1  0.25191398  0.75315312  0.44572019  1
  Se  Se174  1  0.25409371  0.74680292  0.93698632  1
  Se  Se175  1  0.57493307  0.07443815  0.45135037  1
  Se  Se176  1  0.58804991  0.08006128  0.95238473  1
  Se  Se177  1  0.57849529  0.42132123  0.45113660  1
  Se  Se178  1  0.58263118  0.41714985  0.94837328  1
  Se  Se179  1  0.58993602  0.74256198  0.43563117  1
  Se  Se180  1  0.58471906  0.74963009  0.94531683  1
  Se  Se181  1  0.92246172  0.08760195  0.44394581  1
  Se  Se182  1  0.91979737  0.07919443  0.94110655  1
  Se  Se183  1  0.92228895  0.41571250  0.43557295  1
  Se  Se184  1  0.91492687  0.41872104  0.95371689  1
  Se  Se185  1  0.90277019  0.76730458  0.44843160  1
  Se  Se186  1  0.92585750  0.73938334  0.94338709  1
  Se  Se187  1  0.24814774  0.24421646  0.31608204  1
  Se  Se188  1  0.23989226  0.24357192  0.80738126  1
  Se  Se189  1  0.24963648  0.58711952  0.30830835  1
  Se  Se190  1  0.25496109  0.57989188  0.79717316  1
  Se  Se191  1  0.25206832  0.92119481  0.30124124  1
  Se  Se192  1  0.24828082  0.91559555  0.79899747  1
  Se  Se193  1  0.58006769  0.24633328  0.31716293  1
  Se  Se194  1  0.56474291  0.25467366  0.81089993  1
  Se  Se195  1  0.57807486  0.57633911  0.30544837  1
  Se  Se196  1  0.58696971  0.58935649  0.80387451  1
  Se  Se197  1  0.57348560  0.90260984  0.30753559  1
  Se  Se198  1  0.57011148  0.91278500  0.81599013  1
  Se  Se199  1  0.92517812  0.25338247  0.30397351  1
  Se  Se200  1  0.91019790  0.24159153  0.80210766  1
  Se  Se201  1  0.92187521  0.58599002  0.30378315  1
  Se  Se202  1  0.92043652  0.58117424  0.81285425  1
  Se  Se203  1  0.92052245  0.91807764  0.30771088  1
  Se  Se204  1  0.92278569  0.92450606  0.79483620  1
  Se  Se205  1  0.08531875  0.08129796  0.30291770  1
  Se  Se206  1  0.08019077  0.08175044  0.79925815  1
  Se  Se207  1  0.08903736  0.41272908  0.30274727  1
  Se  Se208  1  0.09509217  0.42349788  0.80890601  1
  Se  Se209  1  0.08296352  0.74911676  0.30892997  1
  Se  Se210  1  0.09262859  0.75731814  0.81242610  1
  Se  Se211  1  0.41459442  0.08276080  0.30288319  1
  Se  Se212  1  0.40745611  0.07956824  0.80956363  1
  Se  Se213  1  0.41798653  0.42432411  0.31171826  1
  Se  Se214  1  0.42237994  0.42602299  0.80919510  1
  Se  Se215  1  0.41506255  0.74868609  0.29405453  1
  Se  Se216  1  0.41171467  0.74441387  0.80241143  1
  Se  Se217  1  0.75832976  0.08649825  0.31475571  1
  Se  Se218  1  0.75294357  0.09066894  0.80572064  1
  Se  Se219  1  0.76051006  0.42094740  0.30650985  1
  Se  Se220  1  0.75684581  0.42289071  0.81261552  1
  Se  Se221  1  0.75251580  0.75000824  0.31384913  1
  Se  Se222  1  0.75801781  0.75788738  0.79944346  1
  Se  Se223  1  0.25370444  0.08502522  0.19823091  1
  Se  Se224  1  0.25151971  0.07820463  0.69420130  1
  Se  Se225  1  0.24640459  0.42670786  0.18879652  1
  Se  Se226  1  0.24162969  0.42399427  0.68760223  1
  Se  Se227  1  0.24563836  0.75563916  0.19902668  1
  Se  Se228  1  0.24986519  0.74697700  0.69447087  1
  Se  Se229  1  0.57973733  0.08995593  0.19251453  1
  Se  Se230  1  0.57429090  0.08916588  0.69568687  1
  Se  Se231  1  0.56819936  0.41584305  0.19003235  1
  Se  Se232  1  0.57138914  0.41932495  0.68836297  1
  Se  Se233  1  0.57388252  0.75593847  0.19281831  1
  Se  Se234  1  0.58510149  0.75105279  0.70098972  1
  Se  Se235  1  0.92493844  0.07507398  0.20142991  1
  Se  Se236  1  0.92474537  0.08290783  0.68978002  1
  Se  Se237  1  0.92502983  0.41044370  0.19634090  1
  Se  Se238  1  0.91031283  0.42826082  0.69361675  1
  Se  Se239  1  0.91844896  0.74530437  0.20513441  1
  Se  Se240  1  0.91685309  0.75974484  0.68153680  1
  Se  Se241  1  0.08952928  0.25310917  0.19919406  1
  Se  Se242  1  0.09464986  0.24904548  0.68172771  1
  Se  Se243  1  0.08342640  0.58589670  0.19774546  1
  Se  Se244  1  0.09231414  0.57743248  0.69167981  1
  Se  Se245  1  0.08129931  0.92092353  0.20047411  1
  Se  Se246  1  0.08116185  0.91552398  0.69067255  1
  Se  Se247  1  0.42347379  0.24573870  0.19171324  1
  Se  Se248  1  0.41375412  0.24020298  0.69066045  1
  Se  Se249  1  0.40794362  0.58713631  0.19266305  1
  Se  Se250  1  0.41595557  0.58753558  0.69585195  1
  Se  Se251  1  0.41937311  0.92892549  0.19818263  1
  Se  Se252  1  0.41319531  0.91808062  0.70231988  1
  Se  Se253  1  0.76371765  0.23777910  0.19596818  1
  Se  Se254  1  0.74979961  0.24427047  0.68688000  1
  Se  Se255  1  0.75782233  0.56773420  0.18769365  1
  Se  Se256  1  0.74732656  0.59037859  0.70176114  1
  Se  Se257  1  0.75585908  0.90515370  0.19479885  1
  Se  Se258  1  0.75705380  0.91708980  0.68270211  1
