# generated using pymatgen
data_In86Cu29Se144
_symmetry_space_group_name_H-M   'P 1'
_cell_length_a   17.64356165
_cell_length_b   17.63819067
_cell_length_c   23.51119314
_cell_angle_alpha   90.01277874
_cell_angle_beta   90.01342179
_cell_angle_gamma   90.00029687
_symmetry_Int_Tables_number   1
_chemical_formula_structural   In86Cu29Se144
_chemical_formula_sum   'In86 Cu29 Se144'
_cell_volume   7316.69477988
_cell_formula_units_Z   1
loop_
 _symmetry_equiv_pos_site_id
 _symmetry_equiv_pos_as_xyz
  1  'x, y, z'
loop_
 _atom_site_type_symbol
 _atom_site_label
 _atom_site_symmetry_multiplicity
 _atom_site_fract_x
 _atom_site_fract_y
 _atom_site_fract_z
 _atom_site_occupancy
  In  In0  1  0.00237855  0.15261627  0.13243768  1
  In  In1  1  -0.03641772  0.19094239  0.65864303  1
  In  In2  1  -0.00717848  0.50660715  0.12867104  1
  In  In3  1  -0.00209317  0.50669850  0.63058045  1
  In  In4  1  -0.00181310  0.83324818  0.12148239  1
  In  In5  1  -0.01782943  0.84197730  0.63354009  1
  In  In6  1  0.31138047  0.13603973  0.09543129  1
  In  In7  1  0.35003406  0.16877871  0.63132492  1
  In  In8  1  0.35046336  0.49592395  0.12709156  1
  In  In9  1  0.33964112  0.48295860  0.62943433  1
  In  In10  1  0.32357333  0.84241134  0.12897561  1
  In  In11  1  0.33158125  0.84064426  0.62648515  1
  In  In12  1  0.66833029  0.17715523  0.12188381  1
  In  In13  1  0.66629322  0.17411950  0.63217815  1
  In  In14  1  0.67677387  0.49871588  0.11626227  1
  In  In15  1  0.65442688  0.49269954  0.61009114  1
  In  In16  1  0.66086600  0.82082613  0.12388456  1
  In  In17  1  0.68710159  0.84381573  0.62671904  1
  In  In18  1  0.16173298  -0.00139409  0.36642133  1
  In  In19  1  0.15991426  0.01578953  0.89445003  1
  In  In20  1  0.16122807  0.34058147  0.37232111  1
  In  In21  1  0.15485205  0.32562967  0.87046081  1
  In  In22  1  0.16650468  0.66711150  0.36228764  1
  In  In23  1  0.16247784  0.67679384  0.88772747  1
  In  In24  1  0.49941921  0.01646525  0.37062942  1
  In  In25  1  0.51393795  0.01163998  0.87313905  1
  In  In26  1  0.51198824  0.32752856  0.38331187  1
  In  In27  1  0.50385916  0.33285489  0.86876037  1
  In  In28  1  0.49744796  0.66216647  0.36849314  1
  In  In29  1  0.49144253  0.66687155  0.87976143  1
  In  In30  1  0.83749800  0.00001958  0.37515982  1
  In  In31  1  0.82569523  -0.00993626  0.87355426  1
  In  In32  1  0.83852018  0.32857901  0.38512414  1
  In  In33  1  0.83778753  0.32750524  0.86129969  1
  In  In34  1  0.82742561  0.65645962  0.36475247  1
  In  In35  1  0.84284659  0.65810559  0.88442082  1
  In  In36  1  -0.01736973  0.15672857  0.36179308  1
  In  In37  1  0.00422632  0.17037375  0.86574912  1
  In  In38  1  -0.01240096  0.48871654  0.36812717  1
  In  In39  1  -0.01539391  0.48897652  0.87022272  1
  In  In40  1  0.00147175  0.83835396  0.36579848  1
  In  In41  1  -0.00036489  0.83153212  0.88245235  1
  In  In42  1  0.34610398  0.17054140  0.37308800  1
  In  In43  1  0.32733984  0.17105850  0.88052683  1
  In  In44  1  0.33445154  0.50738998  0.37156172  1
  In  In45  1  0.34870911  0.49963202  0.88033405  1
  In  In46  1  0.32953321  0.83214411  0.36460875  1
  In  In47  1  0.33101174  0.83362447  0.88651628  1
  In  In48  1  0.66479291  0.16423351  0.38613852  1
  In  In49  1  0.65818506  0.15996926  0.84220325  1
  In  In50  1  0.66816168  0.51091307  0.38663459  1
  In  In51  1  0.67743954  0.49110077  0.87778054  1
  In  In52  1  0.67776447  0.83000745  0.37131337  1
  In  In53  1  0.67249300  0.85642034  0.87516136  1
  In  In54  1  0.16418983  -0.00750718  0.11788271  1
  In  In55  1  0.15142031  -0.00266166  0.62587044  1
  In  In56  1  0.16510953  0.31603209  0.11870977  1
  In  In57  1  0.16713259  0.32888367  0.63550166  1
  In  In58  1  0.15595087  0.67813775  0.13002022  1
  In  In59  1  0.15884205  0.65837797  0.62463386  1
  In  In60  1  0.48861213  -0.00303931  0.11973967  1
  In  In61  1  0.51638305  0.02581455  0.62131213  1
  In  In62  1  0.49623353  0.32655120  0.11556050  1
  In  In63  1  0.50302316  0.33285263  0.62814657  1
  In  In64  1  0.51414680  0.65625066  0.13322914  1
  In  In65  1  0.51131346  0.65378742  0.62299524  1
  In  In66  1  0.84809722  0.00813387  0.12489662  1
  In  In67  1  0.80343658  0.04521518  0.67808211  1
  In  In68  1  0.82994717  0.33953517  0.12384919  1
  In  In69  1  0.82952738  0.33880165  0.62535788  1
  In  In70  1  0.83110854  0.66489234  0.12460227  1
  In  In71  1  0.83952588  0.66959565  0.62097041  1
  In  In72  1  0.66801530  0.66820488  0.74745178  1
  In  In73  1  0.32727766  0.66715544  0.76465318  1
  In  In74  1  0.50365483  0.83167996  0.00227431  1
  In  In75  1  0.50251149  0.83345618  0.50063827  1
  In  In76  1  0.67007691  -0.00347427  0.25262699  1
  In  In77  1  0.16318796  0.16941627  0.50093259  1
  In  In78  1  0.83241235  0.83620894  0.49558414  1
  In  In79  1  0.32995696  0.00050467  0.76180651  1
  In  In80  1  0.16512019  0.49816480  0.00805151  1
  In  In81  1  0.16204348  0.83169489  0.48806597  1
  In  In82  1  0.16618084  0.49853585  0.49464476  1
  In  In83  1  0.67356475  0.33314211  0.25249347  1
  In  In84  1  0.82459865  0.16627353  -0.00591379  1
  In  In85  1  0.33083960  0.32961380  0.24743174  1
  Cu  Cu86  1  0.67053097  0.33447970  0.50542523  1
  Cu  Cu87  1  0.83377218  0.50287232  0.24691002  1
  Cu  Cu88  1  0.34312210  0.65639968  0.49754070  1
  Cu  Cu89  1  0.66665342  0.66188273  0.00180509  1
  Cu  Cu90  1  0.15904090  0.82329940  0.75741470  1
  Cu  Cu91  1  0.16389551  0.15964408  0.24059624  1
  Cu  Cu92  1  -0.01386539  0.01287565  0.50483136  1
  Cu  Cu93  1  0.34885625  0.33152283  0.50458891  1
  Cu  Cu94  1  0.50093300  0.49722979  0.75105290  1
  Cu  Cu95  1  0.16998326  0.16038878  0.75617612  1
  Cu  Cu96  1  -0.00471777  0.32994751  0.50431214  1
  Cu  Cu97  1  0.16430618  0.83681870  0.24402188  1
  Cu  Cu98  1  0.49516454  0.83004700  0.24437821  1
  Cu  Cu99  1  0.15788698  0.50160716  0.75290123  1
  Cu  Cu100  1  0.16489572  0.50106716  0.24718879  1
  Cu  Cu101  1  0.84141461  0.82611139  0.75680232  1
  Cu  Cu102  1  0.33758648  0.33403777  -0.00419929  1
  Cu  Cu103  1  0.33556695  0.66889317  0.00625070  1
  Cu  Cu104  1  0.33558852  0.00352934  0.49849562  1
  Cu  Cu105  1  0.83846971  0.83010136  0.24628006  1
  Cu  Cu106  1  0.00054033  0.66805144  0.49978219  1
  Cu  Cu107  1  0.50309909  0.84637876  0.74622043  1
  Cu  Cu108  1  0.66144610  0.33227268  -0.00822212  1
  Cu  Cu109  1  -0.00628943  0.32345632  -0.00830855  1
  Cu  Cu110  1  -0.00221094  -0.00084226  0.00168521  1
  Cu  Cu111  1  0.83231712  0.50097260  0.74806963  1
  Cu  Cu112  1  -0.00538718  0.66470532  0.00588086  1
  Cu  Cu113  1  0.49177548  0.16215663  0.24373314  1
  Cu  Cu114  1  0.50811202  0.49624455  0.25142987  1
  Se  Se115  1  0.08016989  0.08426968  0.05422787  1
  Se  Se116  1  0.07099696  0.08843067  0.56273367  1
  Se  Se117  1  0.06892937  0.40409346  0.05759520  1
  Se  Se118  1  0.08254674  0.40916861  0.56025054  1
  Se  Se119  1  0.08219845  0.75015545  0.05176850  1
  Se  Se120  1  0.07630011  0.75204132  0.55903291  1
  Se  Se121  1  0.44013412  0.10062857  0.05260253  1
  Se  Se122  1  0.41517631  0.08559132  0.55388434  1
  Se  Se123  1  0.41876552  0.41747770  0.04957625  1
  Se  Se124  1  0.42645082  0.42112987  0.55484822  1
  Se  Se125  1  0.41867165  0.74437820  0.06778757  1
  Se  Se126  1  0.40891534  0.74301348  0.56175456  1
  Se  Se127  1  0.74343475  0.07613727  0.06028021  1
  Se  Se128  1  0.74932313  0.07248678  0.57877583  1
  Se  Se129  1  0.74955483  0.40866449  0.04729782  1
  Se  Se130  1  0.75685157  0.42190167  0.55092408  1
  Se  Se131  1  0.74774734  0.74683455  0.05436386  1
  Se  Se132  1  0.74138563  0.74351305  0.55408445  1
  Se  Se133  1  0.24894499  0.25056212  0.04351097  1
  Se  Se134  1  0.25808316  0.25667961  0.55994381  1
  Se  Se135  1  0.25632821  0.58790019  0.06673436  1
  Se  Se136  1  0.25804978  0.58431641  0.55910826  1
  Se  Se137  1  0.26291540  0.92554151  0.05200866  1
  Se  Se138  1  0.25069372  0.92302469  0.55316366  1
  Se  Se139  1  0.58481039  0.24824616  0.04901908  1
  Se  Se140  1  0.58559886  0.25261877  0.55805940  1
  Se  Se141  1  0.58255568  0.57901414  0.05411556  1
  Se  Se142  1  0.58620493  0.58964960  0.54470429  1
  Se  Se143  1  0.59371731  0.92416849  0.05871850  1
  Se  Se144  1  0.59259655  0.92234346  0.56027659  1
  Se  Se145  1  0.91796797  0.24756536  0.05928192  1
  Se  Se146  1  0.91704613  0.24854009  0.56288541  1
  Se  Se147  1  0.91076605  0.57802211  0.05438555  1
  Se  Se148  1  0.92218779  0.58391602  0.55470405  1
  Se  Se149  1  0.91364667  0.91697728  0.05386441  1
  Se  Se150  1  0.90939857  0.92693265  0.56125009  1
  Se  Se151  1  0.07436562  0.25662038  0.43912095  1
  Se  Se152  1  0.08254827  0.24198520  0.94420978  1
  Se  Se153  1  0.07767570  0.58987153  0.43571777  1
  Se  Se154  1  0.07171718  0.57985004  0.94459792  1
  Se  Se155  1  0.06741485  0.93310191  0.44362547  1
  Se  Se156  1  0.08404786  0.91458651  0.95116133  1
  Se  Se157  1  0.42354832  0.24492731  0.44779645  1
  Se  Se158  1  0.42077131  0.25389639  0.94039926  1
  Se  Se159  1  0.42393673  0.57639235  0.44236137  1
  Se  Se160  1  0.41829767  0.58594753  0.95359418  1
  Se  Se161  1  0.40918232  0.91863708  0.43813260  1
  Se  Se162  1  0.42223869  0.92681238  0.94085094  1
  Se  Se163  1  0.74959890  0.24916843  0.45010348  1
  Se  Se164  1  0.73945600  0.25253388  0.92947106  1
  Se  Se165  1  0.76594597  0.58548082  0.44720446  1
  Se  Se166  1  0.75051462  0.57934714  0.94756428  1
  Se  Se167  1  0.73679005  0.92944431  0.44192120  1
  Se  Se168  1  0.75566107  0.91429555  0.95243283  1
  Se  Se169  1  0.25251928  0.07941667  0.43776369  1
  Se  Se170  1  0.26816838  0.07492070  0.95150083  1
  Se  Se171  1  0.26420334  0.40502805  0.44182932  1
  Se  Se172  1  0.24990722  0.41374114  0.93968761  1
  Se  Se173  1  0.25986442  0.73615783  0.43976504  1
  Se  Se174  1  0.25078303  0.75144686  0.95588545  1
  Se  Se175  1  0.57629518  0.08181428  0.44793937  1
  Se  Se176  1  0.61041019  0.08817988  0.93166395  1
  Se  Se177  1  0.58882744  0.41642958  0.44848705  1
  Se  Se178  1  0.57962297  0.41987454  0.94118455  1
  Se  Se179  1  0.58847053  0.74600029  0.43740574  1
  Se  Se180  1  0.59385094  0.74520753  0.93767361  1
  Se  Se181  1  0.90859522  0.09165844  0.44458853  1
  Se  Se182  1  0.92228745  0.07952944  0.93815797  1
  Se  Se183  1  0.91873164  0.41963321  0.45071486  1
  Se  Se184  1  0.90831538  0.40592232  0.94137019  1
  Se  Se185  1  0.92473483  0.74814959  0.43633465  1
  Se  Se186  1  0.91429079  0.75063548  0.95170140  1
  Se  Se187  1  0.23848391  0.23885906  0.30762456  1
  Se  Se188  1  0.24915957  0.24916077  0.80681332  1
  Se  Se189  1  0.25225734  0.58087496  0.29912340  1
  Se  Se190  1  0.23700820  0.57369295  0.82011765  1
  Se  Se191  1  0.24746515  0.91848995  0.29996592  1
  Se  Se192  1  0.23918456  0.90544946  0.81536996  1
  Se  Se193  1  0.57649310  0.23812035  0.30457927  1
  Se  Se194  1  0.59562940  0.27454238  0.79384072  1
  Se  Se195  1  0.58914778  0.57827396  0.30700633  1
  Se  Se196  1  0.57703707  0.58209258  0.81073753  1
  Se  Se197  1  0.57289511  0.90801412  0.30982931  1
  Se  Se198  1  0.58693806  0.92463368  0.80112829  1
  Se  Se199  1  0.92539803  0.26996121  0.30817091  1
  Se  Se200  1  0.91850140  0.24166585  0.79463262  1
  Se  Se201  1  0.92183084  0.58439895  0.29896944  1
  Se  Se202  1  0.91261404  0.58388968  0.80406054  1
  Se  Se203  1  0.91254301  0.91913931  0.30178283  1
  Se  Se204  1  0.92115144  0.91261394  0.81016668  1
  Se  Se205  1  0.08024540  0.08270537  0.29993014  1
  Se  Se206  1  0.08944718  0.07396849  0.80848226  1
  Se  Se207  1  0.08294327  0.41800075  0.30059961  1
  Se  Se208  1  0.07660748  0.41401802  0.80411646  1
  Se  Se209  1  0.08241171  0.75321150  0.29907486  1
  Se  Se210  1  0.07824260  0.74228228  0.81257860  1
  Se  Se211  1  0.40817877  0.08116720  0.29821494  1
  Se  Se212  1  0.42270893  0.09696766  0.80841283  1
  Se  Se213  1  0.42717984  0.41349393  0.30943855  1
  Se  Se214  1  0.41350600  0.41852052  0.80359154  1
  Se  Se215  1  0.41466132  0.74659114  0.30147357  1
  Se  Se216  1  0.42548727  0.76701213  0.80841962  1
  Se  Se217  1  0.75260704  0.09365859  0.31025577  1
  Se  Se218  1  0.76985296  0.08479829  0.79787544  1
  Se  Se219  1  0.75721481  0.42539589  0.31308420  1
  Se  Se220  1  0.74990411  0.41688921  0.80012289  1
  Se  Se221  1  0.75195501  0.74919804  0.29881808  1
  Se  Se222  1  0.75381740  0.75090359  0.81536910  1
  Se  Se223  1  0.24821252  0.08076025  0.18550373  1
  Se  Se224  1  0.24500093  0.08390727  0.68939223  1
  Se  Se225  1  0.24166465  0.41947142  0.18528707  1
  Se  Se226  1  0.24417306  0.42249563  0.69921894  1
  Se  Se227  1  0.25010326  0.75051391  0.19618661  1
  Se  Se228  1  0.24398293  0.75315156  0.69313459  1
  Se  Se229  1  0.58254111  0.08649076  0.18932962  1
  Se  Se230  1  0.57787948  0.09694661  0.70280177  1
  Se  Se231  1  0.58043713  0.41419016  0.18803737  1
  Se  Se232  1  0.58638909  0.42386686  0.69265055  1
  Se  Se233  1  0.58715712  0.74747221  0.20172703  1
  Se  Se234  1  0.57744948  0.76084521  0.68722347  1
  Se  Se235  1  0.91229986  0.08507766  0.20304272  1
  Se  Se236  1  0.94832201  0.05372072  0.69288534  1
  Se  Se237  1  0.91393755  0.41634529  0.19431274  1
  Se  Se238  1  0.91786123  0.41877608  0.69503372  1
  Se  Se239  1  0.91854834  0.74680400  0.19076527  1
  Se  Se240  1  0.91651794  0.74190111  0.69854041  1
  Se  Se241  1  0.08210179  0.24950129  0.19369926  1
  Se  Se242  1  0.08726781  0.24615767  0.70388017  1
  Se  Se243  1  0.08133932  0.58477514  0.19501221  1
  Se  Se244  1  0.07994006  0.58944219  0.70052415  1
  Se  Se245  1  0.07968041  0.91811649  0.19046441  1
  Se  Se246  1  0.08639166  0.90600832  0.69631374  1
  Se  Se247  1  0.41211481  0.24023984  0.18329865  1
  Se  Se248  1  0.40356017  0.27100858  0.69615046  1
  Se  Se249  1  0.42205049  0.57902022  0.20015249  1
  Se  Se250  1  0.41807342  0.58354403  0.69702308  1
  Se  Se251  1  0.41563011  0.91923128  0.19560495  1
  Se  Se252  1  0.42122572  0.92567218  0.68828845  1
  Se  Se253  1  0.76271481  0.24053505  0.19507841  1
  Se  Se254  1  0.75559661  0.25470131  0.69668697  1
  Se  Se255  1  0.74624638  0.57993325  0.19239750  1
  Se  Se256  1  0.75193288  0.57762783  0.68521234  1
  Se  Se257  1  0.75549044  0.90965234  0.18726401  1
  Se  Se258  1  0.75196302  0.90981283  0.71030875  1
