# generated using pymatgen
data_In86Cu29Se144
_symmetry_space_group_name_H-M   'P 1'
_cell_length_a   17.71451650
_cell_length_b   17.72709222
_cell_length_c   23.57378195
_cell_angle_alpha   90.02267641
_cell_angle_beta   90.04399061
_cell_angle_gamma   89.97134242
_symmetry_Int_Tables_number   1
_chemical_formula_structural   In86Cu29Se144
_chemical_formula_sum   'In86 Cu29 Se144'
_cell_volume   7402.79721578
_cell_formula_units_Z   1
loop_
 _symmetry_equiv_pos_site_id
 _symmetry_equiv_pos_as_xyz
  1  'x, y, z'
loop_
 _atom_site_type_symbol
 _atom_site_label
 _atom_site_symmetry_multiplicity
 _atom_site_fract_x
 _atom_site_fract_y
 _atom_site_fract_z
 _atom_site_occupancy
  In  In0  1  -0.00873349  0.17479265  0.12572932  1
  In  In1  1  -0.00061295  0.15810423  0.61973195  1
  In  In2  1  -0.00250365  0.49741233  0.11524682  1
  In  In3  1  0.01724982  0.51362511  0.62504163  1
  In  In4  1  -0.01518553  0.82310840  0.11011238  1
  In  In5  1  -0.00292181  0.82770201  0.62622269  1
  In  In6  1  0.33750020  0.15727660  0.12263289  1
  In  In7  1  0.35074143  0.18067345  0.61860387  1
  In  In8  1  0.33730711  0.50693078  0.11693558  1
  In  In9  1  0.35155299  0.49776444  0.63105280  1
  In  In10  1  0.34034282  0.83418475  0.10980439  1
  In  In11  1  0.34487902  0.81576009  0.63710628  1
  In  In12  1  0.65222954  0.15200204  0.10555089  1
  In  In13  1  0.66312104  0.16751944  0.63218057  1
  In  In14  1  0.67283013  0.50914455  0.11785886  1
  In  In15  1  0.66486021  0.50985717  0.62715317  1
  In  In16  1  0.65433287  0.82124476  0.12495575  1
  In  In17  1  0.66129846  0.83724434  0.62770720  1
  In  In18  1  0.17608010  0.00241545  0.37396706  1
  In  In19  1  0.15763682  -0.00032690  0.87807714  1
  In  In20  1  0.17629219  0.33380841  0.38609921  1
  In  In21  1  0.18923460  0.34596587  0.86045367  1
  In  In22  1  0.15987222  0.66471355  0.38065206  1
  In  In23  1  0.16108752  0.67211793  0.87141071  1
  In  In24  1  0.52237166  -0.01808869  0.39321414  1
  In  In25  1  0.52368223  -0.01082774  0.89416829  1
  In  In26  1  0.50813427  0.33186069  0.38616453  1
  In  In27  1  0.49438801  0.33844211  0.87180825  1
  In  In28  1  0.51175441  0.65998719  0.39409297  1
  In  In29  1  0.50242560  0.65369207  0.85882031  1
  In  In30  1  0.82250742  -0.00158764  0.36188954  1
  In  In31  1  0.81278661  0.01509535  0.89652457  1
  In  In32  1  0.84060455  0.33868829  0.37695135  1
  In  In33  1  0.82402035  0.34734833  0.88072084  1
  In  In34  1  0.80525979  0.67031286  0.38267760  1
  In  In35  1  0.83078653  0.66536621  0.87341632  1
  In  In36  1  0.00146806  0.18005850  0.37446211  1
  In  In37  1  -0.00263747  0.16009785  0.87696359  1
  In  In38  1  0.00045409  0.50362406  0.38533448  1
  In  In39  1  0.00061523  0.50691550  0.87159765  1
  In  In40  1  -0.00847478  0.83051613  0.37055823  1
  In  In41  1  -0.00601439  0.83289312  0.88482255  1
  In  In42  1  0.33783113  0.16529365  0.37965142  1
  In  In43  1  0.34457037  0.18161279  0.86855763  1
  In  In44  1  0.33861572  0.49992812  0.38986614  1
  In  In45  1  0.33151512  0.50215927  0.86855282  1
  In  In46  1  0.33814643  0.84071426  0.37897980  1
  In  In47  1  0.34976847  0.81608594  0.87839066  1
  In  In48  1  0.66816685  0.15495553  0.37450693  1
  In  In49  1  0.65736742  0.16990978  0.88253284  1
  In  In50  1  0.65529767  0.51696802  0.39483079  1
  In  In51  1  0.66291738  0.49739589  0.86648239  1
  In  In52  1  0.66412911  0.82904593  0.36733939  1
  In  In53  1  0.66802740  0.82757336  0.87821508  1
  In  In54  1  0.17962715  -0.00421617  0.12435760  1
  In  In55  1  0.16317201  0.00234427  0.61714629  1
  In  In56  1  0.15914669  0.33737050  0.12311493  1
  In  In57  1  0.19078328  0.35037650  0.62064119  1
  In  In58  1  0.16097439  0.66404309  0.11211038  1
  In  In59  1  0.21229874  0.61443008  0.68288344  1
  In  In60  1  0.50741488  -0.00179868  0.11218981  1
  In  In61  1  0.51528445  0.00791974  0.61274820  1
  In  In62  1  0.49953504  0.33798655  0.11804510  1
  In  In63  1  0.51012295  0.33778501  0.63389714  1
  In  In64  1  0.51007545  0.67413548  0.11723564  1
  In  In65  1  0.50808254  0.66412281  0.62603049  1
  In  In66  1  0.76793375  -0.03593862  0.06404729  1
  In  In67  1  0.82746172  -0.00811375  0.62519563  1
  In  In68  1  0.82884702  0.33272554  0.11062875  1
  In  In69  1  0.81418571  0.33541173  0.63645756  1
  In  In70  1  0.82189519  0.65803238  0.11862794  1
  In  In71  1  0.84455045  0.66403718  0.63466491  1
  In  In72  1  0.83450839  0.17165454  0.49553564  1
  In  In73  1  0.16921964  0.82501128  0.50747288  1
  In  In74  1  0.33705881  0.33276824  0.26257476  1
  In  In75  1  0.33897701  0.66905264  0.24952429  1
  In  In76  1  -0.01000877  0.65934736  0.23861821  1
  In  In77  1  -0.01704716  -0.00824649  0.75768073  1
  In  In78  1  -0.00140639  0.33500098  0.24575409  1
  In  In79  1  -0.00081831  0.32976180  0.75255531  1
  In  In80  1  0.16680770  0.17309071  -0.00161111  1
  In  In81  1  0.33700308  0.00183072  0.75263550  1
  In  In82  1  0.33645108  0.00132794  0.25117977  1
  In  In83  1  0.83255834  0.83405345  0.49533625  1
  In  In84  1  -0.00209432  0.00426246  0.24355781  1
  In  In85  1  0.66980054  0.33559140  0.25030992  1
  Cu  Cu86  1  0.50582664  0.16321764  0.75328236  1
  Cu  Cu87  1  -0.00058350  0.00343057  0.00022377  1
  Cu  Cu88  1  0.65938908  0.65378299  -0.01013908  1
  Cu  Cu89  1  0.00473960  0.65845830  0.50772217  1
  Cu  Cu90  1  0.82605958  0.50526782  0.24995212  1
  Cu  Cu91  1  0.33609667  0.00092540  0.50022800  1
  Cu  Cu92  1  0.50121527  0.15903120  0.24517311  1
  Cu  Cu93  1  0.16092201  0.83856698  0.75901826  1
  Cu  Cu94  1  0.16784465  0.16518358  0.74093834  1
  Cu  Cu95  1  0.00500788  0.33454281  0.50429861  1
  Cu  Cu96  1  0.66404148  0.33784708  0.51082888  1
  Cu  Cu97  1  0.82290844  0.16012494  0.23986505  1
  Cu  Cu98  1  0.81952260  0.16338823  0.75713705  1
  Cu  Cu99  1  0.83623571  0.50151739  0.75256710  1
  Cu  Cu100  1  0.51312057  0.50883340  0.25771503  1
  Cu  Cu101  1  0.33301739  0.00163641  -0.00272427  1
  Cu  Cu102  1  0.32788817  0.65957879  -0.01088926  1
  Cu  Cu103  1  0.50854581  0.83500414  0.75520714  1
  Cu  Cu104  1  0.16146357  0.82615285  0.23934293  1
  Cu  Cu105  1  0.81906122  0.83615144  0.75399217  1
  Cu  Cu106  1  0.33405130  0.66038663  0.51943107  1
  Cu  Cu107  1  0.01280396  0.34289004  -0.00800693  1
  Cu  Cu108  1  0.00688679  0.00519722  0.49277255  1
  Cu  Cu109  1  0.50225231  0.83350432  0.25141481  1
  Cu  Cu110  1  0.33620442  0.34075530  -0.00875628  1
  Cu  Cu111  1  0.17249510  0.49513499  0.25359057  1
  Cu  Cu112  1  -0.00381827  0.66529870  -0.00539310  1
  Cu  Cu113  1  0.66218935  0.33945269  -0.00581992  1
  Cu  Cu114  1  0.33342528  0.33743195  0.50728547  1
  Se  Se115  1  0.08237817  0.08116535  0.06139325  1
  Se  Se116  1  0.08618338  0.08707763  0.54770988  1
  Se  Se117  1  0.09138221  0.42262234  0.05064522  1
  Se  Se118  1  0.08637021  0.41597262  0.56034811  1
  Se  Se119  1  0.08050661  0.75003326  0.04704037  1
  Se  Se120  1  0.08398742  0.73745420  0.56784593  1
  Se  Se121  1  0.41674851  0.08317630  0.05071489  1
  Se  Se122  1  0.41897923  0.08490457  0.55237851  1
  Se  Se123  1  0.41687894  0.42039206  0.05109030  1
  Se  Se124  1  0.42392208  0.41167447  0.55996870  1
  Se  Se125  1  0.41091022  0.73592411  0.04931394  1
  Se  Se126  1  0.42130388  0.74995141  0.55853521  1
  Se  Se127  1  0.77473941  0.11064563  0.05705319  1
  Se  Se128  1  0.74899003  0.08346856  0.55806238  1
  Se  Se129  1  0.74704864  0.42093097  0.04857572  1
  Se  Se130  1  0.74846128  0.41873757  0.56202127  1
  Se  Se131  1  0.73310833  0.73576071  0.05292435  1
  Se  Se132  1  0.75646392  0.74959698  0.56544156  1
  Se  Se133  1  0.26093566  0.26093597  0.05818993  1
  Se  Se134  1  0.25018401  0.24784041  0.55492579  1
  Se  Se135  1  0.24803955  0.58073827  0.04954982  1
  Se  Se136  1  0.25071913  0.58359994  0.57676853  1
  Se  Se137  1  0.24969311  0.91757750  0.04840635  1
  Se  Se138  1  0.26295671  0.91698358  0.56321968  1
  Se  Se139  1  0.58088685  0.25687348  0.05001027  1
  Se  Se140  1  0.58517281  0.25030863  0.56200197  1
  Se  Se141  1  0.57770186  0.57769172  0.05084629  1
  Se  Se142  1  0.59140228  0.59087671  0.55349045  1
  Se  Se143  1  0.55285117  0.88199921  0.05749604  1
  Se  Se144  1  0.59298521  0.91681795  0.55090565  1
  Se  Se145  1  0.93241403  0.26386115  0.05093719  1
  Se  Se146  1  0.91698781  0.25992033  0.56260178  1
  Se  Se147  1  0.91510383  0.58406649  0.05251220  1
  Se  Se148  1  0.91745498  0.58098438  0.56052367  1
  Se  Se149  1  0.91418431  0.92325318  0.05145400  1
  Se  Se150  1  0.92825137  0.92646924  0.55451408  1
  Se  Se151  1  0.08337735  0.25233094  0.44699857  1
  Se  Se152  1  0.08686508  0.26082656  0.92980776  1
  Se  Se153  1  0.09067826  0.57964514  0.45248735  1
  Se  Se154  1  0.08273661  0.58689005  0.94185010  1
  Se  Se155  1  0.08207947  0.91450205  0.43802085  1
  Se  Se156  1  0.08088844  0.91931857  0.94842177  1
  Se  Se157  1  0.41121670  0.25659285  0.44623878  1
  Se  Se158  1  0.41959834  0.25206297  0.94613885  1
  Se  Se159  1  0.41623167  0.58521870  0.45682430  1
  Se  Se160  1  0.41624704  0.58407537  0.93526020  1
  Se  Se161  1  0.41808654  0.91295248  0.45187691  1
  Se  Se162  1  0.41360162  0.91689857  0.94358359  1
  Se  Se163  1  0.73877937  0.26339414  0.44078906  1
  Se  Se164  1  0.74829742  0.25563364  0.94518575  1
  Se  Se165  1  0.77232661  0.56403269  0.44989458  1
  Se  Se166  1  0.74710704  0.57644658  0.93694513  1
  Se  Se167  1  0.74489641  0.92755257  0.43939528  1
  Se  Se168  1  0.74441381  0.91112524  0.95479282  1
  Se  Se169  1  0.25266017  0.08109044  0.44557993  1
  Se  Se170  1  0.25641401  0.08470279  0.93650258  1
  Se  Se171  1  0.24954178  0.42177986  0.45436823  1
  Se  Se172  1  0.24893445  0.42178925  0.94254739  1
  Se  Se173  1  0.26265714  0.73773813  0.44554061  1
  Se  Se174  1  0.24816036  0.75070124  0.94125993  1
  Se  Se175  1  0.57390368  0.09923342  0.44474256  1
  Se  Se176  1  0.59234650  0.08388068  0.95851334  1
  Se  Se177  1  0.58082453  0.41932130  0.45493991  1
  Se  Se178  1  0.57981175  0.42016696  0.93925233  1
  Se  Se179  1  0.59142475  0.75975255  0.44591950  1
  Se  Se180  1  0.57935546  0.73559929  0.93322614  1
  Se  Se181  1  0.92043807  0.07664892  0.43240664  1
  Se  Se182  1  0.91720664  0.09093170  0.95162243  1
  Se  Se183  1  0.92066990  0.41361499  0.44923048  1
  Se  Se184  1  0.92343243  0.42050060  0.94085005  1
  Se  Se185  1  0.92759890  0.73685929  0.44307366  1
  Se  Se186  1  0.90738400  0.74805399  0.94738946  1
  Se  Se187  1  0.24096796  0.24072022  0.31092476  1
  Se  Se188  1  0.25058513  0.24248259  0.79744533  1
  Se  Se189  1  0.24869846  0.57869696  0.31211653  1
  Se  Se190  1  0.24666900  0.59065915  0.80405635  1
  Se  Se191  1  0.24090617  0.90212004  0.30286051  1
  Se  Se192  1  0.24739236  0.91414061  0.81488229  1
  Se  Se193  1  0.57513629  0.24479155  0.30636507  1
  Se  Se194  1  0.58157456  0.25064424  0.80895593  1
  Se  Se195  1  0.58946733  0.59215316  0.31393356  1
  Se  Se196  1  0.56797230  0.55444094  0.79167947  1
  Se  Se197  1  0.58203210  0.92024460  0.30417381  1
  Se  Se198  1  0.58806984  0.91725832  0.81128585  1
  Se  Se199  1  0.90170922  0.24119654  0.30080021  1
  Se  Se200  1  0.90651913  0.24208163  0.81205172  1
  Se  Se201  1  0.91184061  0.57724894  0.31106199  1
  Se  Se202  1  0.91737535  0.58741714  0.80353851  1
  Se  Se203  1  0.90866760  0.90704411  0.29890666  1
  Se  Se204  1  0.89158951  0.91497942  0.82217836  1
  Se  Se205  1  0.08659201  0.08870445  0.30943049  1
  Se  Se206  1  0.08691341  0.08852649  0.80145875  1
  Se  Se207  1  0.08806668  0.41993344  0.31197680  1
  Se  Se208  1  0.09131557  0.42665164  0.80061103  1
  Se  Se209  1  0.08547260  0.74856798  0.30245775  1
  Se  Se210  1  0.07265300  0.75992825  0.80929119  1
  Se  Se211  1  0.42842405  0.08370942  0.31227614  1
  Se  Se212  1  0.43142977  0.08092881  0.81570218  1
  Se  Se213  1  0.43076589  0.42893154  0.31469596  1
  Se  Se214  1  0.39013543  0.39548319  0.80622805  1
  Se  Se215  1  0.42477902  0.75486073  0.31390707  1
  Se  Se216  1  0.41933271  0.74812756  0.79696077  1
  Se  Se217  1  0.74021048  0.08195723  0.29565963  1
  Se  Se218  1  0.74154295  0.08295976  0.81488751  1
  Se  Se219  1  0.75226547  0.42563839  0.31368213  1
  Se  Se220  1  0.75211018  0.41491243  0.80005712  1
  Se  Se221  1  0.76590796  0.76191839  0.30613105  1
  Se  Se222  1  0.74376492  0.74536643  0.80548018  1
  Se  Se223  1  0.24233428  0.09369992  0.19554827  1
  Se  Se224  1  0.25091021  0.08633419  0.68433240  1
  Se  Se225  1  0.25227049  0.41854871  0.19251702  1
  Se  Se226  1  0.26818331  0.41109967  0.69917764  1
  Se  Se227  1  0.24769041  0.75063936  0.18309187  1
  Se  Se228  1  0.23614003  0.76144589  0.69621477  1
  Se  Se229  1  0.58037220  0.08095427  0.18604291  1
  Se  Se230  1  0.58182872  0.07818947  0.69642973  1
  Se  Se231  1  0.57849378  0.42471132  0.19181914  1
  Se  Se232  1  0.57286256  0.44096631  0.69874151  1
  Se  Se233  1  0.57802945  0.74151125  0.20067480  1
  Se  Se234  1  0.58603013  0.75152645  0.69707306  1
  Se  Se235  1  0.90497906  0.08277228  0.18194869  1
  Se  Se236  1  0.90423914  0.09076396  0.69460930  1
  Se  Se237  1  0.90437535  0.42458421  0.18930326  1
  Se  Se238  1  0.91445177  0.42112153  0.69039164  1
  Se  Se239  1  0.90119786  0.75458828  0.18712936  1
  Se  Se240  1  0.91181357  0.76379174  0.70076701  1
  Se  Se241  1  0.09343953  0.24187391  0.19428696  1
  Se  Se242  1  0.08425397  0.24465895  0.68517759  1
  Se  Se243  1  0.09278814  0.57030928  0.18967662  1
  Se  Se244  1  0.06888328  0.59880414  0.70382975  1
  Se  Se245  1  0.08338075  0.90768110  0.18214549  1
  Se  Se246  1  0.08592959  0.91913377  0.69425395  1
  Se  Se247  1  0.42140512  0.24583842  0.19228028  1
  Se  Se248  1  0.42610893  0.24713147  0.69781416  1
  Se  Se249  1  0.42730179  0.57646732  0.19276498  1
  Se  Se250  1  0.41376416  0.59975308  0.69564581  1
  Se  Se251  1  0.41888511  0.90853029  0.19010016  1
  Se  Se252  1  0.42952416  0.91614578  0.69291367  1
  Se  Se253  1  0.74935980  0.24870212  0.18294702  1
  Se  Se254  1  0.73977534  0.24961651  0.70481661  1
  Se  Se255  1  0.74330803  0.58579024  0.19598259  1
  Se  Se256  1  0.75415062  0.58442152  0.69794627  1
  Se  Se257  1  0.74498409  0.92175911  0.16762679  1
  Se  Se258  1  0.74436310  0.92162380  0.69719075  1
