# generated using pymatgen
data_In86Cu29Se144
_symmetry_space_group_name_H-M   'P 1'
_cell_length_a   17.57839203
_cell_length_b   17.57499597
_cell_length_c   23.44031970
_cell_angle_alpha   90.01515580
_cell_angle_beta   89.98960931
_cell_angle_gamma   90.01495279
_symmetry_Int_Tables_number   1
_chemical_formula_structural   In86Cu29Se144
_chemical_formula_sum   'In86 Cu29 Se144'
_cell_volume   7241.65571323
_cell_formula_units_Z   1
loop_
 _symmetry_equiv_pos_site_id
 _symmetry_equiv_pos_as_xyz
  1  'x, y, z'
loop_
 _atom_site_type_symbol
 _atom_site_label
 _atom_site_symmetry_multiplicity
 _atom_site_fract_x
 _atom_site_fract_y
 _atom_site_fract_z
 _atom_site_occupancy
  In  In0  1  -0.00340491  0.15970194  0.12060058  1
  In  In1  1  0.00922847  0.17127561  0.62075382  1
  In  In2  1  0.00986987  0.50888193  0.11969815  1
  In  In3  1  -0.00159707  0.50185995  0.63282112  1
  In  In4  1  -0.00003916  0.83408262  0.12532713  1
  In  In5  1  0.00013222  0.82641318  0.61984366  1
  In  In6  1  0.34238305  0.18102914  0.11639435  1
  In  In7  1  0.33447307  0.17362007  0.62359349  1
  In  In8  1  0.32784754  0.49140783  0.12165850  1
  In  In9  1  0.33394701  0.48256954  0.62697975  1
  In  In10  1  0.32793074  0.84739303  0.12466049  1
  In  In11  1  0.32534694  0.84132278  0.61837343  1
  In  In12  1  0.67010958  0.17845264  0.12354378  1
  In  In13  1  0.67240538  0.15860989  0.63510821  1
  In  In14  1  0.65535115  0.48197804  0.11143995  1
  In  In15  1  0.65459249  0.49653981  0.62567271  1
  In  In16  1  0.66956935  0.81945710  0.12296286  1
  In  In17  1  0.67889689  0.83081128  0.62722890  1
  In  In18  1  0.15440067  0.02172063  0.38404368  1
  In  In19  1  0.16489122  0.00061175  0.88258134  1
  In  In20  1  0.17121939  0.30878216  0.36992333  1
  In  In21  1  0.16586844  0.33616621  0.87691964  1
  In  In22  1  0.16034785  0.68243808  0.37952883  1
  In  In23  1  0.15732810  0.67350692  0.87940272  1
  In  In24  1  0.49197219  0.00563636  0.37381400  1
  In  In25  1  0.51995075  0.00382951  0.87162542  1
  In  In26  1  0.50394183  0.34098969  0.35764852  1
  In  In27  1  0.49981357  0.33185663  0.87621632  1
  In  In28  1  0.48564937  0.64695333  0.37663147  1
  In  In29  1  0.49017320  0.66394940  0.87793565  1
  In  In30  1  0.84051456  -0.01026078  0.38259766  1
  In  In31  1  0.82468086  0.01221204  0.88286705  1
  In  In32  1  0.82171700  0.33320396  0.37455770  1
  In  In33  1  0.83308666  0.33453146  0.87561138  1
  In  In34  1  0.84777290  0.67121833  0.37424070  1
  In  In35  1  0.84442774  0.65589253  0.88057217  1
  In  In36  1  0.00864123  0.15316695  0.37877191  1
  In  In37  1  -0.01283980  0.17912045  0.88482706  1
  In  In38  1  -0.00831330  0.50691470  0.36789453  1
  In  In39  1  0.00079781  0.50028494  0.87552003  1
  In  In40  1  -0.00188037  0.83675428  0.37436637  1
  In  In41  1  0.00588573  0.82387318  0.87725964  1
  In  In42  1  0.32082373  0.17540514  0.36974940  1
  In  In43  1  0.32145309  0.17867783  0.88276290  1
  In  In44  1  0.34915258  0.49913168  0.37360597  1
  In  In45  1  0.34436493  0.48897997  0.88383338  1
  In  In46  1  0.31126505  0.83418360  0.38763386  1
  In  In47  1  0.33047465  0.82409437  0.87731880  1
  In  In48  1  0.66297614  0.18494797  0.37468433  1
  In  In49  1  0.66613923  0.16906354  0.87701478  1
  In  In50  1  0.66155110  0.48283484  0.36839704  1
  In  In51  1  0.67648032  0.48855972  0.88140865  1
  In  In52  1  0.67287056  0.84435171  0.38104682  1
  In  In53  1  0.66950353  0.85268498  0.87219803  1
  In  In54  1  0.16012244  -0.00990749  0.11633370  1
  In  In55  1  0.17205527  -0.00293099  0.61070242  1
  In  In56  1  0.17020297  0.33535687  0.11878205  1
  In  In57  1  0.17087955  0.33094795  0.63112442  1
  In  In58  1  0.15745468  0.65956148  0.12241475  1
  In  In59  1  0.15372260  0.66662702  0.62248900  1
  In  In60  1  0.48927224  0.01153533  0.12566941  1
  In  In61  1  0.49890133  0.00979741  0.62926227  1
  In  In62  1  0.49930643  0.33669717  0.13037831  1
  In  In63  1  0.49392247  0.33411535  0.63369690  1
  In  In64  1  0.50534452  0.65418880  0.12375594  1
  In  In65  1  0.51436639  0.65652476  0.62054266  1
  In  In66  1  0.84478725  0.01130011  0.11838865  1
  In  In67  1  0.83072480  -0.00375863  0.62418052  1
  In  In68  1  0.82518969  0.32352312  0.11744387  1
  In  In69  1  0.84239989  0.32250622  0.63283922  1
  In  In70  1  0.84237939  0.67564922  0.11683861  1
  In  In71  1  0.83861807  0.67868089  0.62346975  1
  In  In72  1  0.50232763  0.82321515  0.49910960  1
  In  In73  1  -0.00102718  0.33294533  0.24265052  1
  In  In74  1  0.32835114  0.66236658  0.25086484  1
  In  In75  1  0.33639020  0.00498571  0.74353528  1
  In  In76  1  -0.00207423  0.00298466  0.75163909  1
  In  In77  1  0.33421173  0.66278057  0.75732766  1
  In  In78  1  0.67185365  0.65875784  0.25315515  1
  In  In79  1  0.32682645  0.01452137  0.25572658  1
  In  In80  1  0.67431289  0.01119292  0.24066503  1
  In  In81  1  0.49638419  0.16461755  0.50091130  1
  In  In82  1  0.50009448  0.83358137  -0.00183723  1
  In  In83  1  0.83314751  0.50013272  0.50389853  1
  In  In84  1  0.67404505  0.66455756  0.74778989  1
  In  In85  1  0.16969748  0.50386827  0.49429053  1
  Cu  Cu86  1  0.33619913  0.33498912  0.00047148  1
  Cu  Cu87  1  0.00078746  0.66878223  0.00015048  1
  Cu  Cu88  1  0.83766297  0.16464770  0.24741065  1
  Cu  Cu89  1  0.32722337  0.66388552  0.00081227  1
  Cu  Cu90  1  0.16341744  0.83244108  0.75100484  1
  Cu  Cu91  1  0.00516269  0.32904604  0.50071453  1
  Cu  Cu92  1  0.66398888  0.33024373  -0.00249206  1
  Cu  Cu93  1  0.15597863  0.83762469  0.25000419  1
  Cu  Cu94  1  0.83706111  0.83547702  0.74824661  1
  Cu  Cu95  1  0.67413533  0.00210476  0.50570096  1
  Cu  Cu96  1  0.33203982  0.00606289  0.00058597  1
  Cu  Cu97  1  0.84538850  0.83793508  0.24819431  1
  Cu  Cu98  1  0.66969500  0.65654544  0.50001890  1
  Cu  Cu99  1  0.83013739  0.50467120  0.24429490  1
  Cu  Cu100  1  0.66212115  0.33056665  0.49692484  1
  Cu  Cu101  1  0.82810480  0.17010945  0.75763407  1
  Cu  Cu102  1  0.49729439  0.83129517  0.25948307  1
  Cu  Cu103  1  0.67194896  0.66269431  -0.00044137  1
  Cu  Cu104  1  -0.00178346  -0.00720402  -0.00112399  1
  Cu  Cu105  1  0.50273294  0.49353684  0.75494311  1
  Cu  Cu106  1  0.33456371  0.33204706  0.50261848  1
  Cu  Cu107  1  0.50073294  0.16922863  0.75392145  1
  Cu  Cu108  1  -0.00223468  -0.00187724  0.50105422  1
  Cu  Cu109  1  0.83729947  0.49592585  0.75596964  1
  Cu  Cu110  1  0.66833553  0.00489956  0.00217310  1
  Cu  Cu111  1  0.00054436  0.33698512  -0.00005622  1
  Cu  Cu112  1  0.16023941  0.17661128  0.75259173  1
  Cu  Cu113  1  0.16449365  0.50044693  0.24625792  1
  Cu  Cu114  1  0.16505150  0.49666122  0.75225689  1
  Se  Se115  1  0.08071068  0.07988972  0.05026178  1
  Se  Se116  1  0.08375616  0.08404197  0.55082417  1
  Se  Se117  1  0.08599614  0.41961055  0.05201344  1
  Se  Se118  1  0.08046051  0.41531360  0.55895647  1
  Se  Se119  1  0.08403977  0.75190377  0.05542527  1
  Se  Se120  1  0.09463426  0.75990127  0.55155019  1
  Se  Se121  1  0.41998094  0.08875534  0.04863920  1
  Se  Se122  1  0.40339635  0.07109283  0.55601335  1
  Se  Se123  1  0.42008715  0.41750773  0.05493950  1
  Se  Se124  1  0.42166389  0.41161720  0.55527048  1
  Se  Se125  1  0.40983629  0.74434898  0.06223047  1
  Se  Se126  1  0.41340601  0.73870784  0.56326502  1
  Se  Se127  1  0.74991229  0.08922464  0.05680004  1
  Se  Se128  1  0.75334529  0.08918548  0.55822050  1
  Se  Se129  1  0.75409387  0.41390282  0.04681975  1
  Se  Se130  1  0.74408831  0.40599992  0.56072700  1
  Se  Se131  1  0.75236470  0.75260117  0.04784859  1
  Se  Se132  1  0.74669023  0.74534594  0.55216029  1
  Se  Se133  1  0.24766769  0.25018318  0.04785165  1
  Se  Se134  1  0.24781225  0.25210742  0.55545529  1
  Se  Se135  1  0.24649483  0.58073470  0.05644493  1
  Se  Se136  1  0.25535938  0.58190410  0.56573346  1
  Se  Se137  1  0.25044983  0.91419465  0.04658543  1
  Se  Se138  1  0.24654946  0.90970490  0.54299375  1
  Se  Se139  1  0.57986934  0.25405733  0.05659433  1
  Se  Se140  1  0.58727907  0.25086774  0.56285299  1
  Se  Se141  1  0.58248250  0.58152613  0.04800814  1
  Se  Se142  1  0.58322353  0.57134541  0.54626660  1
  Se  Se143  1  0.58752650  0.92363189  0.06340563  1
  Se  Se144  1  0.58687991  0.92158353  0.56043369  1
  Se  Se145  1  0.91968718  0.24913331  0.05263544  1
  Se  Se146  1  0.91784152  0.24980338  0.55441620  1
  Se  Se147  1  0.91793049  0.58223647  0.05140723  1
  Se  Se148  1  0.92761508  0.59175187  0.55661514  1
  Se  Se149  1  0.91411368  0.91234075  0.05425412  1
  Se  Se150  1  0.91643143  0.91590817  0.55729060  1
  Se  Se151  1  0.08617895  0.24494753  0.44645784  1
  Se  Se152  1  0.08456465  0.25215026  0.94749815  1
  Se  Se153  1  0.06883492  0.59037870  0.44219783  1
  Se  Se154  1  0.08300227  0.58291903  0.94691509  1
  Se  Se155  1  0.08243746  0.91986759  0.44358308  1
  Se  Se156  1  0.08414894  0.91098761  0.94593731  1
  Se  Se157  1  0.41576581  0.25753847  0.43798194  1
  Se  Se158  1  0.41868665  0.24956911  0.94726364  1
  Se  Se159  1  0.40708267  0.58136799  0.45375976  1
  Se  Se160  1  0.41724638  0.58342748  0.95150709  1
  Se  Se161  1  0.41342275  0.92033972  0.44393398  1
  Se  Se162  1  0.41217809  0.92633100  0.93733158  1
  Se  Se163  1  0.75211936  0.24855192  0.44949822  1
  Se  Se164  1  0.75201475  0.24952394  0.94527807  1
  Se  Se165  1  0.74624921  0.58138703  0.43299682  1
  Se  Se166  1  0.75508477  0.57816823  0.94716657  1
  Se  Se167  1  0.75511763  0.91370771  0.45520372  1
  Se  Se168  1  0.74994301  0.91864934  0.95036157  1
  Se  Se169  1  0.26568588  0.07977963  0.44103081  1
  Se  Se170  1  0.24475697  0.08726134  0.94891065  1
  Se  Se171  1  0.25349432  0.40505742  0.43711739  1
  Se  Se172  1  0.24866697  0.41748282  0.94863697  1
  Se  Se173  1  0.26153336  0.72747778  0.45120145  1
  Se  Se174  1  0.24703493  0.75072485  0.94857420  1
  Se  Se175  1  0.59342241  0.07618192  0.44119932  1
  Se  Se176  1  0.58369261  0.08643779  0.94900705  1
  Se  Se177  1  0.57814619  0.40945634  0.44119358  1
  Se  Se178  1  0.58041502  0.41691235  0.94622947  1
  Se  Se179  1  0.59174150  0.73468238  0.43393139  1
  Se  Se180  1  0.59331973  0.74528407  0.93751291  1
  Se  Se181  1  0.91527152  0.08396750  0.44798216  1
  Se  Se182  1  0.91589637  0.08401568  0.95098542  1
  Se  Se183  1  0.92447307  0.40950229  0.44115354  1
  Se  Se184  1  0.91646355  0.41808067  0.94431484  1
  Se  Se185  1  0.91089941  0.76071039  0.44487341  1
  Se  Se186  1  0.91558212  0.75150557  0.94698590  1
  Se  Se187  1  0.24976596  0.24780147  0.28986867  1
  Se  Se188  1  0.24940709  0.25462588  0.80493464  1
  Se  Se189  1  0.23815765  0.57698206  0.31454542  1
  Se  Se190  1  0.24429420  0.57414754  0.81661212  1
  Se  Se191  1  0.24032034  0.91388279  0.30890160  1
  Se  Se192  1  0.24612222  0.91390352  0.80717399  1
  Se  Se193  1  0.59282957  0.25608940  0.29656044  1
  Se  Se194  1  0.58510676  0.25202015  0.80663885  1
  Se  Se195  1  0.57082161  0.57049433  0.30268435  1
  Se  Se196  1  0.58133254  0.57937229  0.81155293  1
  Se  Se197  1  0.58305184  0.91832606  0.30732099  1
  Se  Se198  1  0.58025796  0.91334143  0.79909283  1
  Se  Se199  1  0.91484621  0.24620254  0.31067568  1
  Se  Se200  1  0.91740224  0.25283541  0.80483942  1
  Se  Se201  1  0.91359694  0.58815645  0.29642171  1
  Se  Se202  1  0.92084908  0.58435038  0.80277888  1
  Se  Se203  1  0.92103766  0.92503527  0.30354474  1
  Se  Se204  1  0.91070263  0.91467262  0.81447722  1
  Se  Se205  1  0.09066792  0.09045344  0.30066786  1
  Se  Se206  1  0.08565294  0.09276884  0.81324357  1
  Se  Se207  1  0.08758788  0.41866733  0.30996556  1
  Se  Se208  1  0.08068783  0.41443322  0.80611965  1
  Se  Se209  1  0.07780721  0.74998788  0.30349198  1
  Se  Se210  1  0.08104126  0.74627853  0.80078070  1
  Se  Se211  1  0.42930234  0.10323538  0.30479899  1
  Se  Se212  1  0.41718464  0.09013322  0.81377961  1
  Se  Se213  1  0.39914876  0.40682146  0.29821690  1
  Se  Se214  1  0.41443141  0.41251951  0.80520704  1
  Se  Se215  1  0.41265386  0.75572089  0.31643786  1
  Se  Se216  1  0.42894264  0.76201086  0.80529637  1
  Se  Se217  1  0.75753312  0.08917104  0.31349149  1
  Se  Se218  1  0.74525602  0.08190657  0.80593488  1
  Se  Se219  1  0.75407374  0.41623846  0.29804057  1
  Se  Se220  1  0.74862331  0.41379167  0.80322394  1
  Se  Se221  1  0.75562302  0.76352414  0.30623609  1
  Se  Se222  1  0.75911276  0.75439549  0.81172196  1
  Se  Se223  1  0.25001169  0.08469642  0.17707605  1
  Se  Se224  1  0.23550143  0.09200625  0.69064830  1
  Se  Se225  1  0.24510975  0.41583217  0.19442490  1
  Se  Se226  1  0.25159878  0.41355660  0.70185639  1
  Se  Se227  1  0.24264673  0.75966838  0.19200199  1
  Se  Se228  1  0.24801714  0.75317765  0.69330959  1
  Se  Se229  1  0.57306093  0.09825681  0.19244086  1
  Se  Se230  1  0.58158399  0.08165082  0.70231317  1
  Se  Se231  1  0.59006468  0.41782651  0.19529398  1
  Se  Se232  1  0.58609172  0.41191256  0.70008741  1
  Se  Se233  1  0.57383464  0.75316271  0.19684229  1
  Se  Se234  1  0.57874835  0.75339928  0.69136023  1
  Se  Se235  1  0.92143216  0.08050530  0.19757986  1
  Se  Se236  1  0.90922379  0.09414359  0.69260797  1
  Se  Se237  1  0.90963010  0.42393536  0.18308912  1
  Se  Se238  1  0.91952307  0.41389872  0.69867630  1
  Se  Se239  1  0.91987837  0.74705983  0.19498762  1
  Se  Se240  1  0.92133893  0.75204199  0.69691597  1
  Se  Se241  1  0.08957189  0.24220784  0.18703520  1
  Se  Se242  1  0.07623573  0.25581806  0.69684338  1
  Se  Se243  1  0.07909093  0.58663338  0.19937375  1
  Se  Se244  1  0.08570742  0.58371867  0.69882377  1
  Se  Se245  1  0.07872035  0.92266301  0.19420763  1
  Se  Se246  1  0.09084009  0.91815102  0.68985830  1
  Se  Se247  1  0.40630078  0.25878146  0.19522558  1
  Se  Se248  1  0.41207419  0.24663690  0.69973220  1
  Se  Se249  1  0.42053006  0.57337908  0.19347733  1
  Se  Se250  1  0.42537850  0.57564156  0.69345899  1
  Se  Se251  1  0.42143090  0.91398038  0.19894022  1
  Se  Se252  1  0.42306676  0.90542406  0.69013736  1
  Se  Se253  1  0.75403373  0.25078728  0.19816334  1
  Se  Se254  1  0.74700932  0.25282963  0.70026618  1
  Se  Se255  1  0.75137953  0.58018129  0.17947994  1
  Se  Se256  1  0.76241790  0.57239473  0.68673857  1
  Se  Se257  1  0.75807201  0.90923565  0.18694223  1
  Se  Se258  1  0.75070130  0.91856178  0.69854542  1
