# generated using pymatgen
data_In86Cu29Se144
_symmetry_space_group_name_H-M   'P 1'
_cell_length_a   17.57996919
_cell_length_b   17.58180265
_cell_length_c   23.44495467
_cell_angle_alpha   89.96204548
_cell_angle_beta   89.96642865
_cell_angle_gamma   90.00907745
_symmetry_Int_Tables_number   1
_chemical_formula_structural   In86Cu29Se144
_chemical_formula_sum   'In86 Cu29 Se144'
_cell_volume   7246.54064547
_cell_formula_units_Z   1
loop_
 _symmetry_equiv_pos_site_id
 _symmetry_equiv_pos_as_xyz
  1  'x, y, z'
loop_
 _atom_site_type_symbol
 _atom_site_label
 _atom_site_symmetry_multiplicity
 _atom_site_fract_x
 _atom_site_fract_y
 _atom_site_fract_z
 _atom_site_occupancy
  In  In0  1  -0.00958677  0.18065295  0.13016599  1
  In  In1  1  -0.01153718  0.16097277  0.61712470  1
  In  In2  1  -0.00147363  0.50081571  0.12062998  1
  In  In3  1  0.00060374  0.50446399  0.62470715  1
  In  In4  1  -0.01081314  0.82160435  0.11791287  1
  In  In5  1  0.00243628  0.82873502  0.63785518  1
  In  In6  1  0.34189000  0.15205909  0.13579770  1
  In  In7  1  0.33460142  0.18091305  0.62147775  1
  In  In8  1  0.31933049  0.50539428  0.12255212  1
  In  In9  1  0.33884890  0.50667181  0.62690101  1
  In  In10  1  0.34002203  0.83865838  0.10849776  1
  In  In11  1  0.33601887  0.81921591  0.62379198  1
  In  In12  1  0.66844647  0.16912288  0.12703510  1
  In  In13  1  0.68027764  0.16773038  0.62159901  1
  In  In14  1  0.67004091  0.48352917  0.12737765  1
  In  In15  1  0.67766615  0.49025930  0.63283553  1
  In  In16  1  0.66864025  0.83697401  0.12113725  1
  In  In17  1  0.65102475  0.83198266  0.62175511  1
  In  In18  1  0.18022409  0.00529866  0.36733800  1
  In  In19  1  0.14896390  -0.00645692  0.87303970  1
  In  In20  1  0.14989681  0.31789756  0.36383297  1
  In  In21  1  0.17990016  0.33771350  0.88271544  1
  In  In22  1  0.16046670  0.67845758  0.37268076  1
  In  In23  1  0.16764276  0.66992548  0.87713500  1
  In  In24  1  0.50259045  -0.00609381  0.36444293  1
  In  In25  1  0.50188616  -0.00128269  0.88548189  1
  In  In26  1  0.50400034  0.33904430  0.36352431  1
  In  In27  1  0.50506714  0.32266318  0.88112468  1
  In  In28  1  0.50488223  0.67782049  0.38215268  1
  In  In29  1  0.51048969  0.67547819  0.86878980  1
  In  In30  1  0.83530034  0.02430332  0.36867652  1
  In  In31  1  0.84178675  -0.00805683  0.88297042  1
  In  In32  1  0.82968747  0.33288997  0.37760762  1
  In  In33  1  0.82563451  0.34324062  0.88335820  1
  In  In34  1  0.82995017  0.64442088  0.37591636  1
  In  In35  1  0.83323614  0.66560938  0.87402007  1
  In  In36  1  -0.02637334  0.19910923  0.40074431  1
  In  In37  1  -0.00170698  0.15148510  0.87605109  1
  In  In38  1  -0.01906540  0.48205422  0.36322413  1
  In  In39  1  -0.01038759  0.51189981  0.88205919  1
  In  In40  1  0.00954078  0.82989491  0.36571452  1
  In  In41  1  -0.00009112  0.82979214  0.87648205  1
  In  In42  1  0.32814638  0.16171948  0.36783852  1
  In  In43  1  0.33974747  0.17813092  0.88235623  1
  In  In44  1  0.34388158  0.49922743  0.37245560  1
  In  In45  1  0.31916325  0.50520240  0.88396924  1
  In  In46  1  0.33625672  0.84214263  0.37131809  1
  In  In47  1  0.34921302  0.81316666  0.89440335  1
  In  In48  1  0.69442815  0.18467137  0.34875231  1
  In  In49  1  0.66762987  0.16945658  0.88219778  1
  In  In50  1  0.68256832  0.49527740  0.38345309  1
  In  In51  1  0.67346182  0.50895988  0.86944478  1
  In  In52  1  0.64989903  0.83244759  0.37206205  1
  In  In53  1  0.67679666  0.82879819  0.88340016  1
  In  In54  1  0.17760098  -0.00001496  0.12734650  1
  In  In55  1  0.15628808  -0.00854257  0.62629700  1
  In  In56  1  0.15643833  0.34140042  0.13245090  1
  In  In57  1  0.16782572  0.33315592  0.61429552  1
  In  In58  1  0.16364599  0.65423319  0.10943647  1
  In  In59  1  0.16507918  0.66351454  0.63354371  1
  In  In60  1  0.49563331  -0.00340319  0.12483179  1
  In  In61  1  0.51658760  -0.00651953  0.61904767  1
  In  In62  1  0.51718764  0.31687150  0.13859819  1
  In  In63  1  0.50481659  0.34793283  0.62509388  1
  In  In64  1  0.49471230  0.68343113  0.11870273  1
  In  In65  1  0.48946629  0.67344241  0.63383087  1
  In  In66  1  0.82913239  -0.00131769  0.12422869  1
  In  In67  1  0.83581232  0.00806390  0.62260804  1
  In  In68  1  0.83011445  0.33187399  0.12276762  1
  In  In69  1  0.82029273  0.32183117  0.60987990  1
  In  In70  1  0.83977047  0.67264610  0.11757004  1
  In  In71  1  0.83920974  0.65809215  0.63306576  1
  In  In72  1  0.33555425  0.34347972  0.75431126  1
  In  In73  1  0.00011969  0.01103846  0.24713672  1
  In  In74  1  -0.00197230  0.33661151  0.75109782  1
  In  In75  1  0.32936333  -0.00440269  0.75672236  1
  In  In76  1  0.33031145  0.66821117  0.24779840  1
  In  In77  1  0.17085786  0.83663488  0.49591239  1
  In  In78  1  0.16569087  0.16609420  0.00504445  1
  In  In79  1  0.50011208  0.50166098  0.00812014  1
  In  In80  1  0.16408977  0.50080320  0.50091214  1
  In  In81  1  0.66669292  0.66432237  0.25481798  1
  In  In82  1  0.50661466  0.16159196  0.49284228  1
  In  In83  1  0.83105280  0.83252541  0.50007046  1
  In  In84  1  0.67493585  -0.00501935  0.74867279  1
  In  In85  1  0.50888508  0.50445126  0.49524807  1
  Cu  Cu86  1  0.16526425  0.82655955  0.75587283  1
  Cu  Cu87  1  -0.00148627  0.66362564  0.50040420  1
  Cu  Cu88  1  0.51122264  0.17224720  0.75729201  1
  Cu  Cu89  1  0.84009823  0.49525426  0.24808880  1
  Cu  Cu90  1  0.66297010  0.00476660  0.00603620  1
  Cu  Cu91  1  0.83661541  0.16728308  0.74499063  1
  Cu  Cu92  1  0.66608615  -0.00087881  0.48998920  1
  Cu  Cu93  1  0.34149879  -0.00005408  0.49056707  1
  Cu  Cu94  1  0.49810507  0.83108469  0.75261373  1
  Cu  Cu95  1  0.16601696  0.17004725  0.25140858  1
  Cu  Cu96  1  0.49607320  0.15716174  0.24816008  1
  Cu  Cu97  1  0.00445376  0.00799500  0.50142739  1
  Cu  Cu98  1  0.50108612  0.49967519  0.24911255  1
  Cu  Cu99  1  0.16463429  0.82628524  0.24270183  1
  Cu  Cu100  1  0.16128436  0.16241035  0.74611893  1
  Cu  Cu101  1  0.16139575  0.50751872  0.75486170  1
  Cu  Cu102  1  0.83554620  0.82936319  0.75748323  1
  Cu  Cu103  1  0.67045594  0.66791105  -0.00425513  1
  Cu  Cu104  1  0.83218646  0.49795977  0.75287430  1
  Cu  Cu105  1  0.33808291  0.33154508  0.00983993  1
  Cu  Cu106  1  0.67042386  0.33074118  0.00490458  1
  Cu  Cu107  1  0.50258074  0.50425729  0.75069890  1
  Cu  Cu108  1  -0.00059208  0.66512475  -0.00456142  1
  Cu  Cu109  1  0.83232397  0.83230912  0.24367946  1
  Cu  Cu110  1  -0.00609250  -0.00187788  0.00295699  1
  Cu  Cu111  1  0.15942133  0.50084301  0.24395794  1
  Cu  Cu112  1  0.32626372  0.33071455  0.49236631  1
  Cu  Cu113  1  0.00026854  0.33664218  0.00549570  1
  Cu  Cu114  1  0.33157463  0.00122965  0.00336046  1
  Se  Se115  1  0.07254468  0.07858939  0.06558540  1
  Se  Se116  1  0.08997462  0.08448729  0.55722933  1
  Se  Se117  1  0.08851465  0.41913228  0.05330485  1
  Se  Se118  1  0.06789990  0.40749869  0.55236448  1
  Se  Se119  1  0.08088629  0.74953270  0.04983036  1
  Se  Se120  1  0.07948228  0.74631737  0.55814324  1
  Se  Se121  1  0.41567372  0.08518453  0.05460751  1
  Se  Se122  1  0.41406429  0.07728581  0.56005239  1
  Se  Se123  1  0.41970061  0.40761670  0.07193927  1
  Se  Se124  1  0.40570452  0.41178331  0.55284152  1
  Se  Se125  1  0.40571867  0.73885110  0.04366849  1
  Se  Se126  1  0.42832534  0.75677904  0.55456186  1
  Se  Se127  1  0.75032576  0.08632899  0.05619965  1
  Se  Se128  1  0.74691283  0.07609665  0.55055175  1
  Se  Se129  1  0.75408732  0.42037123  0.05057536  1
  Se  Se130  1  0.74619554  0.42130893  0.55092573  1
  Se  Se131  1  0.75044052  0.75269298  0.05261185  1
  Se  Se132  1  0.74872465  0.74494283  0.56531523  1
  Se  Se133  1  0.25463390  0.25083339  0.06866430  1
  Se  Se134  1  0.24791736  0.24604158  0.54738407  1
  Se  Se135  1  0.26200545  0.58722600  0.04382632  1
  Se  Se136  1  0.25581504  0.59375603  0.55743799  1
  Se  Se137  1  0.24109913  0.91875467  0.04900343  1
  Se  Se138  1  0.26195868  0.92521148  0.55821653  1
  Se  Se139  1  0.58283276  0.24823081  0.05445523  1
  Se  Se140  1  0.58513481  0.25442944  0.55959571  1
  Se  Se141  1  0.59602102  0.59219556  0.06469522  1
  Se  Se142  1  0.58196718  0.58176619  0.57236829  1
  Se  Se143  1  0.57975801  0.91555043  0.05394152  1
  Se  Se144  1  0.58489748  0.91365041  0.54263239  1
  Se  Se145  1  0.91449358  0.25008073  0.05166080  1
  Se  Se146  1  0.91815557  0.24966864  0.54897686  1
  Se  Se147  1  0.91542225  0.58232023  0.05030479  1
  Se  Se148  1  0.91562890  0.58344946  0.55535143  1
  Se  Se149  1  0.90943873  0.91409937  0.05502497  1
  Se  Se150  1  0.93042944  0.91742911  0.55945231  1
  Se  Se151  1  0.09380682  0.24864581  0.45036963  1
  Se  Se152  1  0.07701888  0.25556036  0.94090061  1
  Se  Se153  1  0.07593125  0.58694965  0.43609468  1
  Se  Se154  1  0.08756644  0.58120174  0.94607222  1
  Se  Se155  1  0.07780405  0.92690772  0.43743376  1
  Se  Se156  1  0.07742446  0.91584883  0.94931230  1
  Se  Se157  1  0.41482265  0.25575435  0.43601971  1
  Se  Se158  1  0.42173540  0.25019546  0.95573330  1
  Se  Se159  1  0.40769244  0.59413936  0.44479952  1
  Se  Se160  1  0.42165389  0.58728270  0.93839625  1
  Se  Se161  1  0.42460128  0.91546081  0.44133862  1
  Se  Se162  1  0.41879586  0.91745891  0.95304857  1
  Se  Se163  1  0.74860347  0.23957961  0.44063092  1
  Se  Se164  1  0.75444151  0.24842579  0.95012787  1
  Se  Se165  1  0.73233496  0.60087572  0.45015185  1
  Se  Se166  1  0.75257106  0.58133212  0.94544635  1
  Se  Se167  1  0.75159656  0.92103294  0.43195311  1
  Se  Se168  1  0.74678958  0.92264994  0.95023458  1
  Se  Se169  1  0.25306083  0.08316830  0.44444046  1
  Se  Se170  1  0.25201913  0.07803364  0.93799219  1
  Se  Se171  1  0.24943691  0.41403563  0.43366989  1
  Se  Se172  1  0.25421559  0.41491446  0.95784441  1
  Se  Se173  1  0.26142380  0.74350992  0.44048922  1
  Se  Se174  1  0.23252708  0.76377358  0.94761535  1
  Se  Se175  1  0.59487211  0.08273003  0.42702865  1
  Se  Se176  1  0.58167426  0.08812891  0.94934292  1
  Se  Se177  1  0.59174849  0.40083459  0.44337086  1
  Se  Se178  1  0.59099909  0.41546068  0.94464782  1
  Se  Se179  1  0.60615599  0.73491893  0.44807417  1
  Se  Se180  1  0.58257065  0.75157204  0.94743303  1
  Se  Se181  1  0.91086489  0.08371281  0.45260163  1
  Se  Se182  1  0.91358300  0.08601063  0.95151441  1
  Se  Se183  1  0.90182978  0.42905288  0.44448714  1
  Se  Se184  1  0.91779480  0.41844474  0.94884101  1
  Se  Se185  1  0.92452085  0.74658104  0.43758053  1
  Se  Se186  1  0.91321576  0.74940482  0.94453598  1
  Se  Se187  1  0.25411848  0.25446516  0.30074692  1
  Se  Se188  1  0.24272817  0.24155295  0.80645526  1
  Se  Se189  1  0.23989318  0.57652042  0.30891813  1
  Se  Se190  1  0.25062308  0.58512564  0.80680334  1
  Se  Se191  1  0.24527835  0.90841020  0.29932752  1
  Se  Se192  1  0.24677652  0.90326592  0.81801364  1
  Se  Se193  1  0.57781661  0.24572736  0.29825749  1
  Se  Se194  1  0.59391106  0.25503324  0.80844370  1
  Se  Se195  1  0.57621305  0.57385349  0.31608906  1
  Se  Se196  1  0.58829410  0.58843595  0.80103919  1
  Se  Se197  1  0.58701946  0.91424725  0.29553462  1
  Se  Se198  1  0.57945516  0.91289669  0.81065241  1
  Se  Se199  1  0.91601073  0.25115620  0.30959325  1
  Se  Se200  1  0.91122154  0.24476599  0.81210834  1
  Se  Se201  1  0.91820980  0.58649949  0.29887401  1
  Se  Se202  1  0.91645208  0.58340102  0.80300599  1
  Se  Se203  1  0.91153985  0.91365011  0.30703750  1
  Se  Se204  1  0.91816032  0.91696698  0.80675985  1
  Se  Se205  1  0.08327889  0.09494308  0.31461573  1
  Se  Se206  1  0.07927536  0.08053085  0.80006045  1
  Se  Se207  1  0.07966013  0.41449035  0.29836398  1
  Se  Se208  1  0.09019071  0.42052886  0.81510783  1
  Se  Se209  1  0.07992551  0.74300223  0.29354339  1
  Se  Se210  1  0.07825299  0.74415244  0.80621405  1
  Se  Se211  1  0.41093830  0.07620960  0.30189358  1
  Se  Se212  1  0.42472898  0.09194045  0.81092327  1
  Se  Se213  1  0.41242143  0.41643601  0.29750169  1
  Se  Se214  1  0.42570127  0.42692905  0.81788441  1
  Se  Se215  1  0.42600061  0.75526481  0.30470366  1
  Se  Se216  1  0.41161666  0.75059292  0.80559398  1
  Se  Se217  1  0.73648051  0.06414864  0.29470026  1
  Se  Se218  1  0.75905489  0.08714202  0.81001651  1
  Se  Se219  1  0.75205390  0.41989275  0.30457983  1
  Se  Se220  1  0.74878515  0.41310385  0.80476299  1
  Se  Se221  1  0.76033086  0.75428761  0.31252899  1
  Se  Se222  1  0.74619686  0.74879339  0.80621213  1
  Se  Se223  1  0.24757145  0.07985527  0.20343644  1
  Se  Se224  1  0.25048574  0.08910723  0.68921463  1
  Se  Se225  1  0.25028849  0.41998452  0.19640061  1
  Se  Se226  1  0.23768814  0.42500533  0.69160147  1
  Se  Se227  1  0.24465917  0.75058829  0.18033632  1
  Se  Se228  1  0.24963299  0.75083517  0.69707468  1
  Se  Se229  1  0.58102245  0.08117745  0.19066340  1
  Se  Se230  1  0.58137681  0.09014082  0.69260238  1
  Se  Se231  1  0.58963405  0.41404388  0.20376295  1
  Se  Se232  1  0.58413062  0.41542949  0.70173811  1
  Se  Se233  1  0.57930419  0.75545022  0.19397232  1
  Se  Se234  1  0.58393208  0.75088460  0.69915169  1
  Se  Se235  1  0.89948031  0.09702952  0.19568643  1
  Se  Se236  1  0.91994552  0.08083217  0.69582754  1
  Se  Se237  1  0.91922511  0.41414492  0.18943725  1
  Se  Se238  1  0.90632094  0.41764927  0.68790262  1
  Se  Se239  1  0.91613751  0.74555472  0.19614699  1
  Se  Se240  1  0.91770611  0.74520668  0.70201837  1
  Se  Se241  1  0.07998695  0.25138967  0.19958617  1
  Se  Se242  1  0.08748662  0.24865669  0.68772493  1
  Se  Se243  1  0.08322336  0.58672819  0.18798288  1
  Se  Se244  1  0.07568340  0.58468877  0.69902504  1
  Se  Se245  1  0.08185978  0.91100724  0.18761644  1
  Se  Se246  1  0.08534186  0.91523609  0.70364495  1
  Se  Se247  1  0.41373725  0.24923034  0.20024510  1
  Se  Se248  1  0.42723264  0.24836225  0.69616592  1
  Se  Se249  1  0.42564179  0.58032013  0.18761741  1
  Se  Se250  1  0.41114371  0.58434824  0.70256795  1
  Se  Se251  1  0.40399291  0.91509502  0.18795970  1
  Se  Se252  1  0.42499927  0.91696466  0.69182311  1
  Se  Se253  1  0.73781131  0.26506565  0.19328161  1
  Se  Se254  1  0.75249910  0.25167375  0.69445378  1
  Se  Se255  1  0.75641690  0.57855203  0.19027275  1
  Se  Se256  1  0.74826558  0.58378321  0.70139847  1
  Se  Se257  1  0.74818199  0.91576168  0.19440343  1
  Se  Se258  1  0.76134705  0.90360102  0.68687816  1
