# generated using pymatgen
data_In86Cu29Se144
_symmetry_space_group_name_H-M   'P 1'
_cell_length_a   17.60605771
_cell_length_b   17.61799295
_cell_length_c   23.47579850
_cell_angle_alpha   89.97968527
_cell_angle_beta   90.01508550
_cell_angle_gamma   90.01263610
_symmetry_Int_Tables_number   1
_chemical_formula_structural   In86Cu29Se144
_chemical_formula_sum   'In86 Cu29 Se144'
_cell_volume   7281.80212320
_cell_formula_units_Z   1
loop_
 _symmetry_equiv_pos_site_id
 _symmetry_equiv_pos_as_xyz
  1  'x, y, z'
loop_
 _atom_site_type_symbol
 _atom_site_label
 _atom_site_symmetry_multiplicity
 _atom_site_fract_x
 _atom_site_fract_y
 _atom_site_fract_z
 _atom_site_occupancy
  In  In0  1  -0.01473082  0.18155453  0.14016921  1
  In  In1  1  -0.00719972  0.17198846  0.62291348  1
  In  In2  1  -0.00888673  0.49167017  0.11201364  1
  In  In3  1  0.00574849  0.48358886  0.64415499  1
  In  In4  1  0.00333795  0.84423119  0.11661980  1
  In  In5  1  -0.02714794  0.85390334  0.64984947  1
  In  In6  1  0.33917750  0.15414900  0.12103575  1
  In  In7  1  0.32403326  0.16709585  0.62252722  1
  In  In8  1  0.33160630  0.51498382  0.12430133  1
  In  In9  1  0.32412860  0.51435865  0.63138714  1
  In  In10  1  0.31658817  0.82961780  0.12001472  1
  In  In11  1  0.33488148  0.82917011  0.63291824  1
  In  In12  1  0.66206413  0.16612511  0.11903096  1
  In  In13  1  0.66614836  0.16443433  0.62293131  1
  In  In14  1  0.67638271  0.49416958  0.11825487  1
  In  In15  1  0.66243235  0.48916363  0.63575478  1
  In  In16  1  0.69121167  0.84177031  0.11757023  1
  In  In17  1  0.69040714  0.83592010  0.63158885  1
  In  In18  1  0.16546639  0.01303330  0.37801686  1
  In  In19  1  0.15325163  -0.01381689  0.86212012  1
  In  In20  1  0.15385706  0.34108368  0.38692581  1
  In  In21  1  0.15585406  0.35499968  0.88066600  1
  In  In22  1  0.16806075  0.65878844  0.37457675  1
  In  In23  1  0.16021498  0.66283610  0.87605648  1
  In  In24  1  0.51075112  0.00298504  0.37331322  1
  In  In25  1  0.51439341  0.00783147  0.86365391  1
  In  In26  1  0.50385200  0.32690986  0.38192368  1
  In  In27  1  0.50934833  0.32023421  0.87858084  1
  In  In28  1  0.49751322  0.68145400  0.36961094  1
  In  In29  1  0.50166340  0.67042854  0.87058415  1
  In  In30  1  0.83463605  0.00313874  0.37440251  1
  In  In31  1  0.83544304  -0.00268957  0.87760195  1
  In  In32  1  0.85263220  0.29316458  0.39296136  1
  In  In33  1  0.83160846  0.32887959  0.86544908  1
  In  In34  1  0.84217183  0.66774404  0.37843550  1
  In  In35  1  0.85549054  0.65650655  0.90097056  1
  In  In36  1  0.00195822  0.16520955  0.37471140  1
  In  In37  1  -0.01744260  0.15047711  0.86457746  1
  In  In38  1  0.01122200  0.50894333  0.37697996  1
  In  In39  1  -0.00478195  0.49804369  0.86672672  1
  In  In40  1  -0.01841028  0.83721030  0.37842555  1
  In  In41  1  0.00369765  0.83701456  0.88128921  1
  In  In42  1  0.32874255  0.16840554  0.38650016  1
  In  In43  1  0.34688932  0.16733048  0.87188490  1
  In  In44  1  0.31943303  0.49694519  0.37387758  1
  In  In45  1  0.31378289  0.50220448  0.87777089  1
  In  In46  1  0.34313062  0.83360283  0.37045273  1
  In  In47  1  0.32191942  0.81840043  0.86571256  1
  In  In48  1  0.69020719  0.14283967  0.40166071  1
  In  In49  1  0.67267112  0.16387231  0.87161580  1
  In  In50  1  0.67292165  0.49538180  0.37392970  1
  In  In51  1  0.72259628  0.50516413  0.86246283  1
  In  In52  1  0.66525661  0.84873443  0.37080927  1
  In  In53  1  0.67138681  0.84112251  0.87510963  1
  In  In54  1  0.16002751  -0.01329804  0.11961184  1
  In  In55  1  0.15172232  0.01520401  0.63533322  1
  In  In56  1  0.14881864  0.32425953  0.12325211  1
  In  In57  1  0.14253129  0.32670965  0.60657222  1
  In  In58  1  0.16351073  0.67451593  0.11093816  1
  In  In59  1  0.16076358  0.66350129  0.62641837  1
  In  In60  1  0.49937043  0.01584819  0.12124598  1
  In  In61  1  0.49478259  0.00663371  0.63139594  1
  In  In62  1  0.51711507  0.33232481  0.12506580  1
  In  In63  1  0.51012272  0.32308651  0.62577079  1
  In  In64  1  0.49257126  0.66111841  0.12564988  1
  In  In65  1  0.49415617  0.65654179  0.63222524  1
  In  In66  1  0.83402578  0.00638100  0.12468613  1
  In  In67  1  0.82811985  0.00193121  0.62980443  1
  In  In68  1  0.83917913  0.33482920  0.11698484  1
  In  In69  1  0.84426177  0.32405705  0.63259956  1
  In  In70  1  0.85890452  0.68273291  0.09183795  1
  In  In71  1  0.83779917  0.68043148  0.63098830  1
  In  In72  1  0.50578880  0.83737619  0.49785986  1
  In  In73  1  0.67193791  0.67045669  0.23234390  1
  In  In74  1  0.32528615  -0.00104939  0.24779745  1
  In  In75  1  0.50068762  0.84004297  -0.01423179  1
  In  In76  1  0.16619817  0.16390756  -0.00361666  1
  In  In77  1  0.33212697  0.33754800  0.25470095  1
  In  In78  1  0.32463173  0.33886165  0.75420397  1
  In  In79  1  0.00491566  0.67037243  0.23546325  1
  In  In80  1  0.67162756  0.67388961  0.75725874  1
  In  In81  1  0.67505298  0.32974389  0.25529236  1
  In  In82  1  0.16361516  0.83661300  0.50935948  1
  In  In83  1  0.50929331  0.49090359  -0.00164954  1
  In  In84  1  0.84153158  0.49074374  0.51641078  1
  In  In85  1  0.49429996  0.50040142  0.50660192  1
  Cu  Cu86  1  0.16825696  0.50092577  0.24961521  1
  Cu  Cu87  1  -0.00572794  0.32874853  -0.00575373  1
  Cu  Cu88  1  0.66834983  0.00519893  -0.00459689  1
  Cu  Cu89  1  0.33321910  0.00530364  0.50886428  1
  Cu  Cu90  1  0.84219851  0.49679910  0.24130383  1
  Cu  Cu91  1  0.49907545  0.49750436  0.75566428  1
  Cu  Cu92  1  0.82699992  0.84023937  0.24863895  1
  Cu  Cu93  1  0.49462757  0.83395096  0.24510511  1
  Cu  Cu94  1  -0.00741512  0.00184697  0.50738688  1
  Cu  Cu95  1  0.50480195  0.16237366  0.75019472  1
  Cu  Cu96  1  0.16307167  0.50468951  0.75232442  1
  Cu  Cu97  1  0.16739907  0.17259794  0.74713451  1
  Cu  Cu98  1  0.32986150  0.33722505  0.50158484  1
  Cu  Cu99  1  0.49859774  0.83401676  0.75158282  1
  Cu  Cu100  1  0.33882520  0.33187538  -0.00407324  1
  Cu  Cu101  1  0.16205865  0.82489345  0.24461559  1
  Cu  Cu102  1  0.32783536  0.66731672  -0.00477405  1
  Cu  Cu103  1  0.67346907  0.33020602  -0.00678016  1
  Cu  Cu104  1  0.50113069  0.51084386  0.25187970  1
  Cu  Cu105  1  0.00064343  0.67528246  0.50407681  1
  Cu  Cu106  1  0.33049476  0.66370079  0.50051161  1
  Cu  Cu107  1  -0.00322142  0.00528087  -0.00235820  1
  Cu  Cu108  1  0.50128199  0.16571875  0.24931402  1
  Cu  Cu109  1  0.83307972  0.16029413  0.74730176  1
  Cu  Cu110  1  0.16902687  0.82255989  0.74958081  1
  Cu  Cu111  1  0.33180341  -0.00294786  -0.00531323  1
  Cu  Cu112  1  0.67205002  -0.00224913  0.50322335  1
  Cu  Cu113  1  0.67700080  0.66609779  0.50412596  1
  Cu  Cu114  1  0.15936409  0.16640364  0.25446671  1
  Se  Se115  1  0.07512761  0.08468245  0.06193734  1
  Se  Se116  1  0.07979262  0.08596697  0.55582802  1
  Se  Se117  1  0.08185125  0.40736721  0.04895651  1
  Se  Se118  1  0.07163018  0.43271095  0.55371523  1
  Se  Se119  1  0.05758660  0.73782331  0.05047897  1
  Se  Se120  1  0.06768172  0.75897881  0.57020629  1
  Se  Se121  1  0.41629183  0.08210250  0.04455960  1
  Se  Se122  1  0.41851908  0.08822187  0.55901539  1
  Se  Se123  1  0.41290006  0.41003737  0.06370188  1
  Se  Se124  1  0.40520515  0.41251814  0.56827957  1
  Se  Se125  1  0.41217926  0.74834009  0.05209857  1
  Se  Se126  1  0.41533499  0.74273452  0.55619641  1
  Se  Se127  1  0.74963652  0.08571976  0.05362167  1
  Se  Se128  1  0.75447118  0.08395342  0.55477382  1
  Se  Se129  1  0.75471592  0.41458905  0.04760163  1
  Se  Se130  1  0.73938647  0.40483269  0.56437877  1
  Se  Se131  1  0.73912089  0.74136675  0.04866044  1
  Se  Se132  1  0.75614854  0.75259694  0.55532315  1
  Se  Se133  1  0.25800754  0.25369503  0.05972177  1
  Se  Se134  1  0.24660253  0.25110349  0.55257611  1
  Se  Se135  1  0.24780465  0.58226853  0.04985555  1
  Se  Se136  1  0.24525164  0.58545864  0.55415371  1
  Se  Se137  1  0.24711103  0.91558881  0.04731849  1
  Se  Se138  1  0.25441908  0.92591483  0.56814396  1
  Se  Se139  1  0.58428219  0.25332322  0.04833013  1
  Se  Se140  1  0.57799877  0.24015906  0.55328186  1
  Se  Se141  1  0.58828293  0.59016008  0.05877550  1
  Se  Se142  1  0.59284425  0.59027684  0.56133300  1
  Se  Se143  1  0.58518992  0.92403955  0.05555595  1
  Se  Se144  1  0.59305308  0.91824569  0.56484443  1
  Se  Se145  1  0.91868764  0.24322611  0.05254892  1
  Se  Se146  1  0.92484569  0.26500670  0.55277574  1
  Se  Se147  1  0.91321165  0.56841656  0.03930884  1
  Se  Se148  1  0.92631421  0.59246158  0.56636446  1
  Se  Se149  1  0.91187627  0.92218916  0.05192809  1
  Se  Se150  1  0.91245332  0.91625307  0.56063585  1
  Se  Se151  1  0.09606685  0.23257709  0.44396419  1
  Se  Se152  1  0.07425326  0.24826529  0.93432782  1
  Se  Se153  1  0.08408818  0.59287859  0.45033920  1
  Se  Se154  1  0.10063891  0.55205727  0.93348047  1
  Se  Se155  1  0.07523001  0.92285205  0.44504522  1
  Se  Se156  1  0.08750555  0.92426118  0.94944968  1
  Se  Se157  1  0.41380077  0.25455031  0.44975197  1
  Se  Se158  1  0.42104142  0.24564911  0.94809336  1
  Se  Se159  1  0.41442215  0.59148768  0.43806927  1
  Se  Se160  1  0.41469437  0.58526590  0.94184262  1
  Se  Se161  1  0.40793126  0.92866515  0.44397866  1
  Se  Se162  1  0.40772726  0.92429981  0.92656335  1
  Se  Se163  1  0.73222137  0.26632701  0.44987229  1
  Se  Se164  1  0.75634202  0.24571994  0.94055679  1
  Se  Se165  1  0.75189345  0.58182932  0.44508996  1
  Se  Se166  1  0.74218013  0.58752497  0.94979110  1
  Se  Se167  1  0.75064841  0.91649950  0.44340138  1
  Se  Se168  1  0.75180123  0.91651371  0.94900413  1
  Se  Se169  1  0.24771868  0.08242692  0.45280546  1
  Se  Se170  1  0.25264505  0.07698129  0.93255903  1
  Se  Se171  1  0.24695134  0.42257255  0.45014689  1
  Se  Se172  1  0.24903588  0.41700632  0.95380599  1
  Se  Se173  1  0.25564950  0.75179470  0.44253724  1
  Se  Se174  1  0.24305920  0.75084576  0.94421711  1
  Se  Se175  1  0.57768122  0.07620946  0.45379691  1
  Se  Se176  1  0.58281369  0.08631450  0.94211849  1
  Se  Se177  1  0.58922899  0.41681107  0.44734571  1
  Se  Se178  1  0.60158094  0.41657342  0.93155593  1
  Se  Se179  1  0.59757193  0.74205285  0.44116183  1
  Se  Se180  1  0.59336403  0.74045663  0.94119216  1
  Se  Se181  1  0.91697075  0.08294495  0.44510298  1
  Se  Se182  1  0.91035794  0.08829705  0.94819636  1
  Se  Se183  1  0.91706612  0.41872408  0.43583239  1
  Se  Se184  1  0.91479005  0.41022594  0.93594099  1
  Se  Se185  1  0.91155946  0.75239363  0.45198718  1
  Se  Se186  1  0.93760199  0.75087068  0.95858671  1
  Se  Se187  1  0.24310537  0.24559810  0.31227502  1
  Se  Se188  1  0.23848775  0.24853462  0.81684437  1
  Se  Se189  1  0.25125786  0.58516863  0.30117661  1
  Se  Se190  1  0.24970939  0.58697328  0.80274922  1
  Se  Se191  1  0.23804359  0.90636853  0.30921316  1
  Se  Se192  1  0.25123214  0.91334599  0.79909448  1
  Se  Se193  1  0.58024263  0.24180906  0.31121427  1
  Se  Se194  1  0.58657451  0.24731534  0.80274215  1
  Se  Se195  1  0.58716008  0.58836665  0.30775804  1
  Se  Se196  1  0.58709039  0.57203793  0.81383433  1
  Se  Se197  1  0.57720262  0.91716102  0.29863754  1
  Se  Se198  1  0.58959789  0.91285537  0.79988530  1
  Se  Se199  1  0.91827161  0.24533731  0.30406907  1
  Se  Se200  1  0.91831030  0.24772668  0.79672880  1
  Se  Se201  1  0.91662207  0.58293597  0.30211526  1
  Se  Se202  1  0.89821253  0.58158482  0.81170169  1
  Se  Se203  1  0.91434749  0.91795414  0.30264014  1
  Se  Se204  1  0.93810887  0.93396500  0.81412413  1
  Se  Se205  1  0.08021144  0.07637532  0.30342417  1
  Se  Se206  1  0.08456817  0.08649852  0.79992562  1
  Se  Se207  1  0.08697478  0.42225025  0.30773043  1
  Se  Se208  1  0.07982910  0.41280026  0.79725189  1
  Se  Se209  1  0.08180829  0.75400612  0.31137337  1
  Se  Se210  1  0.08181923  0.75121434  0.80915118  1
  Se  Se211  1  0.41527614  0.09009891  0.30803947  1
  Se  Se212  1  0.41621904  0.08076514  0.79938744  1
  Se  Se213  1  0.42928186  0.42654619  0.31260029  1
  Se  Se214  1  0.41898477  0.42006486  0.81846766  1
  Se  Se215  1  0.41172875  0.74973602  0.29579906  1
  Se  Se216  1  0.41741389  0.74467463  0.80007966  1
  Se  Se217  1  0.74385006  0.08570352  0.31165276  1
  Se  Se218  1  0.75265754  0.07678697  0.80465712  1
  Se  Se219  1  0.76737407  0.42341009  0.30771959  1
  Se  Se220  1  0.74031987  0.39711951  0.79274207  1
  Se  Se221  1  0.75356481  0.75153572  0.30736393  1
  Se  Se222  1  0.76438219  0.74867337  0.82189508  1
  Se  Se223  1  0.23538127  0.09093983  0.18913751  1
  Se  Se224  1  0.25214070  0.08671425  0.69792973  1
  Se  Se225  1  0.24396159  0.41862329  0.18714325  1
  Se  Se226  1  0.23502841  0.41856955  0.68814578  1
  Se  Se227  1  0.24403581  0.74299418  0.19070290  1
  Se  Se228  1  0.25104557  0.74103007  0.69446115  1
  Se  Se229  1  0.58414534  0.08570544  0.19400588  1
  Se  Se230  1  0.58873219  0.08005033  0.69596350  1
  Se  Se231  1  0.58276904  0.42888325  0.19661165  1
  Se  Se232  1  0.57444960  0.41012997  0.70151405  1
  Se  Se233  1  0.57725774  0.76523918  0.18021438  1
  Se  Se234  1  0.57900257  0.75508797  0.68867456  1
  Se  Se235  1  0.93208337  0.06739700  0.19400644  1
  Se  Se236  1  0.92168575  0.08256538  0.69345813  1
  Se  Se237  1  0.92313134  0.41116689  0.18981917  1
  Se  Se238  1  0.89333978  0.42976638  0.70019560  1
  Se  Se239  1  0.90410738  0.75856095  0.18603646  1
  Se  Se240  1  0.91836888  0.74383770  0.70921132  1
  Se  Se241  1  0.08002600  0.25652203  0.20519592  1
  Se  Se242  1  0.08374535  0.25229847  0.69118891  1
  Se  Se243  1  0.09101300  0.57216450  0.18185649  1
  Se  Se244  1  0.07846013  0.58855478  0.70005374  1
  Se  Se245  1  0.08148680  0.91339068  0.19550510  1
  Se  Se246  1  0.08925527  0.91366347  0.70044386  1
  Se  Se247  1  0.42139243  0.24718062  0.19055824  1
  Se  Se248  1  0.41681651  0.24611111  0.69701770  1
  Se  Se249  1  0.41239965  0.58723345  0.19983914  1
  Se  Se250  1  0.41391579  0.58044556  0.70481294  1
  Se  Se251  1  0.41580152  0.91308750  0.18358004  1
  Se  Se252  1  0.41597774  0.91667068  0.69753417  1
  Se  Se253  1  0.75576481  0.24539141  0.18680450  1
  Se  Se254  1  0.75001213  0.24355549  0.69365862  1
  Se  Se255  1  0.76755092  0.57968884  0.18142216  1
  Se  Se256  1  0.75133733  0.58227685  0.69123098  1
  Se  Se257  1  0.74667396  0.92632065  0.19641230  1
  Se  Se258  1  0.76274005  0.91286952  0.70488810  1
