# generated using pymatgen
data_In86Cu29Se144
_symmetry_space_group_name_H-M   'P 1'
_cell_length_a   17.61076075
_cell_length_b   17.60848349
_cell_length_c   23.47464257
_cell_angle_alpha   89.98338691
_cell_angle_beta   90.00994468
_cell_angle_gamma   89.98556391
_symmetry_Int_Tables_number   1
_chemical_formula_structural   In86Cu29Se144
_chemical_formula_sum   'In86 Cu29 Se144'
_cell_volume   7279.45760321
_cell_formula_units_Z   1
loop_
 _symmetry_equiv_pos_site_id
 _symmetry_equiv_pos_as_xyz
  1  'x, y, z'
loop_
 _atom_site_type_symbol
 _atom_site_label
 _atom_site_symmetry_multiplicity
 _atom_site_fract_x
 _atom_site_fract_y
 _atom_site_fract_z
 _atom_site_occupancy
  In  In0  1  0.00007833  0.16754627  0.12651094  1
  In  In1  1  -0.00939996  0.17310240  0.63124464  1
  In  In2  1  0.00182690  0.49786948  0.12449051  1
  In  In3  1  -0.00977038  0.48557394  0.61807274  1
  In  In4  1  -0.00039556  0.83500177  0.12613869  1
  In  In5  1  0.01590345  0.83619144  0.62422612  1
  In  In6  1  0.32670931  0.16830691  0.12658719  1
  In  In7  1  0.33467362  0.15331691  0.61788353  1
  In  In8  1  0.33687962  0.50212216  0.11755582  1
  In  In9  1  0.32923726  0.48969779  0.61181996  1
  In  In10  1  0.34664231  0.85412468  0.11194410  1
  In  In11  1  0.32136226  0.84682505  0.62096242  1
  In  In12  1  0.67120965  0.15818674  0.13669056  1
  In  In13  1  0.68855069  0.19289689  0.59839273  1
  In  In14  1  0.66246858  0.48811075  0.12382560  1
  In  In15  1  0.65384592  0.49368570  0.61693547  1
  In  In16  1  0.67451950  0.83794552  0.12393913  1
  In  In17  1  0.65977219  0.82580179  0.62402654  1
  In  In18  1  0.15683374  -0.00386038  0.36494951  1
  In  In19  1  0.15232646  0.02148111  0.89776849  1
  In  In20  1  0.16964602  0.34914117  0.37673349  1
  In  In21  1  0.15096036  0.34457625  0.88362025  1
  In  In22  1  0.16652271  0.66726674  0.37953656  1
  In  In23  1  0.16643273  0.66883824  0.88289944  1
  In  In24  1  0.53546673  0.04216312  0.32229200  1
  In  In25  1  0.48993777  -0.00439723  0.88243587  1
  In  In26  1  0.52115270  0.30690889  0.40629125  1
  In  In27  1  0.51625510  0.32735230  0.87331692  1
  In  In28  1  0.49331365  0.66776186  0.37396186  1
  In  In29  1  0.49854662  0.66687311  0.88657594  1
  In  In30  1  0.84667994  0.01139328  0.36775297  1
  In  In31  1  0.84365615  -0.00841603  0.88516105  1
  In  In32  1  0.82201852  0.32113143  0.37016837  1
  In  In33  1  0.83571475  0.33023599  0.87806035  1
  In  In34  1  0.84490240  0.65913591  0.36771905  1
  In  In35  1  0.83173546  0.66672132  0.88565586  1
  In  In36  1  -0.00564416  0.16598109  0.37031341  1
  In  In37  1  -0.00345423  0.16655311  0.87881085  1
  In  In38  1  0.01126677  0.50521417  0.36514330  1
  In  In39  1  0.00325883  0.49381122  0.87997007  1
  In  In40  1  0.01036391  0.83517563  0.36708711  1
  In  In41  1  -0.00940978  0.84267207  0.88242462  1
  In  In42  1  0.36003421  0.16828513  0.36705537  1
  In  In43  1  0.32679295  0.15434805  0.87932736  1
  In  In44  1  0.33741586  0.48964981  0.39077201  1
  In  In45  1  0.32938461  0.50292915  0.88266611  1
  In  In46  1  0.33092224  0.83525093  0.36926472  1
  In  In47  1  0.31529797  0.86179450  0.90557713  1
  In  In48  1  0.67315259  0.17247684  0.37381468  1
  In  In49  1  0.67016785  0.18472229  0.87285172  1
  In  In50  1  0.66544367  0.47214685  0.37754644  1
  In  In51  1  0.67422209  0.48885962  0.88277666  1
  In  In52  1  0.64889189  0.84740559  0.36704768  1
  In  In53  1  0.66603297  0.83395623  0.89112631  1
  In  In54  1  0.16669858  -0.00387806  0.12521850  1
  In  In55  1  0.16947787  -0.00956588  0.62107196  1
  In  In56  1  0.16149039  0.32080881  0.11769837  1
  In  In57  1  0.14522209  0.32890762  0.61919768  1
  In  In58  1  0.16298670  0.66290299  0.12044959  1
  In  In59  1  0.15867521  0.66937346  0.61354182  1
  In  In60  1  0.50827511  -0.00588138  0.14155712  1
  In  In61  1  0.49097721  0.00347615  0.61921485  1
  In  In62  1  0.49528208  0.33995615  0.13189949  1
  In  In63  1  0.51195657  0.34082856  0.61125550  1
  In  In64  1  0.49680529  0.66174944  0.12234740  1
  In  In65  1  0.50592208  0.65618070  0.62700141  1
  In  In66  1  0.83484230  0.00232954  0.12576740  1
  In  In67  1  0.82945925  0.01869764  0.62151918  1
  In  In68  1  0.83318637  0.33205721  0.12418900  1
  In  In69  1  0.84421245  0.32460602  0.63130074  1
  In  In70  1  0.84692943  0.67427061  0.12025025  1
  In  In71  1  0.83545435  0.65257373  0.62530303  1
  In  In72  1  0.67559108  0.66919493  0.24495564  1
  In  In73  1  0.84286427  0.83817778  0.48703641  1
  In  In74  1  0.50250431  0.16605210  0.00232512  1
  In  In75  1  0.32942140  0.00030345  0.75278884  1
  In  In76  1  0.33488526  0.33537117  0.25712483  1
  In  In77  1  0.33085249  0.32770301  0.74811892  1
  In  In78  1  0.83874605  0.49927069  0.49513473  1
  In  In79  1  0.16775013  0.17015841  0.49618058  1
  In  In80  1  -0.00316145  0.66484029  0.75021098  1
  In  In81  1  0.32759244  0.67096013  0.25409590  1
  In  In82  1  0.33391525  0.66873877  0.75654279  1
  In  In83  1  0.66790157  0.00511829  0.74856293  1
  In  In84  1  0.66865258  0.66113818  0.76691024  1
  In  In85  1  0.48840538  0.83843944  0.49590015  1
  Cu  Cu86  1  0.49993051  0.48812841  0.74520823  1
  Cu  Cu87  1  0.83614575  0.16817110  0.75061079  1
  Cu  Cu88  1  0.50827090  0.17083840  0.74302041  1
  Cu  Cu89  1  0.16049889  0.16797097  0.24740060  1
  Cu  Cu90  1  0.16347197  0.82696715  0.24362989  1
  Cu  Cu91  1  0.83412424  0.16815296  0.24557470  1
  Cu  Cu92  1  0.83974416  0.84406085  0.75214337  1
  Cu  Cu93  1  0.66515401  0.66163710  0.00856985  1
  Cu  Cu94  1  -0.00134811  0.66455207  0.00093302  1
  Cu  Cu95  1  0.33297690  0.67140605  0.49600786  1
  Cu  Cu96  1  -0.00263177  0.00180309  0.00832403  1
  Cu  Cu97  1  0.66717103  0.00480653  0.00851317  1
  Cu  Cu98  1  0.49541419  0.82976689  0.76133181  1
  Cu  Cu99  1  0.33396892  0.00090635  0.48920536  1
  Cu  Cu100  1  0.33169245  0.66575306  0.00235552  1
  Cu  Cu101  1  0.15749407  0.17063077  0.75672308  1
  Cu  Cu102  1  0.33240593  0.33420462  0.00277353  1
  Cu  Cu103  1  -0.00202106  0.33133219  0.00180781  1
  Cu  Cu104  1  0.82691724  0.48778512  0.75186048  1
  Cu  Cu105  1  0.66969676  0.33274711  0.00207976  1
  Cu  Cu106  1  0.16215549  0.83934979  0.74989898  1
  Cu  Cu107  1  0.00052460  0.00300657  0.49289993  1
  Cu  Cu108  1  0.83489183  0.83846302  0.24569246  1
  Cu  Cu109  1  0.65917073  0.00945357  0.48796785  1
  Cu  Cu110  1  0.67440515  0.66734404  0.49929547  1
  Cu  Cu111  1  0.50687909  0.49679721  0.25612418  1
  Cu  Cu112  1  0.15570188  0.49103166  0.75021512  1
  Cu  Cu113  1  0.84047063  0.49383233  0.24949933  1
  Cu  Cu114  1  0.16842797  0.49805772  0.24703559  1
  Se  Se115  1  0.08447289  0.08452981  0.05782255  1
  Se  Se116  1  0.07882445  0.07967630  0.55891687  1
  Se  Se117  1  0.08401474  0.41424123  0.05381660  1
  Se  Se118  1  0.08730497  0.42584290  0.55036982  1
  Se  Se119  1  0.07866648  0.74884520  0.05567327  1
  Se  Se120  1  0.08631594  0.76166858  0.54809095  1
  Se  Se121  1  0.42043319  0.07911983  0.06718090  1
  Se  Se122  1  0.41780300  0.08157753  0.54357733  1
  Se  Se123  1  0.42046801  0.41400150  0.05393259  1
  Se  Se124  1  0.42706747  0.42495958  0.54819496  1
  Se  Se125  1  0.41633986  0.74699690  0.05509306  1
  Se  Se126  1  0.41029376  0.74525765  0.56540955  1
  Se  Se127  1  0.75004085  0.08945277  0.05926269  1
  Se  Se128  1  0.75088310  0.08256449  0.54201610  1
  Se  Se129  1  0.75328775  0.41788714  0.05374070  1
  Se  Se130  1  0.75433296  0.41243680  0.56085886  1
  Se  Se131  1  0.75066549  0.74848625  0.05644615  1
  Se  Se132  1  0.75331058  0.74753758  0.55686297  1
  Se  Se133  1  0.25069888  0.24385116  0.04981388  1
  Se  Se134  1  0.25526587  0.25588422  0.56170159  1
  Se  Se135  1  0.24734270  0.57961766  0.05239730  1
  Se  Se136  1  0.25363817  0.58989665  0.55403249  1
  Se  Se137  1  0.23524211  0.90587587  0.05329310  1
  Se  Se138  1  0.24855574  0.92022632  0.54312806  1
  Se  Se139  1  0.58893370  0.25523193  0.06493700  1
  Se  Se140  1  0.56059553  0.22641352  0.55321140  1
  Se  Se141  1  0.58062537  0.57621049  0.05777972  1
  Se  Se142  1  0.58521808  0.58832970  0.54964260  1
  Se  Se143  1  0.58389420  0.92295398  0.06182757  1
  Se  Se144  1  0.59235408  0.92452229  0.55390398  1
  Se  Se145  1  0.91582586  0.24753024  0.05566566  1
  Se  Se146  1  0.92594501  0.25628520  0.55563909  1
  Se  Se147  1  0.91729426  0.57905614  0.05380203  1
  Se  Se148  1  0.92950641  0.59531050  0.55146812  1
  Se  Se149  1  0.91294591  0.91487772  0.05687299  1
  Se  Se150  1  0.92064177  0.92498855  0.55870045  1
  Se  Se151  1  0.07665024  0.25783652  0.43794948  1
  Se  Se152  1  0.08293471  0.24689447  0.94863651  1
  Se  Se153  1  0.09353768  0.57068594  0.44205710  1
  Se  Se154  1  0.08216443  0.58226332  0.94615033  1
  Se  Se155  1  0.08331602  0.91785196  0.44246879  1
  Se  Se156  1  0.07883132  0.91664508  0.95241166  1
  Se  Se157  1  0.38949883  0.26641357  0.44385505  1
  Se  Se158  1  0.41062859  0.25539030  0.93845937  1
  Se  Se159  1  0.41977409  0.58899907  0.44737623  1
  Se  Se160  1  0.41546840  0.58014405  0.95096980  1
  Se  Se161  1  0.41864223  0.92947637  0.42791521  1
  Se  Se162  1  0.43394522  0.90817938  0.95807401  1
  Se  Se163  1  0.74143666  0.25750938  0.44884675  1
  Se  Se164  1  0.75259618  0.24824122  0.94975468  1
  Se  Se165  1  0.74475572  0.58763012  0.43447439  1
  Se  Se166  1  0.74613482  0.58248253  0.94926382  1
  Se  Se167  1  0.74301589  0.92508596  0.43410093  1
  Se  Se168  1  0.75052065  0.92049049  0.95337499  1
  Se  Se169  1  0.25095629  0.08196230  0.43075914  1
  Se  Se170  1  0.27538726  0.05862033  0.95106730  1
  Se  Se171  1  0.24192988  0.42069383  0.45576624  1
  Se  Se172  1  0.24778366  0.41628831  0.94790817  1
  Se  Se173  1  0.25364558  0.75456540  0.44180083  1
  Se  Se174  1  0.24476926  0.75015817  0.95407871  1
  Se  Se175  1  0.57599686  0.07807997  0.42621199  1
  Se  Se176  1  0.59433066  0.07925166  0.93801873  1
  Se  Se177  1  0.58260275  0.42075691  0.45824713  1
  Se  Se178  1  0.58134976  0.41203614  0.94887859  1
  Se  Se179  1  0.59002567  0.74888062  0.44274679  1
  Se  Se180  1  0.58324437  0.74714958  0.95443168  1
  Se  Se181  1  0.91509922  0.08950754  0.44668807  1
  Se  Se182  1  0.91592227  0.08527708  0.95113585  1
  Se  Se183  1  0.91885105  0.41401657  0.42781568  1
  Se  Se184  1  0.91522214  0.41592090  0.94721621  1
  Se  Se185  1  0.93079449  0.73948125  0.43799004  1
  Se  Se186  1  0.91546012  0.75194184  0.94961851  1
  Se  Se187  1  0.24135242  0.24241861  0.31248506  1
  Se  Se188  1  0.24259377  0.24544971  0.81538688  1
  Se  Se189  1  0.25083561  0.56877032  0.31140168  1
  Se  Se190  1  0.23610224  0.57358693  0.80693322  1
  Se  Se191  1  0.24240398  0.91002979  0.30060646  1
  Se  Se192  1  0.24206340  0.91263459  0.81413952  1
  Se  Se193  1  0.57610490  0.25379172  0.31433221  1
  Se  Se194  1  0.59018213  0.25388305  0.79554055  1
  Se  Se195  1  0.58813231  0.58151681  0.31228509  1
  Se  Se196  1  0.56948666  0.56913130  0.81334766  1
  Se  Se197  1  0.58258140  0.91232231  0.28521444  1
  Se  Se198  1  0.58139821  0.91273467  0.81253612  1
  Se  Se199  1  0.91491673  0.25151779  0.30125146  1
  Se  Se200  1  0.91764947  0.24967087  0.80683973  1
  Se  Se201  1  0.92393769  0.58323963  0.29517204  1
  Se  Se202  1  0.90347258  0.57668357  0.80927472  1
  Se  Se203  1  0.91981871  0.91609183  0.30326270  1
  Se  Se204  1  0.92265587  0.92497150  0.80530069  1
  Se  Se205  1  0.07500838  0.08362001  0.29987758  1
  Se  Se206  1  0.08348516  0.08146223  0.81182253  1
  Se  Se207  1  0.08647424  0.41196812  0.29808918  1
  Se  Se208  1  0.07274367  0.41082931  0.80370467  1
  Se  Se209  1  0.08868073  0.74215687  0.30257145  1
  Se  Se210  1  0.08597861  0.75604990  0.81015858  1
  Se  Se211  1  0.39440054  0.06369723  0.29622598  1
  Se  Se212  1  0.42917006  0.09254426  0.80568801  1
  Se  Se213  1  0.42723810  0.41989389  0.31777154  1
  Se  Se214  1  0.41783648  0.41769349  0.81096401  1
  Se  Se215  1  0.42968465  0.76059393  0.30092633  1
  Se  Se216  1  0.41213357  0.75926454  0.82287745  1
  Se  Se217  1  0.75280751  0.08621803  0.30336314  1
  Se  Se218  1  0.75804626  0.08752497  0.81256269  1
  Se  Se219  1  0.75047476  0.41434838  0.29944234  1
  Se  Se220  1  0.74526097  0.40708631  0.80777509  1
  Se  Se221  1  0.75727315  0.76067286  0.31214835  1
  Se  Se222  1  0.75961838  0.76490253  0.81230794  1
  Se  Se223  1  0.24411077  0.08551310  0.19442565  1
  Se  Se224  1  0.23794684  0.09260696  0.69400873  1
  Se  Se225  1  0.24967455  0.41748712  0.18717547  1
  Se  Se226  1  0.24154883  0.41917901  0.68956833  1
  Se  Se227  1  0.24993771  0.75530360  0.18357278  1
  Se  Se228  1  0.24230975  0.75673641  0.69256902  1
  Se  Se229  1  0.57394593  0.09555979  0.20514679  1
  Se  Se230  1  0.58233132  0.08800655  0.68205926  1
  Se  Se231  1  0.58572326  0.41323959  0.20068997  1
  Se  Se232  1  0.58593442  0.41039772  0.69259767  1
  Se  Se233  1  0.57842977  0.75236393  0.18845117  1
  Se  Se234  1  0.57538474  0.75070044  0.70190957  1
  Se  Se235  1  0.91887892  0.08265709  0.19551682  1
  Se  Se236  1  0.91526912  0.08052509  0.69774792  1
  Se  Se237  1  0.92128792  0.41155150  0.19281816  1
  Se  Se238  1  0.91915859  0.41596432  0.69909527  1
  Se  Se239  1  0.91867049  0.75075054  0.19781265  1
  Se  Se240  1  0.90803295  0.75696321  0.68901663  1
  Se  Se241  1  0.08018408  0.25535394  0.19581261  1
  Se  Se242  1  0.07905855  0.25215137  0.69915988  1
  Se  Se243  1  0.08659783  0.58137612  0.19346993  1
  Se  Se244  1  0.08589670  0.57788124  0.68817347  1
  Se  Se245  1  0.08149244  0.91693923  0.19587997  1
  Se  Se246  1  0.08270701  0.92478286  0.69685880  1
  Se  Se247  1  0.42088595  0.24185714  0.19712157  1
  Se  Se248  1  0.41956054  0.24240283  0.68493948  1
  Se  Se249  1  0.42121817  0.57355551  0.19852359  1
  Se  Se250  1  0.41651750  0.57264322  0.69333870  1
  Se  Se251  1  0.40491839  0.92105370  0.19870845  1
  Se  Se252  1  0.42332230  0.90720893  0.69425514  1
  Se  Se253  1  0.74974689  0.25454951  0.19660928  1
  Se  Se254  1  0.74921221  0.24355790  0.69173004  1
  Se  Se255  1  0.76151672  0.57463332  0.18693259  1
  Se  Se256  1  0.74736414  0.57292192  0.69476381  1
  Se  Se257  1  0.74932169  0.92178393  0.19645097  1
  Se  Se258  1  0.75446005  0.90958828  0.68680604  1
