# generated using pymatgen
data_In86Cu29Se144
_symmetry_space_group_name_H-M   'P 1'
_cell_length_a   17.58483379
_cell_length_b   17.58694767
_cell_length_c   23.45176291
_cell_angle_alpha   89.98495260
_cell_angle_beta   89.99011256
_cell_angle_gamma   90.00219295
_symmetry_Int_Tables_number   1
_chemical_formula_structural   In86Cu29Se144
_chemical_formula_sum   'In86 Cu29 Se144'
_cell_volume   7252.77512535
_cell_formula_units_Z   1
loop_
 _symmetry_equiv_pos_site_id
 _symmetry_equiv_pos_as_xyz
  1  'x, y, z'
loop_
 _atom_site_type_symbol
 _atom_site_label
 _atom_site_symmetry_multiplicity
 _atom_site_fract_x
 _atom_site_fract_y
 _atom_site_fract_z
 _atom_site_occupancy
  In  In0  1  -0.00771081  0.17627882  0.11874304  1
  In  In1  1  0.00329495  0.15953000  0.63348888  1
  In  In2  1  0.00044854  0.50128084  0.11417997  1
  In  In3  1  -0.00188859  0.50008478  0.64125897  1
  In  In4  1  -0.00174551  0.83209209  0.11504933  1
  In  In5  1  -0.01120876  0.84574257  0.63841051  1
  In  In6  1  0.35965501  0.16810033  0.11907859  1
  In  In7  1  0.33613990  0.18254454  0.62610456  1
  In  In8  1  0.33200158  0.49325215  0.12125325  1
  In  In9  1  0.33825307  0.49132557  0.62714605  1
  In  In10  1  0.34779489  0.85386797  0.10130367  1
  In  In11  1  0.33925493  0.83101181  0.62231877  1
  In  In12  1  0.66642029  0.17176378  0.12653842  1
  In  In13  1  0.66172233  0.16579960  0.63296762  1
  In  In14  1  0.66312538  0.49785160  0.12305930  1
  In  In15  1  0.65322971  0.49568938  0.62379214  1
  In  In16  1  0.66453659  0.83248859  0.12590676  1
  In  In17  1  0.66831665  0.83446161  0.62143752  1
  In  In18  1  0.18393734  0.00842864  0.37934216  1
  In  In19  1  0.15339240  0.00148076  0.87256841  1
  In  In20  1  0.16987666  0.32038487  0.37970197  1
  In  In21  1  0.17309297  0.34161319  0.87033240  1
  In  In22  1  0.15842815  0.65933052  0.37407978  1
  In  In23  1  0.15697364  0.67465081  0.88056157  1
  In  In24  1  0.50592929  -0.01607863  0.37487818  1
  In  In25  1  0.51696022  -0.01333099  0.88549701  1
  In  In26  1  0.50529021  0.34283033  0.36590500  1
  In  In27  1  0.49985277  0.33048590  0.87758831  1
  In  In28  1  0.51465996  0.66109707  0.37293622  1
  In  In29  1  0.49888146  0.66862004  0.88537540  1
  In  In30  1  0.81467981  -0.00304700  0.37095655  1
  In  In31  1  0.82961309  0.00212667  0.87858313  1
  In  In32  1  0.82399227  0.33535845  0.37342426  1
  In  In33  1  0.82801594  0.33214972  0.87587443  1
  In  In34  1  0.82809911  0.68276840  0.38125735  1
  In  In35  1  0.83892303  0.65904156  0.88151951  1
  In  In36  1  0.00899655  0.17335755  0.38012439  1
  In  In37  1  -0.01297172  0.15599302  0.86884072  1
  In  In38  1  -0.00177520  0.50024213  0.37573651  1
  In  In39  1  -0.00166100  0.50065895  0.87384027  1
  In  In40  1  -0.00063720  0.82001369  0.37710861  1
  In  In41  1  -0.00602116  0.83418556  0.87423526  1
  In  In42  1  0.32269343  0.16254077  0.37736241  1
  In  In43  1  0.33219748  0.17844961  0.87498083  1
  In  In44  1  0.36040493  0.50321975  0.36654539  1
  In  In45  1  0.34511323  0.48851525  0.88472490  1
  In  In46  1  0.35062398  0.84376219  0.37488489  1
  In  In47  1  0.34412698  0.83132555  0.88658680  1
  In  In48  1  0.67222063  0.16306544  0.36321413  1
  In  In49  1  0.66564490  0.16624155  0.87902284  1
  In  In50  1  0.63998452  0.48323521  0.34824627  1
  In  In51  1  0.67302928  0.49268959  0.88429446  1
  In  In52  1  0.66401680  0.83626267  0.37131807  1
  In  In53  1  0.65688609  0.84726202  0.88148810  1
  In  In54  1  0.19275468  -0.00115423  0.11292751  1
  In  In55  1  0.15251172  -0.00393131  0.62691865  1
  In  In56  1  0.16376088  0.34321861  0.12113724  1
  In  In57  1  0.17239915  0.32732860  0.63467990  1
  In  In58  1  0.17090168  0.66726262  0.11442084  1
  In  In59  1  0.16735277  0.65723737  0.63114298  1
  In  In60  1  0.50571534  0.00670422  0.11767069  1
  In  In61  1  0.51241673  -0.00018843  0.62966118  1
  In  In62  1  0.50706814  0.33588454  0.12616707  1
  In  In63  1  0.49604751  0.33397793  0.63106686  1
  In  In64  1  0.51224311  0.67302306  0.12317204  1
  In  In65  1  0.50409158  0.67114491  0.61565345  1
  In  In66  1  0.82832913  -0.00055523  0.12013135  1
  In  In67  1  0.83377433  -0.00534576  0.63176689  1
  In  In68  1  0.80981942  0.31809661  0.10908461  1
  In  In69  1  0.82840009  0.33588380  0.63536475  1
  In  In70  1  0.82311737  0.65823309  0.11516376  1
  In  In71  1  0.82528773  0.68255583  0.63041584  1
  In  In72  1  0.33406666  0.00449208  0.75058750  1
  In  In73  1  0.34631438  0.00403911  0.24169514  1
  In  In74  1  -0.00268143  -0.00085756  0.23918552  1
  In  In75  1  0.49534491  0.16468722  0.50262629  1
  In  In76  1  0.83089486  0.16302062  0.49215238  1
  In  In77  1  0.82456103  0.50259969  0.50150733  1
  In  In78  1  0.66891063  0.66367603  0.75142744  1
  In  In79  1  -0.01098514  0.33558903  0.25269790  1
  In  In80  1  -0.00637070  0.66237965  0.25142404  1
  In  In81  1  0.16237268  0.16422557  -0.00827851  1
  In  In82  1  0.33410845  0.66531025  0.76286413  1
  In  In83  1  0.16912455  0.83379590  0.50035769  1
  In  In84  1  0.34615088  0.66900579  0.24439060  1
  In  In85  1  0.17274791  0.49693803  0.50826771  1
  Cu  Cu86  1  -0.00727874  0.67522201  0.51073229  1
  Cu  Cu87  1  0.82498803  0.49921312  0.24039315  1
  Cu  Cu88  1  0.16949858  0.17161840  0.25314555  1
  Cu  Cu89  1  0.66087197  0.33206641  0.00069330  1
  Cu  Cu90  1  0.82702464  0.83465280  0.24751920  1
  Cu  Cu91  1  0.50438994  0.17041654  0.24590846  1
  Cu  Cu92  1  0.66672766  0.67132536  0.00223524  1
  Cu  Cu93  1  0.17929184  0.83349153  0.23834790  1
  Cu  Cu94  1  -0.00425160  -0.00163658  -0.00493166  1
  Cu  Cu95  1  0.83064587  0.83527808  0.75533443  1
  Cu  Cu96  1  0.33784921  0.32838698  0.00080441  1
  Cu  Cu97  1  0.67090179  0.00504485  0.00285107  1
  Cu  Cu98  1  -0.00309614  -0.00428592  0.50782286  1
  Cu  Cu99  1  0.16193080  0.83217251  0.75631132  1
  Cu  Cu100  1  0.16141605  0.17187556  0.75405135  1
  Cu  Cu101  1  0.66499825  0.66882775  0.49551935  1
  Cu  Cu102  1  0.17423890  0.49677249  0.24480477  1
  Cu  Cu103  1  -0.00018045  0.32585886  0.50645102  1
  Cu  Cu104  1  0.50382224  0.16651347  0.75467383  1
  Cu  Cu105  1  0.16340390  0.49879801  0.75380432  1
  Cu  Cu106  1  -0.00573780  0.33890594  -0.00553586  1
  Cu  Cu107  1  0.34627804  0.67398556  0.49369005  1
  Cu  Cu108  1  0.66611978  -0.00720699  0.49964360  1
  Cu  Cu109  1  0.82778950  0.16635200  0.75410352  1
  Cu  Cu110  1  0.33500816  0.65657592  0.00270199  1
  Cu  Cu111  1  0.49722259  0.49500632  0.75342712  1
  Cu  Cu112  1  0.83267671  0.49545411  0.75979114  1
  Cu  Cu113  1  0.33983664  0.34153677  0.50262871  1
  Cu  Cu114  1  -0.00106400  0.66806058  -0.00559300  1
  Se  Se115  1  0.07682367  0.07516496  0.05941304  1
  Se  Se116  1  0.07912839  0.08361929  0.55611621  1
  Se  Se117  1  0.08320749  0.41647432  0.04721641  1
  Se  Se118  1  0.07433347  0.41260221  0.56481106  1
  Se  Se119  1  0.08319572  0.74878864  0.04969384  1
  Se  Se120  1  0.08079247  0.74966514  0.56766635  1
  Se  Se121  1  0.39270391  0.05565742  0.05540721  1
  Se  Se122  1  0.41004274  0.07711005  0.56697305  1
  Se  Se123  1  0.41959577  0.41247213  0.05489385  1
  Se  Se124  1  0.42544454  0.42074478  0.55581687  1
  Se  Se125  1  0.41946705  0.74296509  0.05255983  1
  Se  Se126  1  0.42318930  0.75931107  0.54938415  1
  Se  Se127  1  0.75163756  0.09198490  0.05509621  1
  Se  Se128  1  0.74354781  0.07758015  0.55882666  1
  Se  Se129  1  0.74685571  0.42222405  0.04777842  1
  Se  Se130  1  0.74085671  0.40514108  0.55797970  1
  Se  Se131  1  0.75104572  0.75663136  0.05311074  1
  Se  Se132  1  0.74865504  0.74952181  0.55136903  1
  Se  Se133  1  0.25192542  0.24819213  0.05899160  1
  Se  Se134  1  0.25271110  0.26095559  0.55534383  1
  Se  Se135  1  0.24742147  0.57342865  0.05165954  1
  Se  Se136  1  0.26685218  0.59660473  0.55759627  1
  Se  Se137  1  0.23228087  0.89743301  0.04159453  1
  Se  Se138  1  0.25475378  0.92578310  0.56069869  1
  Se  Se139  1  0.57927663  0.24629057  0.05436053  1
  Se  Se140  1  0.58750238  0.25399403  0.55992188  1
  Se  Se141  1  0.58415177  0.58319413  0.05258777  1
  Se  Se142  1  0.58546798  0.58374623  0.55101490  1
  Se  Se143  1  0.58781052  0.91776874  0.05362428  1
  Se  Se144  1  0.57957991  0.91474543  0.55396973  1
  Se  Se145  1  0.91337354  0.25195904  0.04610090  1
  Se  Se146  1  0.91322468  0.24945481  0.56240095  1
  Se  Se147  1  0.91598743  0.58440272  0.04887301  1
  Se  Se148  1  0.91784009  0.58618080  0.56648180  1
  Se  Se149  1  0.91307086  0.91744774  0.05200132  1
  Se  Se150  1  0.91222019  0.91334869  0.55817192  1
  Se  Se151  1  0.08820644  0.24750983  0.45459692  1
  Se  Se152  1  0.07338919  0.25594032  0.93376046  1
  Se  Se153  1  0.07102206  0.58957658  0.45251663  1
  Se  Se154  1  0.08218196  0.58024621  0.94530665  1
  Se  Se155  1  0.07779364  0.92368331  0.43887117  1
  Se  Se156  1  0.08048976  0.91553332  0.94369137  1
  Se  Se157  1  0.41257594  0.25787159  0.43929847  1
  Se  Se158  1  0.42021871  0.24417946  0.94883958  1
  Se  Se159  1  0.42579939  0.58489635  0.44331350  1
  Se  Se160  1  0.42331081  0.57690837  0.95107881  1
  Se  Se161  1  0.40251376  0.94020840  0.44583051  1
  Se  Se162  1  0.41958017  0.91995697  0.95201251  1
  Se  Se163  1  0.73499978  0.25618937  0.44244732  1
  Se  Se164  1  0.74807863  0.25079160  0.94788706  1
  Se  Se165  1  0.73967483  0.58454739  0.43430866  1
  Se  Se166  1  0.74855594  0.58493938  0.94945343  1
  Se  Se167  1  0.75083214  0.91155583  0.44577006  1
  Se  Se168  1  0.75081393  0.91778427  0.94934886  1
  Se  Se169  1  0.24493941  0.09367338  0.45434188  1
  Se  Se170  1  0.25553029  0.07461041  0.93634606  1
  Se  Se171  1  0.25898710  0.41830502  0.43830917  1
  Se  Se172  1  0.25113603  0.41050617  0.94914572  1
  Se  Se173  1  0.25612527  0.74285874  0.43443642  1
  Se  Se174  1  0.25710437  0.74097007  0.94524796  1
  Se  Se175  1  0.59143191  0.08083284  0.44131519  1
  Se  Se176  1  0.58304325  0.08635692  0.95099046  1
  Se  Se177  1  0.58543355  0.42023395  0.43788184  1
  Se  Se178  1  0.57803824  0.41673996  0.94779941  1
  Se  Se179  1  0.58245237  0.75461883  0.44269959  1
  Se  Se180  1  0.58262214  0.75484542  0.94937744  1
  Se  Se181  1  0.92402429  0.06955695  0.43645448  1
  Se  Se182  1  0.91203996  0.08719618  0.94866828  1
  Se  Se183  1  0.92306889  0.40654470  0.44527987  1
  Se  Se184  1  0.90983109  0.42164894  0.94193096  1
  Se  Se185  1  0.91404350  0.75616805  0.45328137  1
  Se  Se186  1  0.91299974  0.75397879  0.94653526  1
  Se  Se187  1  0.25451596  0.25278930  0.30478611  1
  Se  Se188  1  0.25092477  0.25308371  0.80178979  1
  Se  Se189  1  0.24784476  0.58110760  0.30614871  1
  Se  Se190  1  0.24439004  0.57290411  0.81843030  1
  Se  Se191  1  0.25008752  0.91454657  0.30333794  1
  Se  Se192  1  0.24918999  0.90867856  0.81287824  1
  Se  Se193  1  0.58624356  0.25116770  0.30246032  1
  Se  Se194  1  0.58572584  0.25142287  0.80833736  1
  Se  Se195  1  0.58404632  0.59376394  0.29053920  1
  Se  Se196  1  0.57662139  0.57697467  0.81281654  1
  Se  Se197  1  0.59739536  0.93050693  0.30123491  1
  Se  Se198  1  0.58620156  0.92094018  0.80263792  1
  Se  Se199  1  0.90781697  0.23622951  0.31164388  1
  Se  Se200  1  0.91197012  0.25107486  0.80524251  1
  Se  Se201  1  0.90019384  0.57284104  0.30990967  1
  Se  Se202  1  0.91585631  0.58589809  0.80425864  1
  Se  Se203  1  0.91702223  0.90648172  0.30661401  1
  Se  Se204  1  0.91332514  0.92150432  0.80703276  1
  Se  Se205  1  0.09007289  0.08457202  0.30673192  1
  Se  Se206  1  0.07835351  0.08239398  0.79993981  1
  Se  Se207  1  0.09169343  0.42228876  0.30912579  1
  Se  Se208  1  0.07861519  0.41427351  0.80431421  1
  Se  Se209  1  0.09582550  0.75819394  0.29994599  1
  Se  Se210  1  0.07684861  0.74775441  0.80553440  1
  Se  Se211  1  0.42642006  0.09189213  0.31086380  1
  Se  Se212  1  0.42396349  0.08635998  0.81510149  1
  Se  Se213  1  0.41346270  0.40944582  0.29458170  1
  Se  Se214  1  0.41407172  0.41090915  0.80603957  1
  Se  Se215  1  0.43097115  0.76044875  0.30596761  1
  Se  Se216  1  0.43072181  0.75987684  0.80911539  1
  Se  Se217  1  0.75183823  0.07927836  0.29553284  1
  Se  Se218  1  0.74600828  0.08230659  0.80827100  1
  Se  Se219  1  0.75071561  0.41127441  0.29712888  1
  Se  Se220  1  0.74231359  0.41414583  0.80614351  1
  Se  Se221  1  0.74941501  0.74974343  0.30372575  1
  Se  Se222  1  0.75155676  0.75436117  0.81584058  1
  Se  Se223  1  0.24857380  0.09628046  0.18808606  1
  Se  Se224  1  0.24116959  0.09250275  0.69019161  1
  Se  Se225  1  0.25264988  0.40988038  0.19372257  1
  Se  Se226  1  0.25024153  0.42160583  0.69797897  1
  Se  Se227  1  0.25923136  0.75597389  0.17927630  1
  Se  Se228  1  0.24640228  0.75647304  0.69606277  1
  Se  Se229  1  0.58227672  0.08346489  0.19241869  1
  Se  Se230  1  0.58634738  0.08008782  0.70369592  1
  Se  Se231  1  0.60194468  0.40258698  0.19452125  1
  Se  Se232  1  0.58314859  0.41445383  0.69959298  1
  Se  Se233  1  0.59298027  0.74434893  0.19776637  1
  Se  Se234  1  0.57777147  0.75267306  0.69263571  1
  Se  Se235  1  0.90756897  0.09697025  0.19013793  1
  Se  Se236  1  0.91150334  0.08312661  0.69874413  1
  Se  Se237  1  0.91021231  0.42174464  0.18352299  1
  Se  Se238  1  0.91550453  0.41204375  0.70423841  1
  Se  Se239  1  0.91013944  0.75365867  0.18888982  1
  Se  Se240  1  0.91387520  0.74985555  0.70248684  1
  Se  Se241  1  0.08574025  0.24711986  0.19289186  1
  Se  Se242  1  0.07707808  0.25414130  0.69915151  1
  Se  Se243  1  0.09017550  0.57866056  0.19037298  1
  Se  Se244  1  0.08281525  0.58810008  0.70428184  1
  Se  Se245  1  0.09652785  0.91411449  0.18214412  1
  Se  Se246  1  0.08138011  0.92031249  0.70477078  1
  Se  Se247  1  0.41882190  0.25358359  0.19559749  1
  Se  Se248  1  0.41811430  0.24958483  0.70219239  1
  Se  Se249  1  0.42784726  0.57336848  0.18598693  1
  Se  Se250  1  0.42385613  0.58302126  0.69399345  1
  Se  Se251  1  0.43023458  0.90574668  0.18744162  1
  Se  Se252  1  0.42292765  0.90910448  0.69511034  1
  Se  Se253  1  0.74886823  0.25577198  0.19547912  1
  Se  Se254  1  0.74482780  0.24959922  0.69983109  1
  Se  Se255  1  0.74459971  0.58744955  0.19157664  1
  Se  Se256  1  0.75703475  0.57076744  0.69035037  1
  Se  Se257  1  0.74961502  0.91984683  0.19256863  1
  Se  Se258  1  0.74590832  0.91199814  0.69665302  1
