# generated using pymatgen
data_In86Cu29Se144
_symmetry_space_group_name_H-M   'P 1'
_cell_length_a   17.57195967
_cell_length_b   17.57477992
_cell_length_c   23.43731576
_cell_angle_alpha   89.98871635
_cell_angle_beta   89.97053545
_cell_angle_gamma   90.00665746
_symmetry_Int_Tables_number   1
_chemical_formula_structural   In86Cu29Se144
_chemical_formula_sum   'In86 Cu29 Se144'
_cell_volume   7237.98861213
_cell_formula_units_Z   1
loop_
 _symmetry_equiv_pos_site_id
 _symmetry_equiv_pos_as_xyz
  1  'x, y, z'
loop_
 _atom_site_type_symbol
 _atom_site_label
 _atom_site_symmetry_multiplicity
 _atom_site_fract_x
 _atom_site_fract_y
 _atom_site_fract_z
 _atom_site_occupancy
  In  In0  1  0.01028821  0.16101839  0.13267130  1
  In  In1  1  0.00912417  0.17363305  0.61817662  1
  In  In2  1  -0.01890821  0.49698926  0.12359590  1
  In  In3  1  0.00462839  0.48851356  0.62901397  1
  In  In4  1  0.01307004  0.83372620  0.12579191  1
  In  In5  1  -0.02017399  0.83792110  0.62374611  1
  In  In6  1  0.33583274  0.16971622  0.12668011  1
  In  In7  1  0.32662203  0.17171548  0.62752758  1
  In  In8  1  0.33881537  0.49542459  0.12717669  1
  In  In9  1  0.33575603  0.49671676  0.61472267  1
  In  In10  1  0.34631364  0.82284639  0.13475569  1
  In  In11  1  0.34662052  0.83568184  0.62505804  1
  In  In12  1  0.66246643  0.17921428  0.12169642  1
  In  In13  1  0.68081553  0.15343483  0.64768043  1
  In  In14  1  0.67706361  0.50417995  0.11928175  1
  In  In15  1  0.66149423  0.51004958  0.62887303  1
  In  In16  1  0.64736845  0.83294871  0.11901660  1
  In  In17  1  0.67330795  0.83058586  0.62784407  1
  In  In18  1  0.17513942  0.00960634  0.37067753  1
  In  In19  1  0.18205774  -0.00222053  0.87625642  1
  In  In20  1  0.16672449  0.33172719  0.37355265  1
  In  In21  1  0.14994510  0.33021567  0.87636294  1
  In  In22  1  0.16953697  0.65149031  0.37385422  1
  In  In23  1  0.16408260  0.67053071  0.87393162  1
  In  In24  1  0.49355016  0.00996744  0.37199842  1
  In  In25  1  0.49572637  0.00219016  0.87206765  1
  In  In26  1  0.50238887  0.33893111  0.37160257  1
  In  In27  1  0.51018437  0.32730503  0.88191179  1
  In  In28  1  0.49390973  0.65854892  0.36493053  1
  In  In29  1  0.50844287  0.65647630  0.89258826  1
  In  In30  1  0.84121484  -0.01013517  0.38238273  1
  In  In31  1  0.82040328  0.02143296  0.86929915  1
  In  In32  1  0.83492359  0.31864258  0.38076723  1
  In  In33  1  0.83574119  0.33243089  0.86469242  1
  In  In34  1  0.83115884  0.67974510  0.37873096  1
  In  In35  1  0.82893189  0.65869212  0.86921977  1
  In  In36  1  0.00291005  0.16883793  0.37571419  1
  In  In37  1  -0.00566186  0.17903974  0.87669864  1
  In  In38  1  0.01711150  0.50231577  0.37645467  1
  In  In39  1  -0.01089415  0.49024238  0.87002940  1
  In  In40  1  -0.01579484  0.83202862  0.37677984  1
  In  In41  1  0.00626654  0.82460461  0.86901406  1
  In  In42  1  0.32781445  0.15487369  0.36457353  1
  In  In43  1  0.34492744  0.15392887  0.88640734  1
  In  In44  1  0.33557572  0.49315495  0.36828952  1
  In  In45  1  0.34538835  0.51134492  0.88424296  1
  In  In46  1  0.34159662  0.83709803  0.36491871  1
  In  In47  1  0.33267101  0.84717173  0.87727836  1
  In  In48  1  0.66825005  0.17380923  0.38231047  1
  In  In49  1  0.64809160  0.15201424  0.84573630  1
  In  In50  1  0.65039255  0.50028478  0.37976411  1
  In  In51  1  0.66603944  0.50263686  0.87420693  1
  In  In52  1  0.68143765  0.83037466  0.37916629  1
  In  In53  1  0.65692272  0.82439096  0.86903778  1
  In  In54  1  0.16351715  0.00713434  0.13140698  1
  In  In55  1  0.16180005  0.01685866  0.62350475  1
  In  In56  1  0.17750466  0.32292892  0.13261953  1
  In  In57  1  0.16068692  0.32459989  0.61765176  1
  In  In58  1  0.16958717  0.67581987  0.12702632  1
  In  In59  1  0.16753684  0.64713720  0.62211558  1
  In  In60  1  0.49179664  -0.00295835  0.12112128  1
  In  In61  1  0.50707016  -0.00154862  0.63891396  1
  In  In62  1  0.48816256  0.32439511  0.11458174  1
  In  In63  1  0.49798827  0.34265068  0.62857925  1
  In  In64  1  0.50053655  0.66720882  0.12258766  1
  In  In65  1  0.52137789  0.65864555  0.62374478  1
  In  In66  1  0.83570470  0.01054060  0.12694843  1
  In  In67  1  0.81908302  -0.00254621  0.61425407  1
  In  In68  1  0.82628801  0.34580551  0.12732321  1
  In  In69  1  0.83987499  0.31796383  0.63944485  1
  In  In70  1  0.83623947  0.64638229  0.12300021  1
  In  In71  1  0.82051499  0.67986606  0.63144459  1
  In  In72  1  0.00486733  0.66732769  0.24981255  1
  In  In73  1  -0.00304175  0.00009910  0.74739600  1
  In  In74  1  0.33501309  0.32771643  0.75318838  1
  In  In75  1  0.50908424  0.82829991  0.50669963  1
  In  In76  1  0.50304062  0.16855202  0.50190479  1
  In  In77  1  0.82551240  0.18042550  -0.00730406  1
  In  In78  1  0.16585155  0.83212272  0.49343032  1
  In  In79  1  0.16815443  0.49597675  0.00278184  1
  In  In80  1  0.83022291  0.83000533  -0.01283142  1
  In  In81  1  0.83004181  0.50390769  0.50695405  1
  In  In82  1  0.66419418  0.33415990  0.25480416  1
  In  In83  1  0.66512090  -0.00110474  0.24910347  1
  In  In84  1  0.33431384  0.67111019  0.75683928  1
  In  In85  1  0.17346987  0.83293226  0.00504830  1
  Cu  Cu86  1  0.33334135  0.33236941  0.00555354  1
  Cu  Cu87  1  0.33693473  0.00511099  0.00232085  1
  Cu  Cu88  1  0.84491579  0.16226680  0.25571607  1
  Cu  Cu89  1  0.16973449  0.84070464  0.25024480  1
  Cu  Cu90  1  0.17152186  0.49454880  0.24995254  1
  Cu  Cu91  1  0.16516981  0.17093647  0.25155091  1
  Cu  Cu92  1  0.00248233  0.33592600  0.50136977  1
  Cu  Cu93  1  0.16560805  0.16715776  0.74804176  1
  Cu  Cu94  1  0.83109249  0.50055542  0.25138410  1
  Cu  Cu95  1  0.00249723  -0.00130736  0.00605432  1
  Cu  Cu96  1  0.50285891  0.50809515  0.75353158  1
  Cu  Cu97  1  0.65393591  0.00848214  -0.00696505  1
  Cu  Cu98  1  0.66737168  0.66715590  -0.00143134  1
  Cu  Cu99  1  -0.00447799  0.00851024  0.50084608  1
  Cu  Cu100  1  0.83416779  0.50389556  0.74650769  1
  Cu  Cu101  1  0.33134804  0.00489886  0.49787197  1
  Cu  Cu102  1  0.16136585  0.49117700  0.74892642  1
  Cu  Cu103  1  0.83264256  0.83412468  0.25314058  1
  Cu  Cu104  1  -0.00327148  0.33152654  -0.00038593  1
  Cu  Cu105  1  0.16651632  0.82943772  0.75046160  1
  Cu  Cu106  1  0.50178574  0.83706038  0.75112622  1
  Cu  Cu107  1  0.32899176  0.33359800  0.49540030  1
  Cu  Cu108  1  0.33928465  0.65233534  0.49220093  1
  Cu  Cu109  1  0.50204779  0.82897679  0.24658460  1
  Cu  Cu110  1  0.66933732  0.33188104  0.50574268  1
  Cu  Cu111  1  -0.00217705  0.66804457  0.50084770  1
  Cu  Cu112  1  0.50196303  0.49836724  0.24570121  1
  Cu  Cu113  1  0.66352852  0.34031239  -0.00570435  1
  Cu  Cu114  1  0.82923730  0.83380963  0.74962263  1
  Se  Se115  1  0.08516180  0.08427592  0.05596055  1
  Se  Se116  1  0.08736459  0.08953198  0.54639308  1
  Se  Se117  1  0.07758764  0.40690860  0.06367308  1
  Se  Se118  1  0.08729942  0.42042110  0.55210003  1
  Se  Se119  1  0.07334068  0.73721398  0.05218082  1
  Se  Se120  1  0.07988277  0.74860996  0.56195872  1
  Se  Se121  1  0.42005585  0.09110590  0.05406276  1
  Se  Se122  1  0.41416921  0.07543716  0.56286024  1
  Se  Se123  1  0.41752963  0.42246863  0.04995162  1
  Se  Se124  1  0.41778724  0.41020829  0.54958983  1
  Se  Se125  1  0.42301221  0.75829927  0.05615628  1
  Se  Se126  1  0.41118129  0.73271692  0.55832856  1
  Se  Se127  1  0.74128380  0.08013065  0.05403149  1
  Se  Se128  1  0.74384046  0.09918341  0.55775467  1
  Se  Se129  1  0.75310230  0.41676148  0.04820760  1
  Se  Se130  1  0.74860013  0.40950434  0.56802550  1
  Se  Se131  1  0.74859764  0.74729414  0.05940474  1
  Se  Se132  1  0.73977602  0.74399776  0.55383576  1
  Se  Se133  1  0.24869508  0.24710649  0.05455022  1
  Se  Se134  1  0.25150324  0.24704695  0.55110797  1
  Se  Se135  1  0.25497568  0.59057046  0.06015145  1
  Se  Se136  1  0.24976199  0.57755487  0.54697127  1
  Se  Se137  1  0.25978131  0.92331828  0.06579408  1
  Se  Se138  1  0.25417926  0.92017458  0.55838146  1
  Se  Se139  1  0.58369153  0.25231605  0.04732450  1
  Se  Se140  1  0.58895121  0.25248887  0.56726917  1
  Se  Se141  1  0.58665393  0.58389129  0.05499405  1
  Se  Se142  1  0.57984853  0.57119220  0.54874923  1
  Se  Se143  1  0.57796062  0.92197361  0.04878758  1
  Se  Se144  1  0.59128265  0.92817407  0.56133537  1
  Se  Se145  1  0.91732680  0.25257148  0.06407070  1
  Se  Se146  1  0.91700318  0.25604126  0.55586952  1
  Se  Se147  1  0.91844188  0.58091032  0.04785548  1
  Se  Se148  1  0.92160594  0.59185972  0.56710023  1
  Se  Se149  1  0.91701389  0.91680710  0.05822297  1
  Se  Se150  1  0.91200326  0.91982486  0.54845792  1
  Se  Se151  1  0.08429742  0.25227982  0.44573376  1
  Se  Se152  1  0.08155212  0.24526065  0.95177867  1
  Se  Se153  1  0.08548001  0.58689912  0.45131734  1
  Se  Se154  1  0.07941179  0.57964447  0.93761592  1
  Se  Se155  1  0.07459779  0.92613111  0.43873509  1
  Se  Se156  1  0.07846149  0.91933413  0.94189681  1
  Se  Se157  1  0.41097362  0.25076188  0.43686554  1
  Se  Se158  1  0.41720549  0.25261241  0.94811286  1
  Se  Se159  1  0.42313271  0.57249943  0.43829478  1
  Se  Se160  1  0.41133394  0.59207650  0.95938533  1
  Se  Se161  1  0.41423035  0.91952638  0.44527230  1
  Se  Se162  1  0.41836314  0.92104284  0.94774446  1
  Se  Se163  1  0.75271347  0.24671442  0.45507590  1
  Se  Se164  1  0.73172605  0.25585248  0.92858276  1
  Se  Se165  1  0.74285845  0.58882126  0.44217658  1
  Se  Se166  1  0.75073736  0.58419518  0.94504334  1
  Se  Se167  1  0.74719621  0.92015851  0.44885995  1
  Se  Se168  1  0.74011851  0.92960590  0.93621421  1
  Se  Se169  1  0.24988028  0.08921471  0.44591791  1
  Se  Se170  1  0.24579513  0.08369947  0.95201594  1
  Se  Se171  1  0.24900892  0.41902966  0.44074480  1
  Se  Se172  1  0.25609425  0.40710777  0.93789533  1
  Se  Se173  1  0.26327298  0.74363920  0.43765593  1
  Se  Se174  1  0.25962136  0.74271952  0.94183249  1
  Se  Se175  1  0.59046564  0.07191154  0.44368497  1
  Se  Se176  1  0.58093499  0.09412166  0.93491421  1
  Se  Se177  1  0.58287703  0.40735013  0.44948250  1
  Se  Se178  1  0.57800775  0.42761213  0.94595696  1
  Se  Se179  1  0.58433070  0.74104959  0.43619105  1
  Se  Se180  1  0.58487508  0.75762990  0.95148237  1
  Se  Se181  1  0.91378229  0.08992893  0.44401561  1
  Se  Se182  1  0.92009831  0.07696479  0.94510937  1
  Se  Se183  1  0.92162159  0.41782120  0.44224028  1
  Se  Se184  1  0.91217354  0.40840912  0.94305324  1
  Se  Se185  1  0.91239722  0.75340745  0.45335246  1
  Se  Se186  1  0.92721798  0.73794799  0.93881959  1
  Se  Se187  1  0.25157343  0.25255025  0.30355063  1
  Se  Se188  1  0.24358735  0.24175491  0.81475341  1
  Se  Se189  1  0.25360582  0.58208347  0.30029779  1
  Se  Se190  1  0.24353972  0.56956938  0.80925444  1
  Se  Se191  1  0.25480471  0.92277501  0.30290706  1
  Se  Se192  1  0.24998196  0.91470690  0.80021196  1
  Se  Se193  1  0.57513295  0.23517457  0.30667385  1
  Se  Se194  1  0.58305545  0.26782422  0.79823772  1
  Se  Se195  1  0.58699976  0.57942494  0.29954668  1
  Se  Se196  1  0.58161486  0.59299190  0.80910677  1
  Se  Se197  1  0.57850609  0.90734158  0.31204937  1
  Se  Se198  1  0.58543351  0.92089059  0.80456506  1
  Se  Se199  1  0.92115573  0.25486615  0.30547002  1
  Se  Se200  1  0.90967248  0.23681977  0.80022436  1
  Se  Se201  1  0.91306715  0.58048175  0.31293414  1
  Se  Se202  1  0.92032522  0.58452882  0.80096119  1
  Se  Se203  1  0.91725902  0.91867133  0.30227277  1
  Se  Se204  1  0.90647721  0.91349327  0.81285645  1
  Se  Se205  1  0.08290550  0.08491838  0.30469481  1
  Se  Se206  1  0.08824804  0.08517332  0.81122581  1
  Se  Se207  1  0.08346109  0.41601437  0.30284733  1
  Se  Se208  1  0.07656778  0.40909176  0.80161939  1
  Se  Se209  1  0.09202928  0.75886767  0.31347483  1
  Se  Se210  1  0.08321329  0.74209566  0.79760725  1
  Se  Se211  1  0.41699328  0.07976462  0.29671960  1
  Se  Se212  1  0.40461059  0.07850219  0.80498332  1
  Se  Se213  1  0.42008666  0.41201285  0.29795455  1
  Se  Se214  1  0.42078577  0.42615567  0.81086416  1
  Se  Se215  1  0.41459998  0.74597338  0.29757783  1
  Se  Se216  1  0.42691506  0.75669013  0.81587455  1
  Se  Se217  1  0.75474939  0.08759606  0.31192590  1
  Se  Se218  1  0.76279149  0.09852941  0.78877406  1
  Se  Se219  1  0.75637631  0.42189468  0.31700009  1
  Se  Se220  1  0.75109769  0.42433713  0.80406011  1
  Se  Se221  1  0.74927469  0.74770807  0.30159096  1
  Se  Se222  1  0.74839408  0.74812565  0.80367326  1
  Se  Se223  1  0.24994872  0.08875825  0.19686691  1
  Se  Se224  1  0.24984503  0.08314606  0.69691865  1
  Se  Se225  1  0.25686918  0.41349031  0.19671573  1
  Se  Se226  1  0.24813953  0.41794878  0.68888009  1
  Se  Se227  1  0.24925327  0.75035175  0.20037618  1
  Se  Se228  1  0.24574119  0.75195446  0.68655372  1
  Se  Se229  1  0.58000421  0.08982995  0.18779269  1
  Se  Se230  1  0.57963814  0.08471116  0.70823817  1
  Se  Se231  1  0.58287577  0.41777106  0.18503127  1
  Se  Se232  1  0.58076514  0.42383773  0.69754038  1
  Se  Se233  1  0.58675999  0.74611894  0.19506347  1
  Se  Se234  1  0.58185553  0.75277785  0.69543386  1
  Se  Se235  1  0.92283091  0.07793839  0.19909765  1
  Se  Se236  1  0.91615522  0.08342348  0.67928387  1
  Se  Se237  1  0.91380424  0.41469612  0.20097181  1
  Se  Se238  1  0.91856708  0.41479939  0.69966391  1
  Se  Se239  1  0.91094971  0.75405200  0.18839563  1
  Se  Se240  1  0.91640867  0.75133684  0.69916409  1
  Se  Se241  1  0.08011467  0.25543764  0.19995716  1
  Se  Se242  1  0.08370512  0.25157954  0.69542000  1
  Se  Se243  1  0.08885034  0.57273431  0.18796349  1
  Se  Se244  1  0.08268300  0.58031296  0.69671415  1
  Se  Se245  1  0.08115547  0.91937008  0.19864750  1
  Se  Se246  1  0.08905328  0.90945199  0.68662686  1
  Se  Se247  1  0.41709504  0.25606566  0.19416225  1
  Se  Se248  1  0.42715864  0.23971936  0.69472113  1
  Se  Se249  1  0.41861445  0.58422866  0.19349994  1
  Se  Se250  1  0.41683428  0.58001887  0.69136104  1
  Se  Se251  1  0.41983996  0.91965510  0.19919038  1
  Se  Se252  1  0.41276658  0.91752492  0.70088666  1
  Se  Se253  1  0.75972592  0.24104052  0.19669320  1
  Se  Se254  1  0.72778025  0.27191823  0.70218698  1
  Se  Se255  1  0.74880562  0.58306454  0.19810030  1
  Se  Se256  1  0.74612854  0.58826254  0.69894792  1
  Se  Se257  1  0.75380531  0.90840134  0.18592582  1
  Se  Se258  1  0.75099943  0.92024666  0.69505732  1
