# generated using pymatgen
data_In86Cu29Se144
_symmetry_space_group_name_H-M   'P 1'
_cell_length_a   17.57901349
_cell_length_b   17.58103252
_cell_length_c   23.44366719
_cell_angle_alpha   90.00042147
_cell_angle_beta   89.99326642
_cell_angle_gamma   89.99743875
_symmetry_Int_Tables_number   1
_chemical_formula_structural   In86Cu29Se144
_chemical_formula_sum   'In86 Cu29 Se144'
_cell_volume   7245.43426582
_cell_formula_units_Z   1
loop_
 _symmetry_equiv_pos_site_id
 _symmetry_equiv_pos_as_xyz
  1  'x, y, z'
loop_
 _atom_site_type_symbol
 _atom_site_label
 _atom_site_symmetry_multiplicity
 _atom_site_fract_x
 _atom_site_fract_y
 _atom_site_fract_z
 _atom_site_occupancy
  In  In0  1  0.00463391  0.17537679  0.11507174  1
  In  In1  1  -0.00920746  0.17805363  0.62340595  1
  In  In2  1  -0.00920294  0.51175922  0.13597712  1
  In  In3  1  0.01372913  0.50005623  0.61770219  1
  In  In4  1  -0.02027513  0.83208469  0.13083688  1
  In  In5  1  -0.02545301  0.82364452  0.60944727  1
  In  In6  1  0.34214786  0.17103978  0.12249938  1
  In  In7  1  0.33405395  0.15085593  0.62510007  1
  In  In8  1  0.34596166  0.50249568  0.12850039  1
  In  In9  1  0.34065693  0.51722159  0.60582183  1
  In  In10  1  0.32752457  0.82391311  0.13373609  1
  In  In11  1  0.33318583  0.81807019  0.60166811  1
  In  In12  1  0.66461096  0.16455299  0.12074160  1
  In  In13  1  0.66367841  0.16399893  0.62740299  1
  In  In14  1  0.66391561  0.50095434  0.11840012  1
  In  In15  1  0.66298903  0.50476432  0.63233817  1
  In  In16  1  0.70043441  0.81225705  0.15232503  1
  In  In17  1  0.66768807  0.83350658  0.62153628  1
  In  In18  1  0.15055495  -0.01619030  0.37846713  1
  In  In19  1  0.17083764  0.00803445  0.87827149  1
  In  In20  1  0.17095224  0.34421836  0.37002847  1
  In  In21  1  0.14336044  0.33668030  0.88104196  1
  In  In22  1  0.16762669  0.66521032  0.38147043  1
  In  In23  1  0.16163532  0.68009237  0.87471350  1
  In  In24  1  0.50857681  -0.00919850  0.38336576  1
  In  In25  1  0.51357124  -0.00538671  0.87286923  1
  In  In26  1  0.49671248  0.33922564  0.38323500  1
  In  In27  1  0.51354454  0.32231404  0.88322776  1
  In  In28  1  0.50767553  0.66639472  0.36996621  1
  In  In29  1  0.51174140  0.65073673  0.88415980  1
  In  In30  1  0.83781514  0.00638791  0.38056863  1
  In  In31  1  0.82728252  0.01060359  0.88053608  1
  In  In32  1  0.83180105  0.31594348  0.37029692  1
  In  In33  1  0.82372083  0.34779383  0.88891246  1
  In  In34  1  0.84676092  0.68429066  0.35317973  1
  In  In35  1  0.83112825  0.66732470  0.87218307  1
  In  In36  1  -0.01128173  0.15300981  0.36703315  1
  In  In37  1  -0.01482334  0.19320963  0.90275327  1
  In  In38  1  0.00630142  0.50766238  0.36532342  1
  In  In39  1  -0.04167760  0.50838612  0.88748620  1
  In  In40  1  0.00485388  0.83055471  0.38794518  1
  In  In41  1  -0.00746954  0.81542050  0.87125069  1
  In  In42  1  0.33745638  0.17896720  0.37498976  1
  In  In43  1  0.32881690  0.17595887  0.88501656  1
  In  In44  1  0.33476938  0.51031256  0.38386595  1
  In  In45  1  0.34366647  0.51316346  0.87472622  1
  In  In46  1  0.34978109  0.80747295  0.39745806  1
  In  In47  1  0.32968098  0.83701847  0.87065227  1
  In  In48  1  0.67608226  0.15700609  0.37943321  1
  In  In49  1  0.66505050  0.16298682  0.87499520  1
  In  In50  1  0.65154799  0.51126065  0.37639473  1
  In  In51  1  0.67326411  0.49571259  0.87327485  1
  In  In52  1  0.67096420  0.83534723  0.36887175  1
  In  In53  1  0.66879903  0.84097132  0.86723844  1
  In  In54  1  0.15760431  0.00337346  0.12990239  1
  In  In55  1  0.17652026  -0.00475972  0.62366004  1
  In  In56  1  0.15830918  0.31715830  0.12731476  1
  In  In57  1  0.15409043  0.34040989  0.62232703  1
  In  In58  1  0.16426651  0.67085000  0.13817204  1
  In  In59  1  0.15766751  0.65871399  0.61454794  1
  In  In60  1  0.51203884  0.01195783  0.12755547  1
  In  In61  1  0.50680909  0.00558310  0.61544002  1
  In  In62  1  0.50284052  0.33646020  0.11777437  1
  In  In63  1  0.50851596  0.34299095  0.62078710  1
  In  In64  1  0.51973558  0.64521178  0.14969446  1
  In  In65  1  0.51320114  0.67206812  0.60887207  1
  In  In66  1  0.81962007  -0.01200389  0.11792608  1
  In  In67  1  0.82093937  -0.01792136  0.60980363  1
  In  In68  1  0.84465227  0.34415446  0.11333466  1
  In  In69  1  0.83234710  0.32040582  0.62505292  1
  In  In70  1  0.83097634  0.66480948  0.12500922  1
  In  In71  1  0.82133416  0.67255972  0.62946850  1
  In  In72  1  0.16618408  0.49385123  0.00227862  1
  In  In73  1  0.16188240  0.84010051  0.00568279  1
  In  In74  1  0.33462440  0.33966716  0.74202070  1
  In  In75  1  0.16917857  0.16888316  0.49666268  1
  In  In76  1  -0.00462271  -0.00468716  0.25267606  1
  In  In77  1  -0.00177198  0.00301821  0.74827553  1
  In  In78  1  0.33124502  0.34255469  0.25565636  1
  In  In79  1  0.50921312  0.83234621  0.00224428  1
  In  In80  1  0.34504570  0.67039611  0.74299116  1
  In  In81  1  0.34594680  -0.00735940  0.74472496  1
  In  In82  1  0.33026218  -0.00145688  0.25427950  1
  In  In83  1  0.82795517  0.49930822  0.49379554  1
  In  In84  1  0.67022874  0.33672546  0.24440508  1
  In  In85  1  -0.01261250  0.34316786  0.75933767  1
  Cu  Cu86  1  0.15442226  0.82671017  0.74254260  1
  Cu  Cu87  1  0.16304928  0.50978270  0.74296673  1
  Cu  Cu88  1  0.66470076  0.00003234  -0.00230366  1
  Cu  Cu89  1  0.49778470  0.83799465  0.26124232  1
  Cu  Cu90  1  0.82725669  0.49703201  0.24372415  1
  Cu  Cu91  1  0.67191271  0.67398638  0.49446674  1
  Cu  Cu92  1  0.66432006  0.00021368  0.49723359  1
  Cu  Cu93  1  0.50811315  0.82527023  0.74143059  1
  Cu  Cu94  1  0.83316413  0.50408681  0.75311186  1
  Cu  Cu95  1  0.50639217  0.16262174  0.75102078  1
  Cu  Cu96  1  0.82380350  0.16324561  0.75084249  1
  Cu  Cu97  1  0.16778413  0.82568662  0.26376393  1
  Cu  Cu98  1  -0.00481172  0.66325609  0.49302711  1
  Cu  Cu99  1  0.51231383  0.49652564  0.75120255  1
  Cu  Cu100  1  0.00008328  0.33339488  0.49598954  1
  Cu  Cu101  1  0.16329586  0.50084239  0.25305342  1
  Cu  Cu102  1  0.83865654  0.16271353  0.24480758  1
  Cu  Cu103  1  0.66525572  0.32855103  0.49763835  1
  Cu  Cu104  1  0.66243680  0.33084393  -0.00130669  1
  Cu  Cu105  1  0.50907390  0.16867571  0.25338983  1
  Cu  Cu106  1  -0.00181271  -0.00068367  0.00570635  1
  Cu  Cu107  1  0.33497127  -0.00131486  0.49779690  1
  Cu  Cu108  1  0.15779196  0.17059188  0.76225529  1
  Cu  Cu109  1  0.33524108  0.33926038  0.00423735  1
  Cu  Cu110  1  0.33955611  0.33465233  0.50059120  1
  Cu  Cu111  1  0.83011931  0.83119632  0.74495849  1
  Cu  Cu112  1  0.34105597  0.66386169  0.00612775  1
  Cu  Cu113  1  -0.00888434  0.66401214  0.00164060  1
  Cu  Cu114  1  0.33652174  0.00924991  0.00310368  1
  Se  Se115  1  0.08704881  0.08029146  0.05323577  1
  Se  Se116  1  0.08385211  0.08714334  0.56517974  1
  Se  Se117  1  0.07632413  0.41705488  0.06846613  1
  Se  Se118  1  0.08684538  0.41772936  0.54341998  1
  Se  Se119  1  0.07603699  0.74258737  0.06053646  1
  Se  Se120  1  0.07494104  0.74818560  0.55041073  1
  Se  Se121  1  0.42496274  0.08571749  0.05656328  1
  Se  Se122  1  0.41684012  0.08544316  0.54911594  1
  Se  Se123  1  0.41981351  0.42408391  0.05303097  1
  Se  Se124  1  0.42370488  0.42020989  0.55061399  1
  Se  Se125  1  0.41737744  0.74810889  0.06388971  1
  Se  Se126  1  0.40565347  0.71953092  0.54268526  1
  Se  Se127  1  0.74868810  0.08345563  0.05157191  1
  Se  Se128  1  0.74454547  0.08426193  0.55411930  1
  Se  Se129  1  0.74571092  0.41575933  0.05114912  1
  Se  Se130  1  0.74468772  0.40995901  0.55901023  1
  Se  Se131  1  0.75259553  0.75695243  0.05993979  1
  Se  Se132  1  0.75454550  0.75358497  0.55152443  1
  Se  Se133  1  0.25530143  0.25456431  0.05811133  1
  Se  Se134  1  0.25814474  0.25788467  0.56376062  1
  Se  Se135  1  0.24891123  0.59160297  0.06183634  1
  Se  Se136  1  0.23903066  0.58050731  0.54446779  1
  Se  Se137  1  0.26049762  0.92683716  0.06325518  1
  Se  Se138  1  0.24831568  0.91621246  0.54799392  1
  Se  Se139  1  0.57999560  0.24657574  0.05259965  1
  Se  Se140  1  0.58321849  0.24816465  0.55643707  1
  Se  Se141  1  0.57658051  0.58962146  0.05835048  1
  Se  Se142  1  0.59971947  0.58103903  0.54943537  1
  Se  Se143  1  0.59546020  0.91980253  0.06471333  1
  Se  Se144  1  0.58313472  0.91303057  0.55090060  1
  Se  Se145  1  0.90571816  0.24008877  0.05053556  1
  Se  Se146  1  0.91413055  0.25308397  0.54772632  1
  Se  Se147  1  0.91282839  0.57730751  0.05539654  1
  Se  Se148  1  0.91576509  0.58596043  0.55814811  1
  Se  Se149  1  0.91405563  0.91105704  0.05193571  1
  Se  Se150  1  0.92718476  0.93166181  0.54392904  1
  Se  Se151  1  0.07932974  0.25355172  0.43342231  1
  Se  Se152  1  0.10295095  0.24146915  0.95730076  1
  Se  Se153  1  0.07974654  0.57721382  0.44557612  1
  Se  Se154  1  0.07744978  0.58876587  0.94078171  1
  Se  Se155  1  0.06352635  0.93215955  0.45622050  1
  Se  Se156  1  0.07375605  0.92062999  0.93732974  1
  Se  Se157  1  0.42069690  0.24698578  0.44997606  1
  Se  Se158  1  0.41812841  0.25303155  0.95069102  1
  Se  Se159  1  0.42520150  0.59146798  0.44522526  1
  Se  Se160  1  0.42204543  0.57849833  0.95391192  1
  Se  Se161  1  0.42285666  0.91289939  0.45228645  1
  Se  Se162  1  0.40958587  0.92327398  0.94141414  1
  Se  Se163  1  0.75241948  0.24740070  0.44768723  1
  Se  Se164  1  0.74606005  0.24720063  0.94534196  1
  Se  Se165  1  0.75210498  0.59667217  0.43186484  1
  Se  Se166  1  0.78086898  0.55597665  0.93586377  1
  Se  Se167  1  0.74791555  0.92009592  0.44164560  1
  Se  Se168  1  0.74704980  0.91694168  0.94249881  1
  Se  Se169  1  0.25586668  0.07582607  0.43465010  1
  Se  Se170  1  0.24810081  0.08725336  0.95056319  1
  Se  Se171  1  0.25468804  0.41272669  0.44430927  1
  Se  Se172  1  0.25907146  0.41281274  0.93504133  1
  Se  Se173  1  0.22614227  0.76935020  0.44719636  1
  Se  Se174  1  0.26010550  0.74668618  0.94761769  1
  Se  Se175  1  0.58118600  0.08786610  0.44738288  1
  Se  Se176  1  0.57936154  0.08265921  0.94587832  1
  Se  Se177  1  0.58635652  0.41903192  0.44823515  1
  Se  Se178  1  0.58499982  0.42168150  0.94534345  1
  Se  Se179  1  0.58714391  0.75405618  0.43982054  1
  Se  Se180  1  0.59976153  0.74375984  0.94206963  1
  Se  Se181  1  0.91809597  0.09088194  0.44918121  1
  Se  Se182  1  0.91443450  0.08266220  0.95231751  1
  Se  Se183  1  0.91981780  0.41162203  0.43330809  1
  Se  Se184  1  0.95080440  0.38187307  0.94049331  1
  Se  Se185  1  0.90686936  0.74517631  0.44383731  1
  Se  Se186  1  0.91036115  0.74931772  0.94734829  1
  Se  Se187  1  0.24055892  0.24107717  0.30324023  1
  Se  Se188  1  0.24396590  0.25711742  0.81048400  1
  Se  Se189  1  0.24632586  0.57911526  0.31059368  1
  Se  Se190  1  0.24595778  0.58583536  0.80566463  1
  Se  Se191  1  0.25187546  0.90600946  0.31904315  1
  Se  Se192  1  0.23498214  0.91093399  0.80059687  1
  Se  Se193  1  0.58412669  0.25243976  0.31370886  1
  Se  Se194  1  0.58559653  0.24946813  0.80394334  1
  Se  Se195  1  0.58379427  0.58394376  0.29699589  1
  Se  Se196  1  0.59010157  0.58357041  0.80534610  1
  Se  Se197  1  0.58549102  0.92530590  0.30390894  1
  Se  Se198  1  0.58268705  0.91689520  0.79515456  1
  Se  Se199  1  0.92024909  0.24716444  0.29798262  1
  Se  Se200  1  0.90456442  0.24177590  0.81314487  1
  Se  Se201  1  0.91449579  0.57790847  0.29624420  1
  Se  Se202  1  0.92049871  0.58869094  0.80073502  1
  Se  Se203  1  0.91086082  0.90511776  0.31373461  1
  Se  Se204  1  0.90903708  0.91126445  0.80861737  1
  Se  Se205  1  0.09619805  0.08407451  0.30501815  1
  Se  Se206  1  0.07413642  0.09314815  0.81942149  1
  Se  Se207  1  0.07972268  0.41175698  0.29938239  1
  Se  Se208  1  0.08476248  0.43583571  0.80897259  1
  Se  Se209  1  0.07817203  0.74722520  0.31415352  1
  Se  Se210  1  0.07666166  0.74222219  0.79792131  1
  Se  Se211  1  0.42558592  0.08959402  0.31106230  1
  Se  Se212  1  0.41683094  0.09052636  0.81201264  1
  Se  Se213  1  0.42562182  0.42981275  0.31034367  1
  Se  Se214  1  0.42537386  0.42010950  0.80943612  1
  Se  Se215  1  0.41285619  0.75104726  0.30772556  1
  Se  Se216  1  0.43090842  0.75541117  0.81242536  1
  Se  Se217  1  0.75867623  0.08511128  0.30504464  1
  Se  Se218  1  0.74403929  0.07711858  0.80379915  1
  Se  Se219  1  0.75376253  0.42310931  0.31377433  1
  Se  Se220  1  0.75621282  0.41109964  0.80283510  1
  Se  Se221  1  0.73461291  0.74126324  0.29711802  1
  Se  Se222  1  0.74863678  0.74976600  0.80262187  1
  Se  Se223  1  0.24822970  0.09143413  0.19133054  1
  Se  Se224  1  0.23844376  0.08978118  0.70227928  1
  Se  Se225  1  0.24054267  0.42392373  0.18766556  1
  Se  Se226  1  0.24505610  0.43320876  0.68257517  1
  Se  Se227  1  0.25221084  0.74552435  0.20781958  1
  Se  Se228  1  0.24687507  0.75428460  0.68498689  1
  Se  Se229  1  0.59346202  0.08763709  0.20078315  1
  Se  Se230  1  0.58188315  0.07539477  0.69519839  1
  Se  Se231  1  0.57128143  0.42403078  0.19311726  1
  Se  Se232  1  0.59083051  0.40837617  0.69884756  1
  Se  Se233  1  0.57892033  0.76019718  0.20216045  1
  Se  Se234  1  0.58885429  0.74132656  0.68863458  1
  Se  Se235  1  0.91531734  0.08076437  0.18306585  1
  Se  Se236  1  0.90513878  0.08859788  0.68731505  1
  Se  Se237  1  0.91429663  0.41152203  0.19667145  1
  Se  Se238  1  0.90940900  0.42805884  0.68457977  1
  Se  Se239  1  0.91745242  0.73806574  0.19848546  1
  Se  Se240  1  0.91644842  0.74982529  0.69414497  1
  Se  Se241  1  0.07784839  0.24000479  0.19769819  1
  Se  Se242  1  0.08319316  0.25073136  0.69850014  1
  Se  Se243  1  0.07959080  0.58804760  0.20368166  1
  Se  Se244  1  0.07608035  0.59004128  0.69219395  1
  Se  Se245  1  0.09158160  0.90088651  0.19631872  1
  Se  Se246  1  0.08008001  0.91122461  0.68306561  1
  Se  Se247  1  0.42683140  0.25054535  0.19714972  1
  Se  Se248  1  0.42253588  0.23932062  0.68934329  1
  Se  Se249  1  0.39696809  0.60013430  0.19940965  1
  Se  Se250  1  0.43242005  0.57479421  0.68727668  1
  Se  Se251  1  0.42375033  0.91439616  0.19143566  1
  Se  Se252  1  0.42160064  0.89815015  0.67880513  1
  Se  Se253  1  0.76029051  0.24692335  0.18626975  1
  Se  Se254  1  0.74579681  0.25024919  0.69649201  1
  Se  Se255  1  0.74457978  0.57902260  0.19115999  1
  Se  Se256  1  0.74805879  0.58546306  0.69985023  1
  Se  Se257  1  0.75659753  0.92703633  0.20557525  1
  Se  Se258  1  0.74929493  0.91700379  0.69262994  1
