# generated using pymatgen
data_In86Cu29Se144
_symmetry_space_group_name_H-M   'P 1'
_cell_length_a   17.57572739
_cell_length_b   17.57723148
_cell_length_c   23.44028746
_cell_angle_alpha   90.01289356
_cell_angle_beta   89.98157267
_cell_angle_gamma   89.99184051
_symmetry_Int_Tables_number   1
_chemical_formula_structural   In86Cu29Se144
_chemical_formula_sum   'In86 Cu29 Se144'
_cell_volume   7241.46899043
_cell_formula_units_Z   1
loop_
 _symmetry_equiv_pos_site_id
 _symmetry_equiv_pos_as_xyz
  1  'x, y, z'
loop_
 _atom_site_type_symbol
 _atom_site_label
 _atom_site_symmetry_multiplicity
 _atom_site_fract_x
 _atom_site_fract_y
 _atom_site_fract_z
 _atom_site_occupancy
  In  In0  1  -0.01463327  0.17144384  0.12839590  1
  In  In1  1  0.01230842  0.18254490  0.60883835  1
  In  In2  1  0.00882650  0.50731964  0.11573114  1
  In  In3  1  -0.01807979  0.50003162  0.62092691  1
  In  In4  1  0.00807869  0.82474114  0.13052556  1
  In  In5  1  0.00654395  0.82745795  0.62636244  1
  In  In6  1  0.33360415  0.14911091  0.12872423  1
  In  In7  1  0.32942124  0.15237514  0.61799479  1
  In  In8  1  0.34189579  0.51286499  0.11757610  1
  In  In9  1  0.34087982  0.50861577  0.63248720  1
  In  In10  1  0.33400954  0.83417039  0.11933945  1
  In  In11  1  0.33897994  0.82956986  0.63711362  1
  In  In12  1  0.66878455  0.16443927  0.12300297  1
  In  In13  1  0.67268004  0.18084347  0.60340560  1
  In  In14  1  0.66076487  0.49117781  0.12000971  1
  In  In15  1  0.67825585  0.49817459  0.62550733  1
  In  In16  1  0.66048129  0.85343112  0.12223945  1
  In  In17  1  0.65295587  0.84091478  0.62796015  1
  In  In18  1  0.17045549  0.00130413  0.37013180  1
  In  In19  1  0.16876106  -0.01508731  0.87648815  1
  In  In20  1  0.14659446  0.32798313  0.38028979  1
  In  In21  1  0.17063280  0.34420039  0.87143800  1
  In  In22  1  0.17102280  0.66570478  0.36640182  1
  In  In23  1  0.17146142  0.66570852  0.87602385  1
  In  In24  1  0.49760476  -0.00155927  0.36755361  1
  In  In25  1  0.49230981  0.01162690  0.88517157  1
  In  In26  1  0.50372320  0.31490529  0.37553744  1
  In  In27  1  0.50651452  0.32779234  0.88401214  1
  In  In28  1  0.49939014  0.68246227  0.37480845  1
  In  In29  1  0.49983315  0.67008548  0.87954460  1
  In  In30  1  0.84136027  0.00994021  0.36587305  1
  In  In31  1  0.84041812  0.00162473  0.88060527  1
  In  In32  1  0.82527670  0.33966174  0.38626479  1
  In  In33  1  0.83931177  0.32732323  0.87804782  1
  In  In34  1  0.83712611  0.65411741  0.37796997  1
  In  In35  1  0.81358770  0.66815725  0.87314825  1
  In  In36  1  0.00551188  0.16504973  0.38764274  1
  In  In37  1  -0.01233522  0.16309891  0.87520047  1
  In  In38  1  -0.00913787  0.49902596  0.37513315  1
  In  In39  1  0.00918874  0.49346402  0.87925919  1
  In  In40  1  -0.00167941  0.83127006  0.36610433  1
  In  In41  1  0.00369478  0.84346791  0.87891430  1
  In  In42  1  0.34203367  0.15081439  0.38019148  1
  In  In43  1  0.34428264  0.16830093  0.87092131  1
  In  In44  1  0.32686327  0.50947280  0.36882315  1
  In  In45  1  0.32559761  0.51007564  0.88180687  1
  In  In46  1  0.33883883  0.84058586  0.36600990  1
  In  In47  1  0.33033164  0.83661392  0.87404759  1
  In  In48  1  0.66803076  0.16759535  0.37021036  1
  In  In49  1  0.66787042  0.16057899  0.88638411  1
  In  In50  1  0.68337905  0.49875997  0.37241317  1
  In  In51  1  0.65665697  0.50801474  0.88458392  1
  In  In52  1  0.64756590  0.83329598  0.37368873  1
  In  In53  1  0.67115693  0.81989422  0.87782727  1
  In  In54  1  0.17812991  -0.01212648  0.13317166  1
  In  In55  1  0.16841455  0.01580297  0.63468711  1
  In  In56  1  0.15640970  0.33926349  0.12338765  1
  In  In57  1  0.16359704  0.30895412  0.63019941  1
  In  In58  1  0.16837043  0.67109326  0.11957932  1
  In  In59  1  0.17410909  0.67697054  0.63050909  1
  In  In60  1  0.50143736  -0.00154198  0.11862784  1
  In  In61  1  0.49696573  -0.00509942  0.61843657  1
  In  In62  1  0.50949878  0.34352718  0.12171391  1
  In  In63  1  0.51258167  0.32832431  0.62057803  1
  In  In64  1  0.49093602  0.66346204  0.11897360  1
  In  In65  1  0.48940348  0.67839557  0.63586722  1
  In  In66  1  0.82180896  0.01237355  0.13498520  1
  In  In67  1  0.82066117  0.00590696  0.62347570  1
  In  In68  1  0.82407229  0.32193140  0.11812858  1
  In  In69  1  0.84460248  0.34614137  0.60842503  1
  In  In70  1  0.84891719  0.66722130  0.12417593  1
  In  In71  1  0.83872825  0.64961986  0.62563213  1
  In  In72  1  0.16243278  0.49499414  0.49762514  1
  In  In73  1  -0.00188662  0.66555637  0.75075504  1
  In  In74  1  -0.00000343  -0.00075181  0.75251423  1
  In  In75  1  0.16928277  0.83418603  0.50852721  1
  In  In76  1  0.83170222  0.83675727  0.00243851  1
  In  In77  1  0.16593772  0.16831847  0.00555764  1
  In  In78  1  -0.00597350  0.33456927  0.25599318  1
  In  In79  1  0.33477039  0.33322178  0.75394798  1
  In  In80  1  0.66746972  0.33492896  0.74505498  1
  In  In81  1  0.67162782  0.66869289  0.25159503  1
  In  In82  1  0.82778195  0.83342124  0.49843117  1
  In  In83  1  0.33457894  0.33049590  0.25531014  1
  In  In84  1  0.66094610  0.00108489  0.74848508  1
  In  In85  1  0.50537525  0.49560081  0.50195138  1
  Cu  Cu86  1  0.50454725  0.50012009  0.24328010  1
  Cu  Cu87  1  0.16299099  0.49837885  0.75412826  1
  Cu  Cu88  1  0.49894586  0.51372233  0.75883331  1
  Cu  Cu89  1  0.00211594  0.66554859  -0.00108171  1
  Cu  Cu90  1  0.33855490  0.67614615  0.50475438  1
  Cu  Cu91  1  0.33712081  0.33428265  -0.00221180  1
  Cu  Cu92  1  0.16350794  0.15865590  0.25753061  1
  Cu  Cu93  1  0.33019030  0.32504485  0.50001076  1
  Cu  Cu94  1  -0.00171159  0.33828033  -0.00010296  1
  Cu  Cu95  1  0.66455509  0.66685152  0.49886511  1
  Cu  Cu96  1  0.65753497  0.00230197  0.49217344  1
  Cu  Cu97  1  0.49418975  0.83559540  0.24456214  1
  Cu  Cu98  1  0.00055263  0.00031787  0.50041274  1
  Cu  Cu99  1  0.16761094  0.83145441  0.24659285  1
  Cu  Cu100  1  0.33221964  0.67027663  -0.00261954  1
  Cu  Cu101  1  0.84046806  0.49728795  0.24954037  1
  Cu  Cu102  1  0.67103430  0.33357567  0.00175659  1
  Cu  Cu103  1  0.83894399  0.17050264  0.74816648  1
  Cu  Cu104  1  0.49878504  0.83451702  0.75567008  1
  Cu  Cu105  1  0.83199901  0.49511004  0.74864625  1
  Cu  Cu106  1  0.33274189  -0.00263975  0.00178967  1
  Cu  Cu107  1  -0.00100521  0.00093958  0.00450146  1
  Cu  Cu108  1  0.83458081  0.83553947  0.24605919  1
  Cu  Cu109  1  0.33656683  -0.00122978  0.49534505  1
  Cu  Cu110  1  0.17088864  0.51228126  0.24135186  1
  Cu  Cu111  1  0.50088485  0.16075151  0.74787751  1
  Cu  Cu112  1  0.50281419  0.16071751  0.24804098  1
  Cu  Cu113  1  0.66356820  0.66512138  0.00243448  1
  Cu  Cu114  1  0.82897354  0.16478386  0.24963988  1
  Se  Se115  1  0.07895664  0.07870850  0.06793784  1
  Se  Se116  1  0.08847838  0.07771244  0.55426550  1
  Se  Se117  1  0.08820393  0.41991336  0.04727140  1
  Se  Se118  1  0.08319759  0.41025681  0.56684484  1
  Se  Se119  1  0.08208672  0.75329188  0.05092741  1
  Se  Se120  1  0.07526032  0.73312543  0.55505586  1
  Se  Se121  1  0.41520350  0.08502034  0.05140464  1
  Se  Se122  1  0.42151950  0.08313290  0.54861921  1
  Se  Se123  1  0.41801372  0.41794794  0.05431075  1
  Se  Se124  1  0.40522369  0.40960699  0.56038614  1
  Se  Se125  1  0.41789239  0.75273985  0.04972566  1
  Se  Se126  1  0.41912538  0.75890196  0.55875220  1
  Se  Se127  1  0.75813496  0.08699880  0.05511475  1
  Se  Se128  1  0.74723529  0.07826363  0.54557679  1
  Se  Se129  1  0.75474683  0.41978638  0.05253119  1
  Se  Se130  1  0.73456103  0.40797807  0.55194942  1
  Se  Se131  1  0.74302724  0.74488309  0.06475241  1
  Se  Se132  1  0.74227446  0.74564178  0.56364195  1
  Se  Se133  1  0.25994185  0.25783319  0.06465742  1
  Se  Se134  1  0.24790840  0.24321644  0.55412086  1
  Se  Se135  1  0.24885262  0.58471874  0.05056077  1
  Se  Se136  1  0.25657969  0.58882577  0.55732807  1
  Se  Se137  1  0.24499787  0.91523788  0.05140474  1
  Se  Se138  1  0.25999159  0.92584665  0.56433170  1
  Se  Se139  1  0.58576104  0.25222882  0.05590835  1
  Se  Se140  1  0.57509190  0.25156297  0.54128401  1
  Se  Se141  1  0.58029001  0.58047636  0.05515576  1
  Se  Se142  1  0.58392314  0.59250002  0.56482802  1
  Se  Se143  1  0.57706619  0.91450247  0.04617977  1
  Se  Se144  1  0.58269635  0.91519352  0.54883392  1
  Se  Se145  1  0.91781203  0.24945083  0.05008798  1
  Se  Se146  1  0.89326245  0.22734216  0.55567177  1
  Se  Se147  1  0.91567739  0.58255352  0.04884155  1
  Se  Se148  1  0.91236028  0.58152545  0.54677646  1
  Se  Se149  1  0.91985714  0.92130735  0.06723230  1
  Se  Se150  1  0.92231632  0.92021728  0.56132441  1
  Se  Se151  1  0.07791244  0.25353101  0.45771497  1
  Se  Se152  1  0.07962848  0.25540191  0.93999431  1
  Se  Se153  1  0.08032890  0.59144413  0.43862290  1
  Se  Se154  1  0.08707744  0.58395288  0.94448357  1
  Se  Se155  1  0.07871687  0.91639563  0.44196546  1
  Se  Se156  1  0.08352969  0.91812521  0.95283243  1
  Se  Se157  1  0.41538367  0.24500158  0.44630213  1
  Se  Se158  1  0.41705178  0.24579057  0.94765169  1
  Se  Se159  1  0.41215981  0.58934965  0.44371687  1
  Se  Se160  1  0.41833420  0.58335632  0.94807305  1
  Se  Se161  1  0.41801423  0.91505763  0.44075622  1
  Se  Se162  1  0.41443469  0.91523077  0.94597157  1
  Se  Se163  1  0.75175743  0.23989965  0.44359302  1
  Se  Se164  1  0.75304162  0.24970884  0.94711689  1
  Se  Se165  1  0.74930212  0.58257506  0.44935680  1
  Se  Se166  1  0.75040499  0.58420231  0.95052159  1
  Se  Se167  1  0.74293871  0.92217935  0.43385348  1
  Se  Se168  1  0.74059811  0.92531860  0.94290334  1
  Se  Se169  1  0.24563878  0.07957293  0.44611207  1
  Se  Se170  1  0.25452148  0.08221789  0.94158294  1
  Se  Se171  1  0.25859520  0.40778673  0.43676639  1
  Se  Se172  1  0.24971190  0.41568369  0.94715181  1
  Se  Se173  1  0.25579934  0.74835475  0.44069161  1
  Se  Se174  1  0.24774571  0.75348710  0.94476605  1
  Se  Se175  1  0.57786469  0.08429029  0.43575807  1
  Se  Se176  1  0.57984698  0.08690042  0.95286080  1
  Se  Se177  1  0.59036656  0.41167517  0.43603027  1
  Se  Se178  1  0.58261256  0.41612567  0.95142852  1
  Se  Se179  1  0.57916990  0.75248757  0.45144888  1
  Se  Se180  1  0.58330167  0.75179775  0.95044068  1
  Se  Se181  1  0.91321583  0.07874399  0.44756468  1
  Se  Se182  1  0.91595239  0.08488103  0.95255270  1
  Se  Se183  1  0.93708150  0.39932130  0.44303908  1
  Se  Se184  1  0.91465911  0.41970178  0.94494695  1
  Se  Se185  1  0.92392290  0.74605938  0.44251125  1
  Se  Se186  1  0.91886626  0.74425631  0.93872618  1
  Se  Se187  1  0.24113594  0.24390272  0.31601316  1
  Se  Se188  1  0.24114590  0.24046780  0.80740282  1
  Se  Se189  1  0.25790321  0.59224858  0.29436395  1
  Se  Se190  1  0.24866074  0.58165011  0.80366223  1
  Se  Se191  1  0.24914167  0.91772903  0.30021040  1
  Se  Se192  1  0.25312248  0.92009153  0.80225511  1
  Se  Se193  1  0.58438144  0.24872633  0.29805283  1
  Se  Se194  1  0.58239677  0.24048443  0.80747245  1
  Se  Se195  1  0.57885753  0.57912327  0.31132941  1
  Se  Se196  1  0.58880290  0.59178706  0.80903182  1
  Se  Se197  1  0.58130575  0.91568983  0.29725517  1
  Se  Se198  1  0.57834741  0.91532833  0.81608979  1
  Se  Se199  1  0.90894543  0.24127163  0.31419684  1
  Se  Se200  1  0.92001314  0.25292149  0.80279989  1
  Se  Se201  1  0.91974197  0.58462746  0.30148730  1
  Se  Se202  1  0.90949743  0.57554765  0.81216641  1
  Se  Se203  1  0.91876256  0.91847245  0.30008006  1
  Se  Se204  1  0.90445906  0.90650361  0.80751356  1
  Se  Se205  1  0.07417973  0.08243227  0.31046898  1
  Se  Se206  1  0.08918463  0.08654472  0.81445458  1
  Se  Se207  1  0.09506478  0.42921914  0.30436646  1
  Se  Se208  1  0.07808527  0.41261891  0.80119861  1
  Se  Se209  1  0.08487691  0.74818945  0.30100566  1
  Se  Se210  1  0.08640794  0.75795802  0.80888706  1
  Se  Se211  1  0.41249924  0.08115404  0.29835419  1
  Se  Se212  1  0.41901086  0.07891573  0.80206145  1
  Se  Se213  1  0.42807011  0.42402385  0.31160052  1
  Se  Se214  1  0.42544644  0.42190927  0.81515463  1
  Se  Se215  1  0.41557590  0.74844368  0.29892952  1
  Se  Se216  1  0.41676572  0.74980995  0.80898466  1
  Se  Se217  1  0.74433837  0.07871090  0.29980081  1
  Se  Se218  1  0.75802110  0.09021798  0.80750113  1
  Se  Se219  1  0.75821389  0.41279002  0.30223323  1
  Se  Se220  1  0.74991955  0.42131152  0.81293841  1
  Se  Se221  1  0.75915769  0.75854737  0.31425283  1
  Se  Se222  1  0.74838362  0.75349447  0.79967407  1
  Se  Se223  1  0.24934391  0.08030701  0.20283302  1
  Se  Se224  1  0.26051237  0.08628141  0.70104218  1
  Se  Se225  1  0.24944166  0.42088817  0.18964478  1
  Se  Se226  1  0.24338137  0.42057018  0.69014337  1
  Se  Se227  1  0.25151011  0.75151589  0.18992279  1
  Se  Se228  1  0.25061724  0.75129225  0.70321677  1
  Se  Se229  1  0.58374951  0.07973475  0.19014371  1
  Se  Se230  1  0.58524627  0.09481586  0.68111317  1
  Se  Se231  1  0.59059105  0.41369454  0.19901703  1
  Se  Se232  1  0.57059287  0.43044338  0.69379460  1
  Se  Se233  1  0.58025489  0.75293394  0.18840418  1
  Se  Se234  1  0.58366679  0.75371445  0.70097405  1
  Se  Se235  1  0.91932927  0.08315766  0.20142409  1
  Se  Se236  1  0.91436336  0.08670104  0.68751572  1
  Se  Se237  1  0.91568499  0.41853378  0.18377227  1
  Se  Se238  1  0.91278489  0.41218825  0.69367269  1
  Se  Se239  1  0.91904714  0.74758041  0.19990051  1
  Se  Se240  1  0.90731538  0.75539594  0.69073878  1
  Se  Se241  1  0.08967838  0.24382128  0.19661851  1
  Se  Se242  1  0.07436454  0.23970196  0.69882011  1
  Se  Se243  1  0.08150449  0.58972412  0.18960559  1
  Se  Se244  1  0.08646268  0.57522397  0.68769159  1
  Se  Se245  1  0.08100842  0.91760137  0.19852937  1
  Se  Se246  1  0.09316015  0.90829780  0.69403402  1
  Se  Se247  1  0.42202011  0.24588947  0.18959673  1
  Se  Se248  1  0.42421797  0.24723835  0.68941798  1
  Se  Se249  1  0.41817770  0.58456541  0.19632607  1
  Se  Se250  1  0.41093966  0.59191475  0.70576130  1
  Se  Se251  1  0.41430225  0.91965813  0.18885813  1
  Se  Se252  1  0.42405121  0.92131026  0.69761617  1
  Se  Se253  1  0.74819363  0.24965395  0.19541184  1
  Se  Se254  1  0.75584676  0.24454458  0.68630599  1
  Se  Se255  1  0.75744637  0.57725473  0.18941516  1
  Se  Se256  1  0.74955219  0.58247449  0.69916347  1
  Se  Se257  1  0.74553468  0.91733008  0.19894753  1
  Se  Se258  1  0.75675210  0.90944412  0.69465012  1
