# generated using pymatgen
data_In86Cu29Se144
_symmetry_space_group_name_H-M   'P 1'
_cell_length_a   17.57253404
_cell_length_b   17.57371996
_cell_length_c   23.42601204
_cell_angle_alpha   89.98087259
_cell_angle_beta   89.99907365
_cell_angle_gamma   90.00170240
_symmetry_Int_Tables_number   1
_chemical_formula_structural   In86Cu29Se144
_chemical_formula_sum   'In86 Cu29 Se144'
_cell_volume   7234.29862837
_cell_formula_units_Z   1
loop_
 _symmetry_equiv_pos_site_id
 _symmetry_equiv_pos_as_xyz
  1  'x, y, z'
loop_
 _atom_site_type_symbol
 _atom_site_label
 _atom_site_symmetry_multiplicity
 _atom_site_fract_x
 _atom_site_fract_y
 _atom_site_fract_z
 _atom_site_occupancy
  In  In0  1  0.00985315  0.17893700  0.11660089  1
  In  In1  1  -0.01722311  0.17068278  0.62435786  1
  In  In2  1  -0.00269448  0.49816330  0.11949232  1
  In  In3  1  0.00312231  0.50410959  0.62545387  1
  In  In4  1  -0.00334189  0.81981785  0.12606732  1
  In  In5  1  -0.01920541  0.84330456  0.64847044  1
  In  In6  1  0.33813760  0.16933640  0.11626865  1
  In  In7  1  0.35233976  0.16368940  0.62578205  1
  In  In8  1  0.32755200  0.50651863  0.11825219  1
  In  In9  1  0.32037157  0.51036337  0.63430022  1
  In  In10  1  0.33337348  0.84429259  0.11864281  1
  In  In11  1  0.32893431  0.82434257  0.62523322  1
  In  In12  1  0.67088198  0.16405110  0.11794827  1
  In  In13  1  0.66620483  0.16451726  0.62719868  1
  In  In14  1  0.66303830  0.48020864  0.12272486  1
  In  In15  1  0.67213095  0.49875858  0.63956262  1
  In  In16  1  0.67770453  0.83878974  0.12527443  1
  In  In17  1  0.67391420  0.84564067  0.63432688  1
  In  In18  1  0.16888286  -0.00019671  0.37464166  1
  In  In19  1  0.15664294  0.00494794  0.87944776  1
  In  In20  1  0.17006011  0.34845928  0.37326539  1
  In  In21  1  0.17615449  0.32796514  0.88134448  1
  In  In22  1  0.14681259  0.66443050  0.37501075  1
  In  In23  1  0.16625847  0.66675730  0.87903938  1
  In  In24  1  0.50874940  -0.00730626  0.38398871  1
  In  In25  1  0.51816405  0.00612019  0.87605950  1
  In  In26  1  0.50232924  0.32237215  0.36965917  1
  In  In27  1  0.49610255  0.32761010  0.87242640  1
  In  In28  1  0.51477455  0.67595051  0.38179127  1
  In  In29  1  0.50110671  0.66530212  0.86433434  1
  In  In30  1  0.82017863  0.01553678  0.38694460  1
  In  In31  1  0.83772852  0.00176897  0.86851122  1
  In  In32  1  0.82027974  0.32321406  0.36336168  1
  In  In33  1  0.82199970  0.34278744  0.87817376  1
  In  In34  1  0.84428649  0.66302333  0.37901249  1
  In  In35  1  0.83163225  0.66007949  0.85966506  1
  In  In36  1  -0.01709353  0.16249598  0.37296875  1
  In  In37  1  0.00517571  0.16177582  0.88108237  1
  In  In38  1  0.00221955  0.50710416  0.37086486  1
  In  In39  1  -0.01148336  0.51061432  0.87776115  1
  In  In40  1  0.00044617  0.81837893  0.37554778  1
  In  In41  1  -0.00405322  0.84414442  0.86173840  1
  In  In42  1  0.34388312  0.16908510  0.38164201  1
  In  In43  1  0.32792585  0.17440940  0.87971420  1
  In  In44  1  0.32294967  0.48948567  0.38034755  1
  In  In45  1  0.33266312  0.49792436  0.87440994  1
  In  In46  1  0.34546559  0.84058332  0.38103442  1
  In  In47  1  0.32925460  0.81395495  0.87404200  1
  In  In48  1  0.66624688  0.16825033  0.37245001  1
  In  In49  1  0.66569996  0.16613731  0.87963404  1
  In  In50  1  0.67734608  0.49854892  0.37101239  1
  In  In51  1  0.68077608  0.50371625  0.86104139  1
  In  In52  1  0.65789856  0.84519040  0.39011093  1
  In  In53  1  0.68035615  0.83963343  0.85766634  1
  In  In54  1  0.17021171  0.00312144  0.11231820  1
  In  In55  1  0.16241799  -0.01312341  0.62869502  1
  In  In56  1  0.16039214  0.32889506  0.11613613  1
  In  In57  1  0.16066356  0.34994836  0.62664591  1
  In  In58  1  0.15248083  0.64538552  0.10280672  1
  In  In59  1  0.16776994  0.66530794  0.63197222  1
  In  In60  1  0.51154869  0.01239990  0.11973215  1
  In  In61  1  0.50909619  0.01813433  0.61383635  1
  In  In62  1  0.52185375  0.32265629  0.13667314  1
  In  In63  1  0.50806843  0.32298759  0.62931141  1
  In  In64  1  0.49769533  0.66121472  0.12222839  1
  In  In65  1  0.49325867  0.67349663  0.63167131  1
  In  In66  1  0.81024244  0.01054516  0.12652604  1
  In  In67  1  0.83085530  0.00127260  0.63199838  1
  In  In68  1  0.83629282  0.33315778  0.11858824  1
  In  In69  1  0.83095763  0.31939174  0.62492557  1
  In  In70  1  0.84748727  0.67177668  0.12224242  1
  In  In71  1  0.81320472  0.68604488  0.65434809  1
  In  In72  1  0.33900063  0.33322269  0.24600434  1
  In  In73  1  0.34045129  -0.00018724  0.25679866  1
  In  In74  1  0.49777544  0.50028013  0.50519610  1
  In  In75  1  0.49628290  0.83203729  -0.00541358  1
  In  In76  1  -0.00508612  0.33748309  0.75125715  1
  In  In77  1  0.32963630  0.66527731  0.23862454  1
  In  In78  1  0.83810132  0.50039418  0.50529582  1
  In  In79  1  0.49848578  0.49240527  -0.00129351  1
  In  In80  1  0.67288506  0.66307414  0.25297152  1
  In  In81  1  -0.00757361  -0.00110810  0.25020679  1
  In  In82  1  0.83883446  0.83896109  -0.00767031  1
  In  In83  1  0.33487871  0.00005310  0.74480151  1
  In  In84  1  0.16713388  0.16977116  0.49520339  1
  In  In85  1  0.16810740  0.82886415  0.50332384  1
  Cu  Cu86  1  0.67079444  0.67732701  0.51260082  1
  Cu  Cu87  1  0.82867545  0.83690973  0.25380692  1
  Cu  Cu88  1  0.67088147  0.66325892  -0.01368985  1
  Cu  Cu89  1  0.17287282  0.49774184  0.75624023  1
  Cu  Cu90  1  0.82943691  0.17371669  0.24626969  1
  Cu  Cu91  1  0.16267937  0.16663705  0.75726835  1
  Cu  Cu92  1  -0.00255359  0.66981710  0.50648464  1
  Cu  Cu93  1  0.16779496  0.17243382  0.24228130  1
  Cu  Cu94  1  0.32972687  0.66274055  0.50707512  1
  Cu  Cu95  1  0.67537189  0.00140054  0.50505064  1
  Cu  Cu96  1  0.15606012  0.50431030  0.24610421  1
  Cu  Cu97  1  0.16149898  0.82474393  0.24538033  1
  Cu  Cu98  1  0.50212115  0.83565257  0.74903450  1
  Cu  Cu99  1  0.32874561  -0.00054781  -0.00565777  1
  Cu  Cu100  1  0.83902847  0.49666857  0.24499783  1
  Cu  Cu101  1  0.16723211  0.83072507  0.75240824  1
  Cu  Cu102  1  -0.00518074  0.33722453  0.50029032  1
  Cu  Cu103  1  0.00140136  0.66523977  -0.00309373  1
  Cu  Cu104  1  -0.00640165  -0.00316497  0.50685428  1
  Cu  Cu105  1  0.67022881  0.32989580  -0.00108675  1
  Cu  Cu106  1  0.50803910  0.83478461  0.25617997  1
  Cu  Cu107  1  0.33603222  0.33273052  0.00002249  1
  Cu  Cu108  1  -0.00063756  0.33580289  -0.00446372  1
  Cu  Cu109  1  0.50661026  0.16650099  0.75086174  1
  Cu  Cu110  1  0.82798849  0.16510291  0.75146795  1
  Cu  Cu111  1  0.49671940  0.49444073  0.75035419  1
  Cu  Cu112  1  0.66316591  0.32322250  0.49857273  1
  Cu  Cu113  1  -0.00607274  -0.00183350  -0.00082250  1
  Cu  Cu114  1  0.33094440  0.33481914  0.50220043  1
  Se  Se115  1  0.08083269  0.08377995  0.04938393  1
  Se  Se116  1  0.07977891  0.07948523  0.56061327  1
  Se  Se117  1  0.08368921  0.41900124  0.04974252  1
  Se  Se118  1  0.07788879  0.42078430  0.55164757  1
  Se  Se119  1  0.07994094  0.75453872  0.04956932  1
  Se  Se120  1  0.07433690  0.75296344  0.56793005  1
  Se  Se121  1  0.41391107  0.07621343  0.05164767  1
  Se  Se122  1  0.41504882  0.08725918  0.54648992  1
  Se  Se123  1  0.41638729  0.40321357  0.06704517  1
  Se  Se124  1  0.40825353  0.41343974  0.56682346  1
  Se  Se125  1  0.40818447  0.74035459  0.05536200  1
  Se  Se126  1  0.41483553  0.74804590  0.55457445  1
  Se  Se127  1  0.74950718  0.08353497  0.04469611  1
  Se  Se128  1  0.75594845  0.08634741  0.55959358  1
  Se  Se129  1  0.75222255  0.41789251  0.04920994  1
  Se  Se130  1  0.73940965  0.40921823  0.55834140  1
  Se  Se131  1  0.74596474  0.74405191  0.05183529  1
  Se  Se132  1  0.75603660  0.75542466  0.56695248  1
  Se  Se133  1  0.24899804  0.24759786  0.05097689  1
  Se  Se134  1  0.25053009  0.25518083  0.56381937  1
  Se  Se135  1  0.25716216  0.58294718  0.04278272  1
  Se  Se136  1  0.24225098  0.58252532  0.55657803  1
  Se  Se137  1  0.24688308  0.91301635  0.04547017  1
  Se  Se138  1  0.25921253  0.92545577  0.55629316  1
  Se  Se139  1  0.58237283  0.25088866  0.05219230  1
  Se  Se140  1  0.58070594  0.24244234  0.55416548  1
  Se  Se141  1  0.59418841  0.58875158  0.05393444  1
  Se  Se142  1  0.59208725  0.58646418  0.56534894  1
  Se  Se143  1  0.59176262  0.91697818  0.05317419  1
  Se  Se144  1  0.59131347  0.91896229  0.55911256  1
  Se  Se145  1  0.91712577  0.24923347  0.04827722  1
  Se  Se146  1  0.91149399  0.24981128  0.54768196  1
  Se  Se147  1  0.91494836  0.58415640  0.04993215  1
  Se  Se148  1  0.91136486  0.59820805  0.56830113  1
  Se  Se149  1  0.91764636  0.92386522  0.06628844  1
  Se  Se150  1  0.91610738  0.91452050  0.56429429  1
  Se  Se151  1  0.07419664  0.25823366  0.43603505  1
  Se  Se152  1  0.08573373  0.24932553  0.94729081  1
  Se  Se153  1  0.07561022  0.58361049  0.45049393  1
  Se  Se154  1  0.08399283  0.57839132  0.94597183  1
  Se  Se155  1  0.07500345  0.92266518  0.44294451  1
  Se  Se156  1  0.07246443  0.91437041  0.94185181  1
  Se  Se157  1  0.41938552  0.25849019  0.44885149  1
  Se  Se158  1  0.41970211  0.24872276  0.94784389  1
  Se  Se159  1  0.40991098  0.58966692  0.44026503  1
  Se  Se160  1  0.41731997  0.59135001  0.94126641  1
  Se  Se161  1  0.42230682  0.91545550  0.45297882  1
  Se  Se162  1  0.40902332  0.92298081  0.93176757  1
  Se  Se163  1  0.75256393  0.24824851  0.44364851  1
  Se  Se164  1  0.75511165  0.24716723  0.94665351  1
  Se  Se165  1  0.74124384  0.59264728  0.44794635  1
  Se  Se166  1  0.75693461  0.58125918  0.93688656  1
  Se  Se167  1  0.75817229  0.91396401  0.45328048  1
  Se  Se168  1  0.74041527  0.92450461  0.93931555  1
  Se  Se169  1  0.26050673  0.07211979  0.44388340  1
  Se  Se170  1  0.24489058  0.08653638  0.94470017  1
  Se  Se171  1  0.24183833  0.41837741  0.45513808  1
  Se  Se172  1  0.25412587  0.41813221  0.94828953  1
  Se  Se173  1  0.25434978  0.73916982  0.43723572  1
  Se  Se174  1  0.24541273  0.75149913  0.94938452  1
  Se  Se175  1  0.59338699  0.08188981  0.44603484  1
  Se  Se176  1  0.57842284  0.09171489  0.95132917  1
  Se  Se177  1  0.59005916  0.41488334  0.44205318  1
  Se  Se178  1  0.59395077  0.41372257  0.93628423  1
  Se  Se179  1  0.58197634  0.75493652  0.45897546  1
  Se  Se180  1  0.59285476  0.74947595  0.93210507  1
  Se  Se181  1  0.91713077  0.08620077  0.45305377  1
  Se  Se182  1  0.91280313  0.08049458  0.94406250  1
  Se  Se183  1  0.91460626  0.41189977  0.43478219  1
  Se  Se184  1  0.91362822  0.41876907  0.94479899  1
  Se  Se185  1  0.91506539  0.75161665  0.45085020  1
  Se  Se186  1  0.92154584  0.74322455  0.93347029  1
  Se  Se187  1  0.24781512  0.24325321  0.30987684  1
  Se  Se188  1  0.25016235  0.25055199  0.80374566  1
  Se  Se189  1  0.24170744  0.57877682  0.30721221  1
  Se  Se190  1  0.25205875  0.58648427  0.80835455  1
  Se  Se191  1  0.24251403  0.90089071  0.30701599  1
  Se  Se192  1  0.24724765  0.91531114  0.81080838  1
  Se  Se193  1  0.59552154  0.25874918  0.30168118  1
  Se  Se194  1  0.58692003  0.24981001  0.80673333  1
  Se  Se195  1  0.57450222  0.57771404  0.31008347  1
  Se  Se196  1  0.58311457  0.57988316  0.79913584  1
  Se  Se197  1  0.58982424  0.91827455  0.30842856  1
  Se  Se198  1  0.58388259  0.92206412  0.79976830  1
  Se  Se199  1  0.91911162  0.25121804  0.29905553  1
  Se  Se200  1  0.91116278  0.24388128  0.81246515  1
  Se  Se201  1  0.91419497  0.58460905  0.30146775  1
  Se  Se202  1  0.92481941  0.58235397  0.79552214  1
  Se  Se203  1  0.90866235  0.91402257  0.31742316  1
  Se  Se204  1  0.89214299  0.90262370  0.79554512  1
  Se  Se205  1  0.09100919  0.09122924  0.30583298  1
  Se  Se206  1  0.07749419  0.08104402  0.80410093  1
  Se  Se207  1  0.08009064  0.41748784  0.30268040  1
  Se  Se208  1  0.08816032  0.41907757  0.81493811  1
  Se  Se209  1  0.07650068  0.74429969  0.29810816  1
  Se  Se210  1  0.08463959  0.74937915  0.80753924  1
  Se  Se211  1  0.43189051  0.09033265  0.31223705  1
  Se  Se212  1  0.42000326  0.08825159  0.80984731  1
  Se  Se213  1  0.42045145  0.42616702  0.31079299  1
  Se  Se214  1  0.41347281  0.41333752  0.80590900  1
  Se  Se215  1  0.42137723  0.75108624  0.30663232  1
  Se  Se216  1  0.41657235  0.75058876  0.79838216  1
  Se  Se217  1  0.75437600  0.08609728  0.30382115  1
  Se  Se218  1  0.74498407  0.08358018  0.80658191  1
  Se  Se219  1  0.74927042  0.41822714  0.29633194  1
  Se  Se220  1  0.74796592  0.40514214  0.79618569  1
  Se  Se221  1  0.75186986  0.75648113  0.31762776  1
  Se  Se222  1  0.74447622  0.74065306  0.79401671  1
  Se  Se223  1  0.24904133  0.08578765  0.19051171  1
  Se  Se224  1  0.24074915  0.09293764  0.68859711  1
  Se  Se225  1  0.24187041  0.42344648  0.19052446  1
  Se  Se226  1  0.25106803  0.41188954  0.70060674  1
  Se  Se227  1  0.24062058  0.75441666  0.17939548  1
  Se  Se228  1  0.25218676  0.74837866  0.70019139  1
  Se  Se229  1  0.59538133  0.07979733  0.19182331  1
  Se  Se230  1  0.58496178  0.07909077  0.69700257  1
  Se  Se231  1  0.58079119  0.42369376  0.20193746  1
  Se  Se232  1  0.58179125  0.41192967  0.69838150  1
  Se  Se233  1  0.57982183  0.75342187  0.19045623  1
  Se  Se234  1  0.58570669  0.75294033  0.69469382  1
  Se  Se235  1  0.91310673  0.09295851  0.18657555  1
  Se  Se236  1  0.91771878  0.08612126  0.69953549  1
  Se  Se237  1  0.92007626  0.41312580  0.19045078  1
  Se  Se238  1  0.90590988  0.42175689  0.68768899  1
  Se  Se239  1  0.91207140  0.75248660  0.20193952  1
  Se  Se240  1  0.94256746  0.72026261  0.70061210  1
  Se  Se241  1  0.08259445  0.25641071  0.19431135  1
  Se  Se242  1  0.08580667  0.24515931  0.69056914  1
  Se  Se243  1  0.07872909  0.58762285  0.18805758  1
  Se  Se244  1  0.08921891  0.57520788  0.69838059  1
  Se  Se245  1  0.08953527  0.91663693  0.18846644  1
  Se  Se246  1  0.08290581  0.92023612  0.70595211  1
  Se  Se247  1  0.42603711  0.23198550  0.19590382  1
  Se  Se248  1  0.41847328  0.24877866  0.70045960  1
  Se  Se249  1  0.42628851  0.56794465  0.19269870  1
  Se  Se250  1  0.41595701  0.58338464  0.69839487  1
  Se  Se251  1  0.42802087  0.91117941  0.19177911  1
  Se  Se252  1  0.42545214  0.91375145  0.68404284  1
  Se  Se253  1  0.74963324  0.25319997  0.18712809  1
  Se  Se254  1  0.74587032  0.24974174  0.69826267  1
  Se  Se255  1  0.75711414  0.57850197  0.18482850  1
  Se  Se256  1  0.75376602  0.57456758  0.70966598  1
  Se  Se257  1  0.74648519  0.92013625  0.20128107  1
  Se  Se258  1  0.76919481  0.90868443  0.70654110  1
