# generated using pymatgen
data_In86Cu29Se144
_symmetry_space_group_name_H-M   'P 1'
_cell_length_a   17.59323424
_cell_length_b   17.58994389
_cell_length_c   23.44615844
_cell_angle_alpha   90.00661786
_cell_angle_beta   89.98202281
_cell_angle_gamma   89.97178732
_symmetry_Int_Tables_number   1
_chemical_formula_structural   In86Cu29Se144
_chemical_formula_sum   'In86 Cu29 Se144'
_cell_volume   7255.74075924
_cell_formula_units_Z   1
loop_
 _symmetry_equiv_pos_site_id
 _symmetry_equiv_pos_as_xyz
  1  'x, y, z'
loop_
 _atom_site_type_symbol
 _atom_site_label
 _atom_site_symmetry_multiplicity
 _atom_site_fract_x
 _atom_site_fract_y
 _atom_site_fract_z
 _atom_site_occupancy
  In  In0  1  0.01041186  0.16151856  0.12798413  1
  In  In1  1  0.02090160  0.19707390  0.59332835  1
  In  In2  1  -0.00574573  0.50196321  0.12729676  1
  In  In3  1  0.04709518  0.46793617  0.66670584  1
  In  In4  1  -0.00805113  0.84772270  0.13225546  1
  In  In5  1  -0.00786813  0.82893626  0.61885451  1
  In  In6  1  0.33960311  0.17643142  0.12066176  1
  In  In7  1  0.32320738  0.16458920  0.63151330  1
  In  In8  1  0.32900379  0.47506973  0.12530603  1
  In  In9  1  0.29624484  0.44830753  0.58199543  1
  In  In10  1  0.31896524  0.83052049  0.12808000  1
  In  In11  1  0.34563083  0.84198770  0.61852742  1
  In  In12  1  0.65464790  0.16416984  0.12723882  1
  In  In13  1  0.65774162  0.15773952  0.62177455  1
  In  In14  1  0.66796688  0.49793633  0.11521907  1
  In  In15  1  0.65611779  0.50342541  0.62311890  1
  In  In16  1  0.68192119  0.84072085  0.12293889  1
  In  In17  1  0.67455120  0.84549198  0.62038668  1
  In  In18  1  0.15371534  0.01094090  0.38574645  1
  In  In19  1  0.18253743  0.00645413  0.86545521  1
  In  In20  1  0.16412026  0.33097086  0.38024540  1
  In  In21  1  0.15601262  0.32227948  0.85752007  1
  In  In22  1  0.17067017  0.66165228  0.38898179  1
  In  In23  1  0.16096341  0.67301806  0.86507419  1
  In  In24  1  0.50066085  0.00488933  0.38080259  1
  In  In25  1  0.50752851  0.01173237  0.86681283  1
  In  In26  1  0.48906115  0.33967383  0.38935503  1
  In  In27  1  0.49007172  0.33679718  0.87716444  1
  In  In28  1  0.50240431  0.66770971  0.38277554  1
  In  In29  1  0.49114877  0.65267410  0.87284238  1
  In  In30  1  0.83774758  -0.00453601  0.37004191  1
  In  In31  1  0.81811316  0.00054128  0.87491463  1
  In  In32  1  0.84437298  0.31603392  0.37874511  1
  In  In33  1  0.84754353  0.33592702  0.87434334  1
  In  In34  1  0.84372972  0.67579718  0.37637258  1
  In  In35  1  0.83601548  0.66445373  0.88151125  1
  In  In36  1  0.00475156  0.16466472  0.37421544  1
  In  In37  1  0.00145775  0.18092397  0.87143504  1
  In  In38  1  0.01565921  0.48547667  0.38317034  1
  In  In39  1  -0.00143989  0.49325797  0.86800738  1
  In  In40  1  -0.01337493  0.84618425  0.38944099  1
  In  In41  1  -0.00251549  0.82599003  0.87337359  1
  In  In42  1  0.31482975  0.19226144  0.39993891  1
  In  In43  1  0.33262517  0.17199799  0.87182250  1
  In  In44  1  0.33220051  0.48743479  0.38188004  1
  In  In45  1  0.33830569  0.49814235  0.87225288  1
  In  In46  1  0.33212530  0.83477560  0.38886007  1
  In  In47  1  0.32364524  0.83542622  0.86804585  1
  In  In48  1  0.67620702  0.15341377  0.38254671  1
  In  In49  1  0.66154610  0.14573605  0.87279223  1
  In  In50  1  0.66325565  0.49198443  0.37575234  1
  In  In51  1  0.66317475  0.50293317  0.87896952  1
  In  In52  1  0.66222424  0.84492841  0.37695291  1
  In  In53  1  0.67018628  0.85269688  0.87682277  1
  In  In54  1  0.15374506  0.00234606  0.12681374  1
  In  In55  1  0.18137628  0.01876857  0.61778310  1
  In  In56  1  0.18214698  0.32542586  0.13742214  1
  In  In57  1  0.16434989  0.32114489  0.63021979  1
  In  In58  1  0.15719390  0.66473427  0.12915644  1
  In  In59  1  0.15653615  0.65354417  0.62140536  1
  In  In60  1  0.49747450  0.01639043  0.12987785  1
  In  In61  1  0.50116794  0.00298513  0.62856462  1
  In  In62  1  0.49532442  0.32104303  0.11942926  1
  In  In63  1  0.45816797  0.30325852  0.58855058  1
  In  In64  1  0.51074158  0.66290498  0.12385959  1
  In  In65  1  0.48709075  0.65792380  0.61601064  1
  In  In66  1  0.83639515  -0.00388220  0.13089450  1
  In  In67  1  0.82993310  0.00129331  0.62165259  1
  In  In68  1  0.83475217  0.34148965  0.12261533  1
  In  In69  1  0.85882015  0.33489513  0.61937647  1
  In  In70  1  0.83387447  0.66404406  0.11849093  1
  In  In71  1  0.83920255  0.67663732  0.62227083  1
  In  In72  1  0.66875518  0.67310207  0.25502012  1
  In  In73  1  0.66432240  0.32989597  0.74520094  1
  In  In74  1  0.83725703  0.50660495  0.49801516  1
  In  In75  1  0.82759643  0.16772224  -0.00136429  1
  In  In76  1  0.33352424  0.00960381  0.26189125  1
  In  In77  1  0.66858014  0.32520342  0.25225597  1
  In  In78  1  0.50408914  0.83300402  -0.00472898  1
  In  In79  1  0.33738809  0.65432362  0.26745851  1
  In  In80  1  0.00297800  0.66448297  0.25114541  1
  In  In81  1  0.16755479  0.49593585  -0.00228063  1
  In  In82  1  0.66691685  0.67420101  0.74374179  1
  In  In83  1  0.32827586  0.66264596  0.74666300  1
  In  In84  1  0.00198579  0.00779916  0.73971994  1
  In  In85  1  0.16485033  0.83833828  -0.00701907  1
  Cu  Cu86  1  0.00099070  0.66251176  0.50390031  1
  Cu  Cu87  1  0.66553755  -0.00063350  0.50000920  1
  Cu  Cu88  1  0.50221174  0.84031051  0.74548581  1
  Cu  Cu89  1  0.84042374  0.49655971  0.24731689  1
  Cu  Cu90  1  0.00577177  0.33762971  -0.00536079  1
  Cu  Cu91  1  0.50250290  0.84689220  0.25348725  1
  Cu  Cu92  1  -0.00604307  0.67011902  0.00003905  1
  Cu  Cu93  1  0.66601345  0.67966682  0.50119637  1
  Cu  Cu94  1  0.16151261  0.83110473  0.25929513  1
  Cu  Cu95  1  0.84012525  0.50593454  0.75384035  1
  Cu  Cu96  1  0.33237700  0.66745982  0.50321709  1
  Cu  Cu97  1  0.34164394  0.00023320  0.50531025  1
  Cu  Cu98  1  0.66441469  0.33454946  -0.00296966  1
  Cu  Cu99  1  0.83345429  0.83906225  0.74425763  1
  Cu  Cu100  1  0.49393171  0.48859243  0.74253426  1
  Cu  Cu101  1  0.16770637  0.16678225  0.25842692  1
  Cu  Cu102  1  0.49740506  0.17257962  0.25469241  1
  Cu  Cu103  1  0.16751683  0.83764525  0.74283285  1
  Cu  Cu104  1  0.49347578  0.48990172  0.24855674  1
  Cu  Cu105  1  0.33759586  0.01078639  -0.00414516  1
  Cu  Cu106  1  0.84074337  0.15904703  0.25397145  1
  Cu  Cu107  1  -0.00330529  0.00208202  0.00358129  1
  Cu  Cu108  1  0.66610068  0.33744917  0.49888515  1
  Cu  Cu109  1  0.33479291  0.32537470  -0.00152005  1
  Cu  Cu110  1  0.33979994  0.65663775  0.00017960  1
  Cu  Cu111  1  -0.00452523  -0.00125568  0.50043627  1
  Cu  Cu112  1  0.83601410  0.16776956  0.74636817  1
  Cu  Cu113  1  0.66657628  0.66156921  -0.00116451  1
  Cu  Cu114  1  0.49378552  0.16644461  0.74317261  1
  Se  Se115  1  0.08559798  0.08452452  0.05050541  1
  Se  Se116  1  0.08667306  0.08183643  0.54565430  1
  Se  Se117  1  0.08256767  0.40982690  0.06322317  1
  Se  Se118  1  0.07888181  0.41449296  0.56833343  1
  Se  Se119  1  0.07622119  0.75070441  0.05920011  1
  Se  Se120  1  0.08395200  0.74894357  0.55497769  1
  Se  Se121  1  0.41989581  0.08866681  0.05347570  1
  Se  Se122  1  0.41513277  0.08641993  0.56313873  1
  Se  Se123  1  0.41712783  0.41119374  0.05185841  1
  Se  Se124  1  0.43830434  0.44138101  0.55513388  1
  Se  Se125  1  0.40930693  0.74636292  0.06030983  1
  Se  Se126  1  0.42058213  0.75399679  0.54840731  1
  Se  Se127  1  0.74425843  0.07850541  0.06171520  1
  Se  Se128  1  0.74803252  0.08449679  0.55237655  1
  Se  Se129  1  0.75233797  0.41448091  0.04896878  1
  Se  Se130  1  0.74804161  0.41518079  0.56057389  1
  Se  Se131  1  0.74641314  0.74581274  0.05355781  1
  Se  Se132  1  0.75390561  0.75581936  0.55440554  1
  Se  Se133  1  0.24559584  0.25013093  0.05453447  1
  Se  Se134  1  0.26015154  0.25795617  0.55851154  1
  Se  Se135  1  0.25439890  0.58765352  0.06305696  1
  Se  Se136  1  0.24604587  0.58263265  0.55050833  1
  Se  Se137  1  0.25710926  0.92802931  0.05511285  1
  Se  Se138  1  0.25155059  0.91855676  0.55430447  1
  Se  Se139  1  0.58703198  0.24793659  0.05172052  1
  Se  Se140  1  0.58804351  0.25067935  0.55268880  1
  Se  Se141  1  0.57981483  0.57952977  0.04970878  1
  Se  Se142  1  0.58645971  0.58941164  0.55036437  1
  Se  Se143  1  0.58072070  0.92204629  0.06338957  1
  Se  Se144  1  0.58056043  0.91981738  0.55578382  1
  Se  Se145  1  0.92524498  0.25463472  0.05565519  1
  Se  Se146  1  0.89709563  0.23703952  0.54313566  1
  Se  Se147  1  0.91782908  0.57958696  0.05272139  1
  Se  Se148  1  0.92636764  0.58127240  0.56657579  1
  Se  Se149  1  0.91452759  0.91752860  0.05454828  1
  Se  Se150  1  0.91071080  0.91627109  0.55283200  1
  Se  Se151  1  0.09070168  0.23627738  0.44637334  1
  Se  Se152  1  0.08841087  0.25363408  0.94260918  1
  Se  Se153  1  0.08406980  0.57694578  0.45279058  1
  Se  Se154  1  0.07899981  0.59364914  0.94097988  1
  Se  Se155  1  0.08656662  0.91352322  0.45309397  1
  Se  Se156  1  0.07667650  0.93072018  0.93426508  1
  Se  Se157  1  0.42359235  0.24961849  0.46136233  1
  Se  Se158  1  0.42075682  0.24350102  0.94584487  1
  Se  Se159  1  0.41092751  0.58553093  0.44294402  1
  Se  Se160  1  0.42010920  0.57195995  0.94786847  1
  Se  Se161  1  0.42256137  0.91761364  0.44968247  1
  Se  Se162  1  0.40856610  0.92002912  0.93700572  1
  Se  Se163  1  0.74753451  0.25243061  0.44605253  1
  Se  Se164  1  0.74159698  0.25589212  0.93252069  1
  Se  Se165  1  0.74082202  0.59591113  0.43783748  1
  Se  Se166  1  0.75197630  0.57892705  0.94652969  1
  Se  Se167  1  0.75177768  0.92026898  0.44447338  1
  Se  Se168  1  0.75378416  0.91784870  0.95131499  1
  Se  Se169  1  0.25334001  0.07766938  0.45116764  1
  Se  Se170  1  0.24945698  0.08781261  0.94222716  1
  Se  Se171  1  0.25284552  0.40629877  0.45213160  1
  Se  Se172  1  0.25393820  0.40539221  0.93756731  1
  Se  Se173  1  0.24622966  0.75352810  0.45446164  1
  Se  Se174  1  0.25823615  0.73726251  0.94157529  1
  Se  Se175  1  0.58092615  0.08729670  0.45152523  1
  Se  Se176  1  0.58620580  0.07197952  0.94788005  1
  Se  Se177  1  0.58184878  0.42418498  0.45060168  1
  Se  Se178  1  0.57987544  0.41685005  0.94334468  1
  Se  Se179  1  0.58191972  0.75862157  0.44531979  1
  Se  Se180  1  0.58961789  0.73849480  0.93300598  1
  Se  Se181  1  0.91730296  0.08013608  0.43997710  1
  Se  Se182  1  0.92192745  0.08161925  0.93713875  1
  Se  Se183  1  0.92445151  0.40361028  0.44946902  1
  Se  Se184  1  0.91963456  0.42229061  0.94635279  1
  Se  Se185  1  0.91493808  0.74859213  0.45512163  1
  Se  Se186  1  0.91349648  0.75688534  0.94783037  1
  Se  Se187  1  0.25261840  0.24989907  0.30983230  1
  Se  Se188  1  0.26721439  0.26549538  0.80151745  1
  Se  Se189  1  0.23561121  0.56751049  0.31410540  1
  Se  Se190  1  0.23821816  0.57185533  0.80643568  1
  Se  Se191  1  0.24385169  0.91264314  0.31591296  1
  Se  Se192  1  0.25388807  0.91846682  0.79398096  1
  Se  Se193  1  0.57879296  0.24734286  0.31909492  1
  Se  Se194  1  0.57612898  0.24160698  0.80866108  1
  Se  Se195  1  0.57358775  0.57437264  0.30544311  1
  Se  Se196  1  0.57627462  0.57346242  0.79825871  1
  Se  Se197  1  0.58316053  0.92947876  0.30670017  1
  Se  Se198  1  0.58569782  0.91868011  0.80179105  1
  Se  Se199  1  0.92288094  0.24726675  0.30166269  1
  Se  Se200  1  0.91684479  0.25382524  0.79885799  1
  Se  Se201  1  0.91480049  0.57259330  0.31357926  1
  Se  Se202  1  0.91864901  0.59098568  0.80819819  1
  Se  Se203  1  0.92424895  0.91129029  0.30469842  1
  Se  Se204  1  0.91379044  0.91905731  0.80641049  1
  Se  Se205  1  0.08321229  0.07738976  0.30278207  1
  Se  Se206  1  0.08904599  0.09349271  0.80491628  1
  Se  Se207  1  0.07567176  0.40157276  0.30717069  1
  Se  Se208  1  0.08388330  0.42179917  0.79690045  1
  Se  Se209  1  0.08500088  0.75013703  0.31983505  1
  Se  Se210  1  0.08236717  0.75895596  0.79764187  1
  Se  Se211  1  0.41443402  0.10468231  0.32168455  1
  Se  Se212  1  0.41367450  0.08457284  0.80242759  1
  Se  Se213  1  0.41613978  0.41069402  0.30839390  1
  Se  Se214  1  0.41227724  0.41162193  0.80109791  1
  Se  Se215  1  0.42460884  0.76255477  0.31154425  1
  Se  Se216  1  0.42533145  0.75557916  0.80540721  1
  Se  Se217  1  0.75037173  0.08133017  0.30386976  1
  Se  Se218  1  0.75250131  0.08473862  0.79822494  1
  Se  Se219  1  0.76132860  0.41834755  0.31000323  1
  Se  Se220  1  0.75314839  0.42336437  0.80783627  1
  Se  Se221  1  0.76051909  0.76340221  0.30923614  1
  Se  Se222  1  0.75497783  0.75929597  0.80827078  1
  Se  Se223  1  0.24636896  0.08932091  0.19171485  1
  Se  Se224  1  0.24382379  0.08396036  0.70332688  1
  Se  Se225  1  0.25334674  0.41608688  0.20582464  1
  Se  Se226  1  0.24695565  0.42457516  0.68332765  1
  Se  Se227  1  0.24305021  0.74679467  0.20360154  1
  Se  Se228  1  0.24760716  0.75578226  0.68278651  1
  Se  Se229  1  0.58101763  0.08690478  0.20463266  1
  Se  Se230  1  0.58561528  0.08234488  0.70019134  1
  Se  Se231  1  0.58218424  0.41780179  0.18954977  1
  Se  Se232  1  0.57231493  0.40993133  0.68243172  1
  Se  Se233  1  0.57608574  0.76135960  0.19314958  1
  Se  Se234  1  0.57303842  0.75640634  0.68280571  1
  Se  Se235  1  0.92338325  0.08089648  0.19436859  1
  Se  Se236  1  0.91665793  0.09819455  0.67949697  1
  Se  Se237  1  0.92119047  0.41051178  0.19597324  1
  Se  Se238  1  0.91550266  0.41488825  0.70172038  1
  Se  Se239  1  0.90748364  0.75113060  0.19355182  1
  Se  Se240  1  0.91767762  0.75281369  0.69741592  1
  Se  Se241  1  0.08650011  0.24685288  0.19842811  1
  Se  Se242  1  0.06805253  0.24141929  0.69065871  1
  Se  Se243  1  0.09481075  0.56699475  0.19863749  1
  Se  Se244  1  0.07573175  0.60224864  0.70478671  1
  Se  Se245  1  0.08653481  0.91478242  0.20042579  1
  Se  Se246  1  0.08961708  0.91601200  0.67998418  1
  Se  Se247  1  0.41555868  0.25255040  0.19760306  1
  Se  Se248  1  0.41805308  0.25415694  0.68867639  1
  Se  Se249  1  0.41957505  0.57812231  0.19000297  1
  Se  Se250  1  0.41247776  0.57170007  0.68646397  1
  Se  Se251  1  0.41252113  0.91418990  0.19243403  1
  Se  Se252  1  0.41328427  0.92163852  0.69691039  1
  Se  Se253  1  0.76136206  0.23881113  0.19003247  1
  Se  Se254  1  0.75822188  0.24796029  0.68301903  1
  Se  Se255  1  0.75330656  0.57511386  0.19279367  1
  Se  Se256  1  0.75750198  0.57715902  0.69016119  1
  Se  Se257  1  0.74697210  0.92048550  0.19903788  1
  Se  Se258  1  0.74853677  0.92383910  0.69635963  1
