# generated using pymatgen
data_In86Cu29Se144
_symmetry_space_group_name_H-M   'P 1'
_cell_length_a   17.58811273
_cell_length_b   17.58060639
_cell_length_c   23.44282924
_cell_angle_alpha   90.00936372
_cell_angle_beta   89.99685779
_cell_angle_gamma   89.96909869
_symmetry_Int_Tables_number   1
_chemical_formula_structural   In86Cu29Se144
_chemical_formula_sum   'In86 Cu29 Se144'
_cell_volume   7248.74872840
_cell_formula_units_Z   1
loop_
 _symmetry_equiv_pos_site_id
 _symmetry_equiv_pos_as_xyz
  1  'x, y, z'
loop_
 _atom_site_type_symbol
 _atom_site_label
 _atom_site_symmetry_multiplicity
 _atom_site_fract_x
 _atom_site_fract_y
 _atom_site_fract_z
 _atom_site_occupancy
  In  In0  1  -0.01488789  0.15859285  0.13200180  1
  In  In1  1  -0.00339063  0.17858617  0.61914254  1
  In  In2  1  0.02006325  0.49858164  0.12909777  1
  In  In3  1  0.00681781  0.52143342  0.60561710  1
  In  In4  1  0.00235700  0.83090449  0.13296246  1
  In  In5  1  -0.01408673  0.80043136  0.60399893  1
  In  In6  1  0.33740057  0.16065007  0.12742960  1
  In  In7  1  0.33871905  0.16466107  0.63067911  1
  In  In8  1  0.31499914  0.51852181  0.14603752  1
  In  In9  1  0.34062640  0.49358656  0.62064317  1
  In  In10  1  0.33139699  0.83111209  0.12831922  1
  In  In11  1  0.33419217  0.83012299  0.62681762  1
  In  In12  1  0.65833288  0.18025343  0.12106578  1
  In  In13  1  0.67974236  0.16908261  0.62337530  1
  In  In14  1  0.66219632  0.50198270  0.12357532  1
  In  In15  1  0.66610194  0.49953908  0.62244002  1
  In  In16  1  0.66924444  0.83277682  0.11378258  1
  In  In17  1  0.64465941  0.82050170  0.62262450  1
  In  In18  1  0.15495466  -0.00929793  0.36597757  1
  In  In19  1  0.17060857  -0.01821663  0.87525837  1
  In  In20  1  0.18593443  0.34542526  0.37630138  1
  In  In21  1  0.18601777  0.34281915  0.87176193  1
  In  In22  1  0.17580385  0.66668512  0.38166232  1
  In  In23  1  0.16425235  0.66145847  0.86821166  1
  In  In24  1  0.48677766  -0.00034519  0.37216079  1
  In  In25  1  0.49843682  0.00629499  0.87831353  1
  In  In26  1  0.48670426  0.35239754  0.39446465  1
  In  In27  1  0.49851312  0.33028401  0.86539383  1
  In  In28  1  0.48886682  0.67466354  0.38320470  1
  In  In29  1  0.51033505  0.68458571  0.85252678  1
  In  In30  1  0.84859302  -0.01565818  0.38964489  1
  In  In31  1  0.81604700  -0.01204065  0.87190195  1
  In  In32  1  0.82115335  0.33818926  0.39186230  1
  In  In33  1  0.83479224  0.34895880  0.86675197  1
  In  In34  1  0.85773760  0.65188787  0.39932725  1
  In  In35  1  0.83279933  0.66786813  0.86846816  1
  In  In36  1  0.00003720  0.15536174  0.37479980  1
  In  In37  1  -0.00795404  0.16345426  0.87846413  1
  In  In38  1  0.00472750  0.51117466  0.38285730  1
  In  In39  1  0.00566117  0.52521587  0.87259620  1
  In  In40  1  0.00396603  0.82862733  0.38142616  1
  In  In41  1  -0.00311988  0.80504343  0.87730462  1
  In  In42  1  0.33123221  0.15946056  0.36611426  1
  In  In43  1  0.35132368  0.17849508  0.86836821  1
  In  In44  1  0.33104122  0.50420922  0.38458181  1
  In  In45  1  0.33305492  0.50412186  0.86935524  1
  In  In46  1  0.33366353  0.82925872  0.37549701  1
  In  In47  1  0.34325364  0.84430467  0.85623937  1
  In  In48  1  0.67053646  0.18252739  0.38065848  1
  In  In49  1  0.65377646  0.15977223  0.87070047  1
  In  In50  1  0.65619850  0.49710528  0.39114600  1
  In  In51  1  0.67213580  0.50245610  0.85798213  1
  In  In52  1  0.67502016  0.82420877  0.38696006  1
  In  In53  1  0.66916527  0.82145729  0.88192536  1
  In  In54  1  0.16765717  -0.00686450  0.13622179  1
  In  In55  1  0.18279263  -0.00912718  0.62970935  1
  In  In56  1  0.17445744  0.35233008  0.12614992  1
  In  In57  1  0.17306543  0.34698130  0.61680350  1
  In  In58  1  0.16719310  0.66403197  0.13178984  1
  In  In59  1  0.16822594  0.66512925  0.61901321  1
  In  In60  1  0.49035563  -0.00745603  0.11747561  1
  In  In61  1  0.49022602  -0.01856798  0.62706221  1
  In  In62  1  0.49536665  0.32556434  0.11914391  1
  In  In63  1  0.48730947  0.34581151  0.62689394  1
  In  In64  1  0.48751368  0.66891670  0.12106192  1
  In  In65  1  0.50088239  0.66850329  0.63014689  1
  In  In66  1  0.83954141  -0.01224287  0.13552671  1
  In  In67  1  0.83575017  -0.00140136  0.61929464  1
  In  In68  1  0.82774685  0.33435476  0.12915942  1
  In  In69  1  0.82169566  0.33629345  0.60851874  1
  In  In70  1  0.83832459  0.68191599  0.12471051  1
  In  In71  1  0.82724458  0.66242915  0.62094306  1
  In  In72  1  0.16953013  0.82350751  0.00340658  1
  In  In73  1  0.00920884  0.33357142  0.26372780  1
  In  In74  1  0.83452420  0.51001282  -0.00954791  1
  In  In75  1  0.50081966  0.16668788  0.49913893  1
  In  In76  1  0.17047988  0.16373239  0.00543765  1
  In  In77  1  0.82550041  0.16378769  0.00743969  1
  In  In78  1  0.66542317  -0.00128588  0.74773038  1
  In  In79  1  0.65995121  0.33350686  0.25984680  1
  In  In80  1  0.66268328  0.00101829  0.25320818  1
  In  In81  1  0.01108245  -0.00990598  0.74995710  1
  In  In82  1  0.66969224  0.66803198  0.25026802  1
  In  In83  1  0.49573826  0.50582755  -0.00168911  1
  In  In84  1  0.00761325  0.34828013  0.73113844  1
  In  In85  1  0.16323689  0.16565813  0.49422727  1
  Cu  Cu86  1  0.83017970  0.50353846  0.74162206  1
  Cu  Cu87  1  0.83445462  0.15400684  0.25966620  1
  Cu  Cu88  1  -0.00891520  -0.01217540  0.00830218  1
  Cu  Cu89  1  0.16570960  0.83018007  0.25652195  1
  Cu  Cu90  1  0.16364952  0.82628114  0.74330517  1
  Cu  Cu91  1  0.50525023  0.17142864  0.74748583  1
  Cu  Cu92  1  0.84447270  0.50674864  0.25934891  1
  Cu  Cu93  1  0.49753333  0.50021887  0.74545768  1
  Cu  Cu94  1  0.17777246  0.16631077  0.75270374  1
  Cu  Cu95  1  0.16468201  0.17146514  0.24970622  1
  Cu  Cu96  1  0.33979097  0.66384098  0.50488126  1
  Cu  Cu97  1  0.49140338  0.16727810  0.24894346  1
  Cu  Cu98  1  0.33259243  0.66898004  -0.00008062  1
  Cu  Cu99  1  0.84436632  0.82762689  0.26072728  1
  Cu  Cu100  1  0.00796311  -0.00027993  0.49812451  1
  Cu  Cu101  1  0.66183150  0.33008354  -0.00800523  1
  Cu  Cu102  1  0.17037712  0.50196978  0.73860171  1
  Cu  Cu103  1  0.33831602  0.00764159  -0.00470163  1
  Cu  Cu104  1  0.65940757  0.66992830  0.50684355  1
  Cu  Cu105  1  0.32923633  -0.01540571  0.49818893  1
  Cu  Cu106  1  0.49353419  0.49960310  0.25941118  1
  Cu  Cu107  1  -0.00329729  0.33724045  0.49882479  1
  Cu  Cu108  1  0.49388493  0.83494906  0.24977907  1
  Cu  Cu109  1  0.84185715  0.17855014  0.74119494  1
  Cu  Cu110  1  0.33810403  0.34544217  -0.00533692  1
  Cu  Cu111  1  0.66654705  -0.00061781  0.50550485  1
  Cu  Cu112  1  0.01477357  0.33781607  0.00152942  1
  Cu  Cu113  1  0.66155156  -0.00525775  -0.00378129  1
  Cu  Cu114  1  0.83380276  0.82615259  0.74458855  1
  Se  Se115  1  0.07270725  0.07334216  0.06191903  1
  Se  Se116  1  0.08355067  0.07697333  0.56446828  1
  Se  Se117  1  0.09552162  0.42530935  0.05058577  1
  Se  Se118  1  0.08387108  0.41891413  0.54839337  1
  Se  Se119  1  0.07452679  0.73903571  0.06007793  1
  Se  Se120  1  0.08095851  0.72767958  0.53933545  1
  Se  Se121  1  0.41945025  0.08986762  0.05131924  1
  Se  Se122  1  0.40769341  0.07206761  0.55489304  1
  Se  Se123  1  0.40739261  0.42448140  0.06469160  1
  Se  Se124  1  0.41157821  0.40854254  0.54600419  1
  Se  Se125  1  0.41184750  0.75738160  0.05246918  1
  Se  Se126  1  0.42042605  0.75139409  0.55729537  1
  Se  Se127  1  0.73792542  0.07004122  0.06719383  1
  Se  Se128  1  0.75356616  0.08386287  0.55245098  1
  Se  Se129  1  0.74264733  0.40970865  0.05301548  1
  Se  Se130  1  0.75561055  0.43645485  0.54705797  1
  Se  Se131  1  0.74950911  0.74359433  0.05193447  1
  Se  Se132  1  0.74416423  0.75510656  0.55724000  1
  Se  Se133  1  0.26091578  0.26148805  0.05715626  1
  Se  Se134  1  0.25516317  0.24673299  0.55747176  1
  Se  Se135  1  0.25463962  0.58888539  0.05983272  1
  Se  Se136  1  0.25459398  0.57903763  0.55484352  1
  Se  Se137  1  0.25366744  0.92996420  0.05563535  1
  Se  Se138  1  0.24568028  0.90557295  0.55361832  1
  Se  Se139  1  0.57735553  0.24968419  0.04549632  1
  Se  Se140  1  0.58245628  0.25271123  0.56542021  1
  Se  Se141  1  0.59061286  0.59622851  0.05641267  1
  Se  Se142  1  0.57664933  0.58324920  0.55768090  1
  Se  Se143  1  0.57794796  0.91299498  0.05121341  1
  Se  Se144  1  0.57792846  0.91685950  0.55291574  1
  Se  Se145  1  0.92543057  0.26096022  0.05798752  1
  Se  Se146  1  0.91356708  0.25010813  0.54741442  1
  Se  Se147  1  0.91965295  0.57824848  0.06583470  1
  Se  Se148  1  0.90932413  0.59324309  0.54407255  1
  Se  Se149  1  0.91011265  0.90448747  0.06175744  1
  Se  Se150  1  0.92524200  0.91905914  0.55451308  1
  Se  Se151  1  0.07641703  0.26061551  0.43490970  1
  Se  Se152  1  0.08481164  0.25245924  0.93849670  1
  Se  Se153  1  0.07722264  0.60247240  0.45255505  1
  Se  Se154  1  0.08630465  0.59304466  0.94700119  1
  Se  Se155  1  0.09087437  0.91514965  0.44738991  1
  Se  Se156  1  0.07274598  0.91475094  0.94406210  1
  Se  Se157  1  0.39949079  0.24694646  0.44357218  1
  Se  Se158  1  0.42104538  0.25956143  0.94486240  1
  Se  Se159  1  0.42493625  0.57910446  0.45284951  1
  Se  Se160  1  0.41519715  0.59777426  0.93511254  1
  Se  Se161  1  0.42126586  0.91110677  0.44475157  1
  Se  Se162  1  0.41069248  0.91729664  0.93926202  1
  Se  Se163  1  0.74825422  0.24743615  0.45840200  1
  Se  Se164  1  0.75094049  0.25433178  0.93434058  1
  Se  Se165  1  0.74017680  0.59039095  0.44878781  1
  Se  Se166  1  0.73272087  0.59039283  0.93682480  1
  Se  Se167  1  0.75081547  0.91495116  0.45347394  1
  Se  Se168  1  0.74998815  0.91084907  0.95000376  1
  Se  Se169  1  0.25335682  0.06987309  0.43853736  1
  Se  Se170  1  0.25406198  0.08192463  0.93391055  1
  Se  Se171  1  0.25152488  0.42014734  0.45560750  1
  Se  Se172  1  0.25192056  0.42893409  0.94625228  1
  Se  Se173  1  0.25917583  0.74916821  0.45092746  1
  Se  Se174  1  0.25812874  0.74861877  0.93403061  1
  Se  Se175  1  0.58982089  0.07455715  0.43797046  1
  Se  Se176  1  0.58222026  0.08644756  0.94911547  1
  Se  Se177  1  0.60192844  0.39112113  0.45438540  1
  Se  Se178  1  0.58876078  0.41887799  0.93453475  1
  Se  Se179  1  0.57754687  0.75345843  0.45019733  1
  Se  Se180  1  0.56760675  0.74880972  0.94100026  1
  Se  Se181  1  0.92036242  0.08609103  0.45166458  1
  Se  Se182  1  0.91366542  0.06924163  0.94586483  1
  Se  Se183  1  0.91613231  0.42434626  0.44643592  1
  Se  Se184  1  0.93124590  0.41290758  0.93884253  1
  Se  Se185  1  0.90019631  0.77404897  0.44934565  1
  Se  Se186  1  0.91275669  0.73382067  0.94750081  1
  Se  Se187  1  0.24826155  0.25050085  0.30476955  1
  Se  Se188  1  0.25839030  0.25480103  0.80274231  1
  Se  Se189  1  0.26410100  0.59256563  0.31166212  1
  Se  Se190  1  0.24924337  0.58309267  0.79852645  1
  Se  Se191  1  0.25308309  0.91487649  0.30555558  1
  Se  Se192  1  0.24340795  0.91774129  0.79332651  1
  Se  Se193  1  0.56455289  0.24519216  0.31553625  1
  Se  Se194  1  0.59120622  0.25270707  0.79940191  1
  Se  Se195  1  0.57994789  0.57919999  0.31375538  1
  Se  Se196  1  0.58498669  0.58440683  0.79341258  1
  Se  Se197  1  0.58019505  0.90390899  0.31259177  1
  Se  Se198  1  0.58226743  0.91362299  0.81356257  1
  Se  Se199  1  0.90472993  0.24817126  0.31582763  1
  Se  Se200  1  0.92453716  0.25493523  0.80177588  1
  Se  Se201  1  0.92406957  0.59282088  0.31053174  1
  Se  Se202  1  0.91316798  0.58330244  0.79842722  1
  Se  Se203  1  0.92471931  0.91724380  0.30964555  1
  Se  Se204  1  0.91056994  0.90684143  0.80825751  1
  Se  Se205  1  0.08097243  0.08539508  0.29966657  1
  Se  Se206  1  0.09203794  0.09058398  0.81219810  1
  Se  Se207  1  0.09803068  0.43428077  0.31082933  1
  Se  Se208  1  0.08956270  0.42603273  0.80629942  1
  Se  Se209  1  0.08742496  0.74732127  0.31261216  1
  Se  Se210  1  0.08083663  0.74558593  0.79896436  1
  Se  Se211  1  0.41103876  0.07524700  0.29650112  1
  Se  Se212  1  0.42479024  0.08566037  0.80177112  1
  Se  Se213  1  0.41269331  0.41604232  0.31281343  1
  Se  Se214  1  0.41579812  0.41867521  0.80226510  1
  Se  Se215  1  0.41612385  0.74699932  0.30354049  1
  Se  Se216  1  0.39282415  0.73138749  0.79757404  1
  Se  Se217  1  0.75250822  0.08042683  0.32122107  1
  Se  Se218  1  0.76194930  0.09522820  0.80206059  1
  Se  Se219  1  0.75499692  0.42849688  0.31325554  1
  Se  Se220  1  0.75042132  0.41266374  0.79124980  1
  Se  Se221  1  0.76182052  0.74497153  0.31684461  1
  Se  Se222  1  0.74742080  0.75209352  0.80288764  1
  Se  Se223  1  0.24813971  0.08646757  0.19637020  1
  Se  Se224  1  0.25581463  0.08009840  0.69817054  1
  Se  Se225  1  0.25422891  0.41094965  0.20534550  1
  Se  Se226  1  0.25442193  0.41293721  0.69345140  1
  Se  Se227  1  0.24788720  0.75244519  0.19730388  1
  Se  Se228  1  0.24859275  0.74385421  0.69193993  1
  Se  Se229  1  0.57616859  0.09168852  0.18960603  1
  Se  Se230  1  0.57773364  0.08774073  0.68438205  1
  Se  Se231  1  0.57335157  0.42289853  0.19449977  1
  Se  Se232  1  0.58271373  0.41694139  0.69305148  1
  Se  Se233  1  0.57891566  0.75848512  0.18931605  1
  Se  Se234  1  0.57137461  0.75722749  0.70280052  1
  Se  Se235  1  0.91737457  0.07246669  0.20560611  1
  Se  Se236  1  0.92042057  0.08664082  0.69217618  1
  Se  Se237  1  0.91400643  0.41659998  0.19764858  1
  Se  Se238  1  0.91119777  0.43162295  0.67507814  1
  Se  Se239  1  0.92219318  0.74453800  0.20244807  1
  Se  Se240  1  0.91641529  0.74196945  0.69112538  1
  Se  Se241  1  0.08387284  0.24801439  0.18681806  1
  Se  Se242  1  0.09870975  0.24190907  0.68832047  1
  Se  Se243  1  0.08417137  0.58436721  0.20182448  1
  Se  Se244  1  0.08195800  0.58318271  0.68919235  1
  Se  Se245  1  0.08164821  0.91483286  0.20304402  1
  Se  Se246  1  0.08036786  0.89868416  0.67914523  1
  Se  Se247  1  0.41356623  0.25409946  0.19382042  1
  Se  Se248  1  0.41699394  0.25279953  0.69706967  1
  Se  Se249  1  0.42313222  0.58908421  0.20026522  1
  Se  Se250  1  0.41246808  0.58117279  0.69272767  1
  Se  Se251  1  0.41427987  0.91923422  0.19469601  1
  Se  Se252  1  0.40853478  0.91447696  0.70079460  1
  Se  Se253  1  0.75461617  0.23766883  0.19990862  1
  Se  Se254  1  0.75530073  0.25883471  0.69078218  1
  Se  Se255  1  0.76013982  0.57308638  0.19207019  1
  Se  Se256  1  0.74258284  0.58729822  0.69378444  1
  Se  Se257  1  0.75313647  0.89968157  0.20153982  1
  Se  Se258  1  0.75448647  0.90923081  0.68655648  1
