# generated using pymatgen
data_In86Cu29Se144
_symmetry_space_group_name_H-M   'P 1'
_cell_length_a   17.58202928
_cell_length_b   17.57849392
_cell_length_c   23.44600846
_cell_angle_alpha   89.96057404
_cell_angle_beta   89.96685553
_cell_angle_gamma   90.02379011
_symmetry_Int_Tables_number   1
_chemical_formula_structural   In86Cu29Se144
_chemical_formula_sum   'In86 Cu29 Se144'
_cell_volume   7246.35099721
_cell_formula_units_Z   1
loop_
 _symmetry_equiv_pos_site_id
 _symmetry_equiv_pos_as_xyz
  1  'x, y, z'
loop_
 _atom_site_type_symbol
 _atom_site_label
 _atom_site_symmetry_multiplicity
 _atom_site_fract_x
 _atom_site_fract_y
 _atom_site_fract_z
 _atom_site_occupancy
  In  In0  1  -0.01373180  0.14783172  0.11088622  1
  In  In1  1  0.01166630  0.15436803  0.63482835  1
  In  In2  1  0.00592083  0.50137675  0.12844811  1
  In  In3  1  -0.00881606  0.51128220  0.62781107  1
  In  In4  1  0.00133095  0.83946314  0.12406446  1
  In  In5  1  0.01208086  0.82430591  0.63158514  1
  In  In6  1  0.32952405  0.16618570  0.12488706  1
  In  In7  1  0.32754300  0.17540172  0.63342532  1
  In  In8  1  0.31964561  0.49103663  0.12992306  1
  In  In9  1  0.34025372  0.49612426  0.62681735  1
  In  In10  1  0.32585542  0.85077530  0.12666516  1
  In  In11  1  0.32713319  0.83439505  0.62529010  1
  In  In12  1  0.66477254  0.15416535  0.11546186  1
  In  In13  1  0.67681730  0.17213157  0.63038495  1
  In  In14  1  0.67762192  0.50876676  0.12515363  1
  In  In15  1  0.66022070  0.49805018  0.61932894  1
  In  In16  1  0.67610652  0.82640509  0.12740525  1
  In  In17  1  0.66038342  0.84337119  0.62245187  1
  In  In18  1  0.16633506  -0.00402796  0.37262855  1
  In  In19  1  0.16927594  0.00176057  0.87955797  1
  In  In20  1  0.16488087  0.31373485  0.37979310  1
  In  In21  1  0.16105848  0.32589240  0.86579934  1
  In  In22  1  0.16435175  0.68505373  0.37596341  1
  In  In23  1  0.17299976  0.67296467  0.86708601  1
  In  In24  1  0.48756074  -0.01158671  0.36897178  1
  In  In25  1  0.49003029  0.01269888  0.87373157  1
  In  In26  1  0.49670873  0.34862552  0.37929295  1
  In  In27  1  0.50293785  0.32056833  0.85952928  1
  In  In28  1  0.50385082  0.66125541  0.38171405  1
  In  In29  1  0.48992896  0.67655320  0.87098727  1
  In  In30  1  0.83351706  -0.00367995  0.36201818  1
  In  In31  1  0.84247552  -0.01452029  0.88985616  1
  In  In32  1  0.84547378  0.33558457  0.37798634  1
  In  In33  1  0.82674061  0.32162236  0.86820782  1
  In  In34  1  0.83000842  0.66769018  0.37063800  1
  In  In35  1  0.84490165  0.66418910  0.87786303  1
  In  In36  1  0.01201263  0.16572090  0.37730039  1
  In  In37  1  0.00364581  0.16302383  0.87681713  1
  In  In38  1  -0.01430485  0.50503871  0.38441260  1
  In  In39  1  0.00863070  0.50580224  0.86325057  1
  In  In40  1  0.01128106  0.83525595  0.36553213  1
  In  In41  1  0.00324745  0.83496033  0.87600990  1
  In  In42  1  0.32251074  0.15149368  0.36743389  1
  In  In43  1  0.32033222  0.14722088  0.85484613  1
  In  In44  1  0.34733028  0.50158344  0.37841442  1
  In  In45  1  0.33449140  0.49535013  0.86218291  1
  In  In46  1  0.31907008  0.84746711  0.38178754  1
  In  In47  1  0.32543357  0.83227295  0.87073710  1
  In  In48  1  0.67676548  0.16153536  0.36846411  1
  In  In49  1  0.67003395  0.17697384  0.88327386  1
  In  In50  1  0.65960560  0.51379556  0.38165691  1
  In  In51  1  0.67885399  0.48980388  0.87546005  1
  In  In52  1  0.66004712  0.82589326  0.36679088  1
  In  In53  1  0.66877205  0.84339907  0.88515749  1
  In  In54  1  0.16571504  -0.00453571  0.11980318  1
  In  In55  1  0.16551597  -0.00136610  0.62372244  1
  In  In56  1  0.17788105  0.32659270  0.12695455  1
  In  In57  1  0.17620790  0.32090452  0.63175998  1
  In  In58  1  0.14760135  0.67416646  0.13533891  1
  In  In59  1  0.15211483  0.68374900  0.62774353  1
  In  In60  1  0.49922860  0.00217664  0.13365569  1
  In  In61  1  0.49502988  -0.01588473  0.62038812  1
  In  In62  1  0.49239720  0.32040846  0.12589361  1
  In  In63  1  0.48956772  0.34247406  0.63542922  1
  In  In64  1  0.50625345  0.67687057  0.12815020  1
  In  In65  1  0.49248125  0.66181934  0.61924471  1
  In  In66  1  0.83408076  -0.00332683  0.12212191  1
  In  In67  1  0.83426640  0.01103852  0.62931215  1
  In  In68  1  0.84063178  0.33191125  0.11559104  1
  In  In69  1  0.82691302  0.34189982  0.63461572  1
  In  In70  1  0.81704970  0.68657865  0.13374032  1
  In  In71  1  0.85712784  0.66223003  0.62354717  1
  In  In72  1  0.66280011  0.33322494  0.24819553  1
  In  In73  1  0.50096701  0.50024958  -0.00822130  1
  In  In74  1  0.49735052  0.17007424  0.50613919  1
  In  In75  1  0.83634932  0.17192165  0.50216487  1
  In  In76  1  0.16373490  0.50078238  0.00071316  1
  In  In77  1  0.66485677  0.00827743  0.76066749  1
  In  In78  1  0.16955074  0.50201641  0.50536439  1
  In  In79  1  0.83481691  0.83096074  0.49992444  1
  In  In80  1  0.50246952  0.83631377  0.00244585  1
  In  In81  1  0.00542968  0.32985321  0.25090971  1
  In  In82  1  0.49968447  0.16490262  -0.00376867  1
  In  In83  1  0.83754529  0.50044762  -0.00262690  1
  In  In84  1  0.33364344  0.67037454  0.25477952  1
  In  In85  1  0.66752169  0.66394336  0.75496402  1
  Cu  Cu86  1  0.00497047  -0.00209368  0.00003869  1
  Cu  Cu87  1  0.00180553  0.32619442  -0.01004129  1
  Cu  Cu88  1  0.00387450  -0.00373347  0.50037677  1
  Cu  Cu89  1  0.32099217  0.67473954  -0.00164601  1
  Cu  Cu90  1  0.48835509  0.83280964  0.74757454  1
  Cu  Cu91  1  0.84117123  0.83404133  0.24643031  1
  Cu  Cu92  1  0.50392001  0.83468711  0.25146907  1
  Cu  Cu93  1  0.17049678  0.49893970  0.74122839  1
  Cu  Cu94  1  0.16419386  0.49656230  0.25384295  1
  Cu  Cu95  1  0.33561338  0.33057633  0.50684095  1
  Cu  Cu96  1  0.00159753  0.33433874  0.50498497  1
  Cu  Cu97  1  0.32305027  -0.00285877  0.49654554  1
  Cu  Cu98  1  0.49325771  0.16764696  0.24836660  1
  Cu  Cu99  1  0.33280177  0.32651418  -0.00335559  1
  Cu  Cu100  1  0.50271201  0.49624639  0.74374681  1
  Cu  Cu101  1  0.66667897  0.34674186  0.50378344  1
  Cu  Cu102  1  0.82974500  0.50603450  0.25520050  1
  Cu  Cu103  1  0.50050016  0.50182571  0.25548566  1
  Cu  Cu104  1  0.67222680  0.66780235  0.49661866  1
  Cu  Cu105  1  0.33565442  0.67322892  0.50093725  1
  Cu  Cu106  1  0.16475585  0.15681759  0.24697704  1
  Cu  Cu107  1  0.83312339  0.15737763  0.24091556  1
  Cu  Cu108  1  0.16395785  0.83993259  0.75102885  1
  Cu  Cu109  1  0.84180942  0.83784121  0.75383412  1
  Cu  Cu110  1  0.65553622  -0.00368841  0.49399375  1
  Cu  Cu111  1  0.84402606  0.16749135  0.75506777  1
  Cu  Cu112  1  -0.00399426  0.67746327  0.00313357  1
  Cu  Cu113  1  0.16420151  0.16369215  0.75143292  1
  Cu  Cu114  1  0.83769642  0.49958211  0.75161170  1
  Se  Se115  1  0.09026288  0.08561458  0.04849044  1
  Se  Se116  1  0.08271326  0.08390830  0.55374777  1
  Se  Se117  1  0.07493461  0.40368981  0.05815801  1
  Se  Se118  1  0.08325617  0.41056130  0.56680335  1
  Se  Se119  1  0.08641449  0.75371245  0.05527624  1
  Se  Se120  1  0.07668511  0.75327001  0.54954056  1
  Se  Se121  1  0.41304907  0.07461005  0.05772831  1
  Se  Se122  1  0.40423061  0.07566593  0.55835426  1
  Se  Se123  1  0.40797316  0.41196473  0.05597959  1
  Se  Se124  1  0.42096629  0.41635098  0.55414974  1
  Se  Se125  1  0.40656281  0.74502057  0.06049200  1
  Se  Se126  1  0.41756642  0.75699978  0.55593477  1
  Se  Se127  1  0.76574421  0.09223117  0.05350430  1
  Se  Se128  1  0.73858230  0.07519954  0.55340090  1
  Se  Se129  1  0.74030879  0.41106415  0.05414875  1
  Se  Se130  1  0.75751345  0.42155512  0.55674212  1
  Se  Se131  1  0.74648916  0.74692570  0.05038794  1
  Se  Se132  1  0.74599156  0.74267993  0.56509173  1
  Se  Se133  1  0.24919242  0.24648433  0.05157453  1
  Se  Se134  1  0.25019218  0.24486736  0.55405656  1
  Se  Se135  1  0.24981327  0.59251097  0.06397075  1
  Se  Se136  1  0.25640310  0.59480927  0.56480868  1
  Se  Se137  1  0.24917279  0.91583242  0.04875027  1
  Se  Se138  1  0.24329213  0.91277751  0.55338323  1
  Se  Se139  1  0.58938840  0.25985111  0.05495931  1
  Se  Se140  1  0.59206282  0.25995376  0.56220936  1
  Se  Se141  1  0.58634527  0.58965997  0.05629608  1
  Se  Se142  1  0.58533756  0.58821430  0.55237128  1
  Se  Se143  1  0.58979103  0.92339266  0.06460069  1
  Se  Se144  1  0.57684608  0.90938671  0.54629337  1
  Se  Se145  1  0.91707386  0.24819838  0.04665516  1
  Se  Se146  1  0.92302042  0.25384536  0.56840912  1
  Se  Se147  1  0.92212183  0.58923737  0.06234304  1
  Se  Se148  1  0.92277838  0.58290694  0.54644233  1
  Se  Se149  1  0.91756019  0.91528177  0.05159654  1
  Se  Se150  1  0.91901996  0.92379869  0.56245270  1
  Se  Se151  1  0.08101716  0.24520079  0.45496741  1
  Se  Se152  1  0.09314153  0.24597140  0.94347792  1
  Se  Se153  1  0.08300136  0.58991770  0.44283383  1
  Se  Se154  1  0.07540717  0.59409991  0.94282216  1
  Se  Se155  1  0.08274019  0.91435804  0.44319552  1
  Se  Se156  1  0.08735983  0.91396411  0.94617533  1
  Se  Se157  1  0.40858333  0.25161141  0.43855159  1
  Se  Se158  1  0.41066016  0.25107634  0.93352117  1
  Se  Se159  1  0.41798588  0.58386614  0.45262222  1
  Se  Se160  1  0.39981302  0.59153617  0.94073366  1
  Se  Se161  1  0.41613961  0.91654270  0.44924703  1
  Se  Se162  1  0.41091666  0.92062051  0.94074144  1
  Se  Se163  1  0.73999114  0.26089036  0.44232875  1
  Se  Se164  1  0.75770796  0.25415921  0.95001620  1
  Se  Se165  1  0.75730252  0.58443009  0.44589844  1
  Se  Se166  1  0.74147163  0.59206868  0.94251272  1
  Se  Se167  1  0.74570217  0.92173874  0.43797559  1
  Se  Se168  1  0.74794352  0.91637078  0.95728854  1
  Se  Se169  1  0.24221115  0.08411462  0.44488035  1
  Se  Se170  1  0.25910035  0.08697876  0.94172970  1
  Se  Se171  1  0.25561593  0.40874201  0.44241535  1
  Se  Se172  1  0.25477692  0.41319917  0.93901713  1
  Se  Se173  1  0.24837842  0.75389321  0.45030307  1
  Se  Se174  1  0.24081740  0.75620242  0.94362385  1
  Se  Se175  1  0.58235927  0.08434109  0.43673653  1
  Se  Se176  1  0.59355393  0.07038400  0.94303845  1
  Se  Se177  1  0.58073178  0.42485056  0.44904741  1
  Se  Se178  1  0.58633077  0.40295520  0.93698435  1
  Se  Se179  1  0.58712390  0.75145744  0.44548897  1
  Se  Se180  1  0.58626508  0.73870801  0.94219381  1
  Se  Se181  1  0.91785967  0.07430055  0.44140374  1
  Se  Se182  1  0.92136861  0.08358793  0.94846839  1
  Se  Se183  1  0.91426203  0.41491585  0.45479917  1
  Se  Se184  1  0.92769583  0.41550600  0.93365648  1
  Se  Se185  1  0.92395712  0.74883515  0.43659758  1
  Se  Se186  1  0.91383082  0.75637228  0.94613555  1
  Se  Se187  1  0.24365336  0.24459921  0.30228955  1
  Se  Se188  1  0.25161322  0.25307813  0.79686806  1
  Se  Se189  1  0.24456756  0.57618541  0.31478301  1
  Se  Se190  1  0.24906324  0.58214251  0.80001259  1
  Se  Se191  1  0.25340886  0.92077300  0.30241124  1
  Se  Se192  1  0.24896281  0.92208475  0.80380085  1
  Se  Se193  1  0.57248041  0.24559284  0.31192993  1
  Se  Se194  1  0.59248200  0.23403371  0.80140653  1
  Se  Se195  1  0.58350740  0.58804486  0.30445844  1
  Se  Se196  1  0.57494132  0.57239672  0.81339563  1
  Se  Se197  1  0.58689286  0.92256789  0.30259176  1
  Se  Se198  1  0.57236325  0.90649671  0.81054776  1
  Se  Se199  1  0.90859063  0.23679348  0.30629750  1
  Se  Se200  1  0.92785363  0.25306727  0.80615542  1
  Se  Se201  1  0.91975889  0.58411226  0.30550640  1
  Se  Se202  1  0.91825787  0.58933692  0.80071152  1
  Se  Se203  1  0.92414788  0.91797430  0.29903323  1
  Se  Se204  1  0.92059690  0.92253661  0.80826297  1
  Se  Se205  1  0.07986068  0.08050211  0.30448307  1
  Se  Se206  1  0.08430527  0.07968020  0.80701179  1
  Se  Se207  1  0.08575810  0.41967237  0.31908314  1
  Se  Se208  1  0.08759274  0.41766215  0.79785070  1
  Se  Se209  1  0.08521015  0.74535749  0.29689683  1
  Se  Se210  1  0.08143783  0.75202280  0.80303071  1
  Se  Se211  1  0.41414052  0.07889283  0.30025382  1
  Se  Se212  1  0.42791191  0.08832260  0.79373767  1
  Se  Se213  1  0.41410343  0.41622660  0.30229821  1
  Se  Se214  1  0.41947731  0.41146103  0.79750866  1
  Se  Se215  1  0.42257883  0.75832313  0.31573275  1
  Se  Se216  1  0.40531489  0.74731464  0.79922294  1
  Se  Se217  1  0.74643437  0.07785324  0.29524220  1
  Se  Se218  1  0.76549447  0.08667634  0.81792672  1
  Se  Se219  1  0.75278962  0.41938415  0.31280387  1
  Se  Se220  1  0.75201050  0.41384181  0.79961012  1
  Se  Se221  1  0.75385812  0.75328077  0.30070735  1
  Se  Se222  1  0.75489921  0.76047390  0.81184149  1
  Se  Se223  1  0.24995434  0.07851977  0.19132856  1
  Se  Se224  1  0.24621531  0.08217258  0.69458900  1
  Se  Se225  1  0.24621471  0.41007949  0.20363256  1
  Se  Se226  1  0.25708127  0.41308933  0.69458036  1
  Se  Se227  1  0.24448573  0.75839085  0.19499653  1
  Se  Se228  1  0.24516066  0.75343159  0.69666745  1
  Se  Se229  1  0.58395889  0.09181143  0.19581581  1
  Se  Se230  1  0.58228065  0.07936407  0.68369846  1
  Se  Se231  1  0.57411616  0.42522226  0.18690640  1
  Se  Se232  1  0.59242192  0.41509073  0.69558432  1
  Se  Se233  1  0.58805606  0.75039839  0.20010695  1
  Se  Se234  1  0.57890937  0.75540430  0.69318393  1
  Se  Se235  1  0.92186782  0.07539590  0.19364950  1
  Se  Se236  1  0.92037305  0.07814999  0.70236458  1
  Se  Se237  1  0.90682022  0.42150911  0.19515553  1
  Se  Se238  1  0.92243297  0.41802019  0.69775538  1
  Se  Se239  1  0.92340367  0.74851746  0.19368565  1
  Se  Se240  1  0.91850779  0.75050038  0.69909609  1
  Se  Se241  1  0.08263980  0.23665029  0.18591153  1
  Se  Se242  1  0.08157379  0.25144824  0.70007915  1
  Se  Se243  1  0.07891088  0.57963741  0.20392768  1
  Se  Se244  1  0.08398678  0.58561592  0.69433234  1
  Se  Se245  1  0.07674709  0.92759719  0.19232215  1
  Se  Se246  1  0.07998357  0.92237984  0.69660973  1
  Se  Se247  1  0.40754102  0.25085821  0.19805169  1
  Se  Se248  1  0.42984551  0.23788286  0.69653142  1
  Se  Se249  1  0.41969652  0.57739116  0.18971834  1
  Se  Se250  1  0.41895418  0.58441861  0.69588171  1
  Se  Se251  1  0.41739070  0.91488571  0.19890959  1
  Se  Se252  1  0.40887899  0.91967478  0.69561959  1
  Se  Se253  1  0.75612752  0.24775316  0.18768010  1
  Se  Se254  1  0.75572976  0.24812574  0.70329269  1
  Se  Se255  1  0.74712049  0.58834213  0.20077340  1
  Se  Se256  1  0.75714783  0.58109122  0.68992742  1
  Se  Se257  1  0.75332942  0.91547061  0.19465811  1
  Se  Se258  1  0.75406398  0.91293479  0.69568070  1
