# generated using pymatgen
data_In86Cu29Se144
_symmetry_space_group_name_H-M   'P 1'
_cell_length_a   17.59283781
_cell_length_b   17.59768464
_cell_length_c   23.45422428
_cell_angle_alpha   89.98455102
_cell_angle_beta   90.01076358
_cell_angle_gamma   90.00343487
_symmetry_Int_Tables_number   1
_chemical_formula_structural   In86Cu29Se144
_chemical_formula_sum   'In86 Cu29 Se144'
_cell_volume   7261.26821861
_cell_formula_units_Z   1
loop_
 _symmetry_equiv_pos_site_id
 _symmetry_equiv_pos_as_xyz
  1  'x, y, z'
loop_
 _atom_site_type_symbol
 _atom_site_label
 _atom_site_symmetry_multiplicity
 _atom_site_fract_x
 _atom_site_fract_y
 _atom_site_fract_z
 _atom_site_occupancy
  In  In0  1  -0.01935263  0.16751739  0.12354086  1
  In  In1  1  -0.02796743  0.15653539  0.62915677  1
  In  In2  1  0.00636477  0.48638418  0.12350582  1
  In  In3  1  0.00105414  0.50663147  0.61464481  1
  In  In4  1  0.00769174  0.84268697  0.12548778  1
  In  In5  1  -0.00097110  0.83821940  0.62408523  1
  In  In6  1  0.34654937  0.16686417  0.12605436  1
  In  In7  1  0.35186551  0.17153028  0.62544441  1
  In  In8  1  0.32636738  0.49447743  0.12259835  1
  In  In9  1  0.33276908  0.49569421  0.62045016  1
  In  In10  1  0.33851278  0.83360326  0.11170476  1
  In  In11  1  0.32849855  0.83258682  0.62165417  1
  In  In12  1  0.67455445  0.17089297  0.11575775  1
  In  In13  1  0.67220168  0.17011931  0.63489956  1
  In  In14  1  0.65491252  0.50415136  0.12825751  1
  In  In15  1  0.65352412  0.49156827  0.61612221  1
  In  In16  1  0.66699353  0.83827866  0.10843394  1
  In  In17  1  0.68172653  0.85277411  0.61041200  1
  In  In18  1  0.14963308  0.00282280  0.37345323  1
  In  In19  1  0.15604787  -0.00578918  0.87486603  1
  In  In20  1  0.18237904  0.33023995  0.37358023  1
  In  In21  1  0.18203752  0.32954014  0.87464337  1
  In  In22  1  0.16847180  0.66369275  0.38189030  1
  In  In23  1  0.17056380  0.66632259  0.88874350  1
  In  In24  1  0.51018894  -0.00805927  0.38264968  1
  In  In25  1  0.52346589  -0.01040024  0.88866281  1
  In  In26  1  0.50125622  0.33083918  0.37455115  1
  In  In27  1  0.50190684  0.33454192  0.87835177  1
  In  In28  1  0.51056109  0.65858597  0.39040750  1
  In  In29  1  0.49672821  0.66746278  0.88275284  1
  In  In30  1  0.83766089  -0.00515020  0.38108000  1
  In  In31  1  0.82661453  0.00155771  0.87453259  1
  In  In32  1  0.81922139  0.34003597  0.38424383  1
  In  In33  1  0.81356417  0.32490857  0.86798115  1
  In  In34  1  0.83374596  0.65974361  0.38545933  1
  In  In35  1  0.84482302  0.67488878  0.87254752  1
  In  In36  1  -0.00018967  0.15157910  0.37311284  1
  In  In37  1  -0.00778597  0.14363167  0.86631477  1
  In  In38  1  -0.00596770  0.50108484  0.38445203  1
  In  In39  1  0.00244722  0.51001282  0.87604326  1
  In  In40  1  -0.01022099  0.84221467  0.38205970  1
  In  In41  1  -0.01388183  0.85068110  0.88427615  1
  In  In42  1  0.33063310  0.18067493  0.37032125  1
  In  In43  1  0.34186274  0.18411269  0.86892497  1
  In  In44  1  0.34210961  0.49124708  0.37968690  1
  In  In45  1  0.34812801  0.49060925  0.88737088  1
  In  In46  1  0.34130659  0.82325250  0.38065513  1
  In  In47  1  0.33325783  0.82466351  0.88663911  1
  In  In48  1  0.65735520  0.17641520  0.38206030  1
  In  In49  1  0.66383630  0.16492196  0.87936156  1
  In  In50  1  0.68104384  0.48145204  0.38738521  1
  In  In51  1  0.66242203  0.48508726  0.87148635  1
  In  In52  1  0.67212345  0.82427047  0.39280477  1
  In  In53  1  0.67265861  0.84454294  0.87313753  1
  In  In54  1  0.16740279  -0.00669754  0.12695183  1
  In  In55  1  0.16328514  -0.01438016  0.62703512  1
  In  In56  1  0.16501794  0.34622542  0.12471169  1
  In  In57  1  0.16776827  0.34641794  0.62492042  1
  In  In58  1  0.17003992  0.66618671  0.11888878  1
  In  In59  1  0.16462062  0.66768296  0.61923103  1
  In  In60  1  0.50854290  0.00382733  0.10746984  1
  In  In61  1  0.51268226  0.01918342  0.61955601  1
  In  In62  1  0.50073758  0.33267858  0.12827360  1
  In  In63  1  0.50352383  0.33082826  0.62804568  1
  In  In64  1  0.49714282  0.66559197  0.11043409  1
  In  In65  1  0.51169710  0.67071214  0.61159687  1
  In  In66  1  0.83523906  0.00761954  0.11779297  1
  In  In67  1  0.83174571  -0.00125419  0.63756049  1
  In  In68  1  0.83723291  0.32217888  0.12576702  1
  In  In69  1  0.81540362  0.31483397  0.61436392  1
  In  In70  1  0.82058712  0.67061276  0.12578475  1
  In  In71  1  0.83104743  0.67812517  0.61307512  1
  In  In72  1  0.33554659  0.00358647  0.24501883  1
  In  In73  1  0.66737065  0.67115280  0.74771978  1
  In  In74  1  0.33909508  0.66196010  0.75445230  1
  In  In75  1  -0.00264344  0.32789891  0.25188945  1
  In  In76  1  -0.00304680  0.33192485  0.74183458  1
  In  In77  1  0.33588606  0.66920159  0.24092940  1
  In  In78  1  0.16498863  0.16580317  0.49353737  1
  In  In79  1  -0.00153761  0.66463025  0.26361690  1
  In  In80  1  0.16412256  0.16723944  -0.00653790  1
  In  In81  1  0.00262457  0.67151847  0.74359509  1
  In  In82  1  0.33799569  0.00563628  0.74998077  1
  In  In83  1  0.66778232  -0.00057950  0.24468870  1
  In  In84  1  0.66664471  0.66321640  0.25504200  1
  In  In85  1  0.83482270  0.49956639  -0.00214563  1
  Cu  Cu86  1  0.50535956  0.83144730  0.24489642  1
  Cu  Cu87  1  0.15887333  0.83172750  0.75553583  1
  Cu  Cu88  1  0.00327388  0.66912080  0.00108493  1
  Cu  Cu89  1  0.33961367  0.33268518  0.49852290  1
  Cu  Cu90  1  0.50790401  0.84525494  0.74901480  1
  Cu  Cu91  1  0.00105739  0.67239672  0.50000292  1
  Cu  Cu92  1  0.82663275  0.16360261  0.24816830  1
  Cu  Cu93  1  0.49886521  0.49186599  0.74863504  1
  Cu  Cu94  1  0.33609292  0.33755204  0.00087280  1
  Cu  Cu95  1  0.50811229  0.17167170  0.75337463  1
  Cu  Cu96  1  -0.00379113  -0.00163624  0.50366954  1
  Cu  Cu97  1  -0.00245862  0.32877410  -0.00098524  1
  Cu  Cu98  1  0.16461344  0.84579793  0.25119800  1
  Cu  Cu99  1  0.84083464  0.83800096  0.25400291  1
  Cu  Cu100  1  0.33211971  0.00391918  -0.00157196  1
  Cu  Cu101  1  0.50041907  0.17172638  0.25220266  1
  Cu  Cu102  1  0.32854904  0.66314333  0.50148305  1
  Cu  Cu103  1  0.66187464  0.33429777  -0.00116357  1
  Cu  Cu104  1  0.66207913  0.32553004  0.50384037  1
  Cu  Cu105  1  0.16750412  0.17030290  0.74947230  1
  Cu  Cu106  1  0.66852319  0.66903555  -0.00427490  1
  Cu  Cu107  1  0.33349256  -0.00150349  0.50481075  1
  Cu  Cu108  1  0.49915229  0.48671011  0.25234000  1
  Cu  Cu109  1  0.17823420  0.49205107  0.75219804  1
  Cu  Cu110  1  -0.00352754  -0.00346511  -0.00231516  1
  Cu  Cu111  1  -0.00309460  0.33544642  0.50419312  1
  Cu  Cu112  1  0.82697558  0.49536562  0.73972423  1
  Cu  Cu113  1  0.67080238  0.00789019  0.50590825  1
  Cu  Cu114  1  0.16938477  0.49784146  0.24987736  1
  Se  Se115  1  0.07626915  0.08080655  0.05799871  1
  Se  Se116  1  0.07895213  0.08071779  0.56170888  1
  Se  Se117  1  0.08329997  0.41396473  0.04689813  1
  Se  Se118  1  0.08557243  0.41860713  0.55104715  1
  Se  Se119  1  0.08257363  0.75245967  0.05769528  1
  Se  Se120  1  0.08268625  0.75526712  0.55551406  1
  Se  Se121  1  0.41544724  0.08895873  0.04900008  1
  Se  Se122  1  0.41753124  0.08770842  0.55006761  1
  Se  Se123  1  0.41900151  0.41669319  0.05841506  1
  Se  Se124  1  0.42121740  0.41300840  0.55660583  1
  Se  Se125  1  0.42547991  0.75777899  0.04560226  1
  Se  Se126  1  0.40983373  0.74803580  0.55513871  1
  Se  Se127  1  0.72520024  0.05860471  0.05695466  1
  Se  Se128  1  0.75308365  0.08380800  0.56561149  1
  Se  Se129  1  0.74536927  0.41303954  0.06034451  1
  Se  Se130  1  0.74784787  0.41510613  0.55112700  1
  Se  Se131  1  0.75512025  0.74968556  0.04800215  1
  Se  Se132  1  0.73436360  0.74432067  0.54798278  1
  Se  Se133  1  0.25251780  0.25397569  0.05833005  1
  Se  Se134  1  0.25446954  0.25352616  0.55786288  1
  Se  Se135  1  0.26127272  0.59093217  0.05611069  1
  Se  Se136  1  0.24597844  0.57934208  0.55512295  1
  Se  Se137  1  0.24927403  0.92268575  0.05280951  1
  Se  Se138  1  0.24615868  0.91519190  0.55265465  1
  Se  Se139  1  0.58065243  0.25222308  0.05557586  1
  Se  Se140  1  0.58372360  0.24252733  0.56141077  1
  Se  Se141  1  0.58927628  0.58248461  0.04910972  1
  Se  Se142  1  0.58050819  0.57776599  0.54570504  1
  Se  Se143  1  0.57088182  0.90427824  0.04346497  1
  Se  Se144  1  0.57839754  0.92314828  0.55123835  1
  Se  Se145  1  0.90949057  0.24698435  0.04711279  1
  Se  Se146  1  0.91639232  0.24491193  0.55151963  1
  Se  Se147  1  0.92313184  0.58821619  0.06273197  1
  Se  Se148  1  0.91404225  0.58831603  0.54992715  1
  Se  Se149  1  0.91688486  0.91470794  0.05621622  1
  Se  Se150  1  0.91080799  0.92036061  0.55989915  1
  Se  Se151  1  0.07391939  0.25949838  0.43719116  1
  Se  Se152  1  0.07230991  0.25214861  0.93081534  1
  Se  Se153  1  0.08193347  0.58380816  0.44836544  1
  Se  Se154  1  0.08288231  0.57925555  0.95140988  1
  Se  Se155  1  0.08194442  0.91873114  0.44874058  1
  Se  Se156  1  0.08740066  0.91383648  0.95151471  1
  Se  Se157  1  0.41770229  0.24634019  0.44410697  1
  Se  Se158  1  0.41745190  0.25232570  0.94827133  1
  Se  Se159  1  0.41371994  0.57996267  0.44943910  1
  Se  Se160  1  0.40846913  0.59414553  0.94975009  1
  Se  Se161  1  0.41461080  0.91731285  0.44607731  1
  Se  Se162  1  0.41455953  0.92082908  0.94395989  1
  Se  Se163  1  0.75088593  0.24422748  0.45186303  1
  Se  Se164  1  0.74864485  0.25093632  0.94922784  1
  Se  Se165  1  0.72053154  0.60415108  0.44014018  1
  Se  Se166  1  0.74690081  0.58779765  0.93335720  1
  Se  Se167  1  0.75140190  0.92052230  0.45180223  1
  Se  Se168  1  0.76157617  0.90859222  0.94596335  1
  Se  Se169  1  0.25797228  0.07476881  0.43671177  1
  Se  Se170  1  0.25744747  0.08155086  0.93221124  1
  Se  Se171  1  0.25125014  0.41463977  0.44771163  1
  Se  Se172  1  0.24720555  0.41613440  0.94852406  1
  Se  Se173  1  0.24887644  0.75037095  0.44786789  1
  Se  Se174  1  0.24451641  0.75496816  0.95514072  1
  Se  Se175  1  0.58380717  0.08397255  0.44902116  1
  Se  Se176  1  0.57069508  0.09957476  0.95055967  1
  Se  Se177  1  0.58076368  0.40960770  0.44828856  1
  Se  Se178  1  0.58007717  0.42225303  0.94932345  1
  Se  Se179  1  0.55818470  0.77283380  0.44799905  1
  Se  Se180  1  0.59100377  0.75249277  0.93812749  1
  Se  Se181  1  0.91661811  0.08383587  0.44883674  1
  Se  Se182  1  0.91407310  0.08249965  0.94681452  1
  Se  Se183  1  0.91083547  0.41756954  0.45075675  1
  Se  Se184  1  0.91887619  0.40797797  0.93378266  1
  Se  Se185  1  0.91293009  0.75233062  0.44813362  1
  Se  Se186  1  0.91729376  0.75035719  0.94916426  1
  Se  Se187  1  0.24156109  0.24383669  0.29824382  1
  Se  Se188  1  0.25370407  0.25417255  0.79652658  1
  Se  Se189  1  0.25017220  0.58112154  0.30728903  1
  Se  Se190  1  0.24763555  0.57614409  0.81517503  1
  Se  Se191  1  0.25344365  0.91387611  0.31236614  1
  Se  Se192  1  0.25080042  0.90851246  0.80909577  1
  Se  Se193  1  0.58746169  0.25267269  0.30355156  1
  Se  Se194  1  0.58738690  0.25633309  0.80922757  1
  Se  Se195  1  0.57508936  0.57251667  0.31138914  1
  Se  Se196  1  0.57474471  0.57946446  0.80713865  1
  Se  Se197  1  0.58774735  0.90365818  0.30827164  1
  Se  Se198  1  0.59101797  0.92606082  0.80241621  1
  Se  Se199  1  0.90481491  0.24237808  0.31277232  1
  Se  Se200  1  0.91159421  0.24403091  0.80510087  1
  Se  Se201  1  0.90186584  0.56919146  0.30932534  1
  Se  Se202  1  0.90890220  0.57386777  0.79951348  1
  Se  Se203  1  0.92107981  0.92434039  0.30510335  1
  Se  Se204  1  0.92330060  0.92909467  0.80635627  1
  Se  Se205  1  0.08972938  0.09155277  0.29989585  1
  Se  Se206  1  0.09055203  0.07955976  0.79895196  1
  Se  Se207  1  0.08522106  0.42380805  0.31123082  1
  Se  Se208  1  0.08656549  0.41869257  0.80824785  1
  Se  Se209  1  0.09255659  0.76121169  0.31324241  1
  Se  Se210  1  0.08320168  0.75105524  0.81754526  1
  Se  Se211  1  0.42832066  0.08346291  0.31148581  1
  Se  Se212  1  0.42999098  0.08671009  0.81308601  1
  Se  Se213  1  0.41148246  0.40833009  0.30483789  1
  Se  Se214  1  0.41586707  0.41528317  0.80741994  1
  Se  Se215  1  0.42993010  0.74818161  0.30595622  1
  Se  Se216  1  0.42709079  0.76327798  0.80679620  1
  Se  Se217  1  0.74981563  0.08576254  0.31286808  1
  Se  Se218  1  0.74908729  0.09092713  0.80829579  1
  Se  Se219  1  0.74753154  0.41249170  0.30542728  1
  Se  Se220  1  0.74601953  0.41594717  0.79658616  1
  Se  Se221  1  0.75891719  0.75772301  0.31156274  1
  Se  Se222  1  0.76227613  0.75866172  0.80366623  1
  Se  Se223  1  0.24311544  0.09447475  0.18925912  1
  Se  Se224  1  0.24671051  0.09036290  0.68571993  1
  Se  Se225  1  0.25256533  0.41428068  0.19821518  1
  Se  Se226  1  0.25965075  0.41270403  0.69622365  1
  Se  Se227  1  0.24292212  0.76646487  0.18972909  1
  Se  Se228  1  0.24182979  0.75186222  0.69734740  1
  Se  Se229  1  0.57406117  0.08906693  0.18883514  1
  Se  Se230  1  0.58660537  0.08351439  0.70119278  1
  Se  Se231  1  0.58823179  0.41171745  0.19804937  1
  Se  Se232  1  0.58826110  0.41423773  0.69667972  1
  Se  Se233  1  0.58443003  0.75024839  0.18495726  1
  Se  Se234  1  0.57864351  0.75999546  0.68720941  1
  Se  Se235  1  0.91117287  0.08060726  0.19641941  1
  Se  Se236  1  0.92727988  0.06649170  0.70721213  1
  Se  Se237  1  0.90899795  0.42263138  0.19332348  1
  Se  Se238  1  0.91061716  0.42114723  0.67927233  1
  Se  Se239  1  0.91486921  0.75094899  0.19431202  1
  Se  Se240  1  0.90445187  0.75857027  0.69237928  1
  Se  Se241  1  0.08320559  0.24554595  0.18423513  1
  Se  Se242  1  0.08710973  0.24022550  0.68218402  1
  Se  Se243  1  0.08669737  0.57988309  0.19382486  1
  Se  Se244  1  0.09538261  0.57195366  0.69367666  1
  Se  Se245  1  0.07840056  0.92664079  0.20050196  1
  Se  Se246  1  0.07920251  0.91408840  0.69992770  1
  Se  Se247  1  0.41509482  0.25288034  0.19929243  1
  Se  Se248  1  0.42004497  0.25223217  0.70159101  1
  Se  Se249  1  0.43035448  0.57517675  0.18978324  1
  Se  Se250  1  0.42797272  0.58034040  0.68813217  1
  Se  Se251  1  0.42753508  0.91323618  0.18601374  1
  Se  Se252  1  0.42310370  0.91640945  0.68612336  1
  Se  Se253  1  0.74708914  0.24788267  0.19395774  1
  Se  Se254  1  0.75913974  0.25089841  0.70187514  1
  Se  Se255  1  0.75803065  0.57279420  0.19566103  1
  Se  Se256  1  0.75123111  0.58147826  0.68234615  1
  Se  Se257  1  0.75621598  0.90437027  0.18850313  1
  Se  Se258  1  0.74183575  0.91198058  0.69808193  1
