# generated using pymatgen
data_In86Cu29Se144
_symmetry_space_group_name_H-M   'P 1'
_cell_length_a   17.68640138
_cell_length_b   17.68211637
_cell_length_c   23.54843211
_cell_angle_alpha   90.01551162
_cell_angle_beta   90.04717736
_cell_angle_gamma   89.99900791
_symmetry_Int_Tables_number   1
_chemical_formula_structural   In86Cu29Se144
_chemical_formula_sum   'In86 Cu29 Se144'
_cell_volume   7364.36922115
_cell_formula_units_Z   1
loop_
 _symmetry_equiv_pos_site_id
 _symmetry_equiv_pos_as_xyz
  1  'x, y, z'
loop_
 _atom_site_type_symbol
 _atom_site_label
 _atom_site_symmetry_multiplicity
 _atom_site_fract_x
 _atom_site_fract_y
 _atom_site_fract_z
 _atom_site_occupancy
  In  In0  1  -0.00014574  0.17532225  0.12926366  1
  In  In1  1  -0.00695755  0.16034608  0.61785258  1
  In  In2  1  0.00151269  0.50139570  0.12908338  1
  In  In3  1  0.00264398  0.48800640  0.61812185  1
  In  In4  1  0.00507709  0.83071092  0.12456657  1
  In  In5  1  0.01633853  0.83685823  0.62860557  1
  In  In6  1  0.33327819  0.15918835  0.11685170  1
  In  In7  1  0.31681155  0.16851752  0.62512112  1
  In  In8  1  0.32717577  0.49709838  0.13063893  1
  In  In9  1  0.33505426  0.50476518  0.61531246  1
  In  In10  1  0.31593762  0.93547504  0.15586764  1
  In  In11  1  0.30819581  0.84909080  0.64401618  1
  In  In12  1  0.66453515  0.17062894  0.12600432  1
  In  In13  1  0.66911843  0.15166578  0.62684688  1
  In  In14  1  0.66417266  0.48729521  0.13230023  1
  In  In15  1  0.66014775  0.50919880  0.62423538  1
  In  In16  1  0.67167165  0.83934459  0.12809173  1
  In  In17  1  0.66398405  0.83806293  0.63593688  1
  In  In18  1  0.16683765  0.00139246  0.37557491  1
  In  In19  1  0.17946152  -0.00032136  0.86592289  1
  In  In20  1  0.16948075  0.33047199  0.36288809  1
  In  In21  1  0.16029424  0.32148571  0.88263475  1
  In  In22  1  0.16088437  0.67853318  0.38040025  1
  In  In23  1  0.17926627  0.66644324  0.86772176  1
  In  In24  1  0.50104348  -0.00025259  0.36418795  1
  In  In25  1  0.50845168  0.00150512  0.87095784  1
  In  In26  1  0.50060169  0.34291494  0.36463878  1
  In  In27  1  0.49976469  0.31750832  0.88189518  1
  In  In28  1  0.48713567  0.66512223  0.37878038  1
  In  In29  1  0.50652942  0.67055654  0.86962430  1
  In  In30  1  0.84855904  0.01497871  0.36573920  1
  In  In31  1  0.85005948  0.01499860  0.86203217  1
  In  In32  1  0.82119799  0.32342828  0.36646317  1
  In  In33  1  0.85137793  0.31575304  0.89280001  1
  In  In34  1  0.84048095  0.65743914  0.37645036  1
  In  In35  1  0.82840285  0.67440583  0.87728880  1
  In  In36  1  0.00318283  0.16381352  0.36755061  1
  In  In37  1  0.03519908  0.10158360  0.93119592  1
  In  In38  1  0.00825456  0.50719048  0.36733529  1
  In  In39  1  0.00136838  0.48405558  0.88148408  1
  In  In40  1  0.01051953  0.84988415  0.36696563  1
  In  In41  1  0.01017646  0.85692928  0.86459254  1
  In  In42  1  0.31689094  0.15789057  0.36062999  1
  In  In43  1  0.35280977  0.15741762  0.89029804  1
  In  In44  1  0.33995428  0.49246104  0.37542919  1
  In  In45  1  0.32590115  0.50166369  0.87480989  1
  In  In46  1  0.32760337  0.82922237  0.37603001  1
  In  In47  1  0.32351538  0.82929096  0.86489649  1
  In  In48  1  0.67142397  0.17106271  0.36842264  1
  In  In49  1  0.67927212  0.15417400  0.88592551  1
  In  In50  1  0.66149158  0.48706013  0.37345951  1
  In  In51  1  0.67261773  0.51179234  0.87812113  1
  In  In52  1  0.66979709  0.85028919  0.37372851  1
  In  In53  1  0.67949545  0.83580950  0.86002231  1
  In  In54  1  0.14936493  0.00094893  0.11400914  1
  In  In55  1  0.15947382  0.00454972  0.62653279  1
  In  In56  1  0.19881546  0.28811179  0.16911759  1
  In  In57  1  0.15949896  0.32656571  0.61044194  1
  In  In58  1  0.16331812  0.67489687  0.12816369  1
  In  In59  1  0.17793603  0.67753164  0.61432649  1
  In  In60  1  0.49435170  0.01151410  0.13278358  1
  In  In61  1  0.50009051  -0.00606819  0.62946394  1
  In  In62  1  0.50260698  0.32922372  0.13263891  1
  In  In63  1  0.48385323  0.33042490  0.61693086  1
  In  In64  1  0.49249109  0.67475436  0.12083956  1
  In  In65  1  0.49480923  0.66342537  0.62604327  1
  In  In66  1  0.83039875  0.00687632  0.12351827  1
  In  In67  1  0.82884207  0.00418540  0.63040188  1
  In  In68  1  0.83160010  0.33547057  0.12941671  1
  In  In69  1  0.84532697  0.32691910  0.61958017  1
  In  In70  1  0.85101697  0.66993934  0.12153541  1
  In  In71  1  0.82525785  0.65799283  0.63123354  1
  In  In72  1  -0.00265457  0.66733594  0.74566124  1
  In  In73  1  0.50326243  0.49811528  0.01119126  1
  In  In74  1  0.49284458  0.82902212  0.50492218  1
  In  In75  1  0.33138015  0.33244034  0.75231183  1
  In  In76  1  0.49365426  0.17017845  0.49077977  1
  In  In77  1  0.32935684  0.67446955  0.24830490  1
  In  In78  1  0.66910392  0.33859361  0.75643498  1
  In  In79  1  0.49667658  0.83134138  0.00044700  1
  In  In80  1  0.16253322  0.49056867  0.00589428  1
  In  In81  1  0.84400133  0.84157302  -0.01061669  1
  In  In82  1  -0.00158375  0.32412860  0.75524140  1
  In  In83  1  0.83924349  0.83340130  0.51060488  1
  In  In84  1  0.67389253  0.66683744  0.25985609  1
  In  In85  1  0.83143267  0.49217228  0.49946741  1
  Cu  Cu86  1  0.50131614  0.15570083  0.75320083  1
  Cu  Cu87  1  0.82933006  0.50044635  0.75550116  1
  Cu  Cu88  1  0.67729858  0.66874543  -0.00247766  1
  Cu  Cu89  1  0.67751581  0.00645175  0.50112819  1
  Cu  Cu90  1  0.49278817  0.82800659  0.74866201  1
  Cu  Cu91  1  0.50000466  0.16809982  0.25041406  1
  Cu  Cu92  1  0.66483098  0.00834052  -0.00023702  1
  Cu  Cu93  1  0.83647819  0.50343576  0.25098967  1
  Cu  Cu94  1  0.00408290  0.33043126  0.48839088  1
  Cu  Cu95  1  0.16771755  0.83848716  0.24972512  1
  Cu  Cu96  1  0.00605153  0.66534278  0.00223422  1
  Cu  Cu97  1  0.66467177  0.33480944  0.00977068  1
  Cu  Cu98  1  0.17149235  0.50136432  0.74330027  1
  Cu  Cu99  1  0.33298313  0.67057829  -0.00618796  1
  Cu  Cu100  1  0.32810167  -0.00733021  0.00083124  1
  Cu  Cu101  1  0.65490738  0.66426423  0.50252860  1
  Cu  Cu102  1  0.00926190  0.00627752  0.49378748  1
  Cu  Cu103  1  0.00321341  0.66985725  0.49792736  1
  Cu  Cu104  1  0.32790301  0.00130997  0.50206815  1
  Cu  Cu105  1  0.32727469  0.66515328  0.50030520  1
  Cu  Cu106  1  0.83328999  0.16416866  0.75160358  1
  Cu  Cu107  1  0.84012932  0.83856594  0.24288604  1
  Cu  Cu108  1  0.32466027  0.33489168  0.49121276  1
  Cu  Cu109  1  0.16173804  0.16049444  0.75656134  1
  Cu  Cu110  1  0.66298611  0.32721040  0.49213460  1
  Cu  Cu111  1  -0.00088395  0.33272753  0.01173242  1
  Cu  Cu112  1  0.83025241  0.16593845  0.24480681  1
  Cu  Cu113  1  0.50006612  0.50062253  0.74857464  1
  Cu  Cu114  1  0.16460527  0.50313868  0.25075967  1
  Se  Se115  1  0.07964682  0.09953091  0.05273353  1
  Se  Se116  1  0.08807690  0.08992011  0.55223018  1
  Se  Se117  1  0.08485842  0.40320631  0.07129656  1
  Se  Se118  1  0.08214451  0.41587418  0.54393305  1
  Se  Se119  1  0.08689044  0.75137873  0.05270555  1
  Se  Se120  1  0.08263587  0.75397574  0.55251761  1
  Se  Se121  1  0.41823347  0.07341215  0.05072171  1
  Se  Se122  1  0.41313466  0.07988312  0.55945957  1
  Se  Se123  1  0.40666011  0.41007835  0.06192947  1
  Se  Se124  1  0.41039313  0.41393490  0.54695108  1
  Se  Se125  1  0.39896147  0.75307222  0.05944775  1
  Se  Se126  1  0.39855580  0.74864580  0.56500915  1
  Se  Se127  1  0.74675086  0.08818166  0.05562974  1
  Se  Se128  1  0.75951063  0.08850671  0.55432948  1
  Se  Se129  1  0.74859444  0.41976017  0.05888710  1
  Se  Se130  1  0.73811664  0.40486945  0.56064452  1
  Se  Se131  1  0.75457063  0.75301992  0.05659086  1
  Se  Se132  1  0.73791965  0.74147818  0.56059263  1
  Se  Se133  1  0.23754455  0.24918353  0.06765637  1
  Se  Se134  1  0.25048794  0.24731761  0.54707063  1
  Se  Se135  1  0.25542899  0.58970347  0.05713170  1
  Se  Se136  1  0.24212179  0.57745562  0.54895051  1
  Se  Se137  1  0.24845729  0.91412455  0.05929590  1
  Se  Se138  1  0.24778153  0.92123159  0.55964202  1
  Se  Se139  1  0.57819331  0.25147441  0.05747158  1
  Se  Se140  1  0.58759332  0.24913324  0.55908722  1
  Se  Se141  1  0.59633386  0.59591287  0.06146723  1
  Se  Se142  1  0.57292906  0.57997023  0.55346841  1
  Se  Se143  1  0.58922890  0.92216333  0.05725700  1
  Se  Se144  1  0.59330358  0.92270947  0.55507473  1
  Se  Se145  1  0.90996232  0.25101661  0.05987075  1
  Se  Se146  1  0.92165485  0.25126991  0.54667735  1
  Se  Se147  1  0.92425448  0.58125030  0.05331694  1
  Se  Se148  1  0.92035183  0.59027245  0.55659504  1
  Se  Se149  1  0.92527768  0.92540387  0.05732315  1
  Se  Se150  1  0.93090813  0.93018409  0.56021227  1
  Se  Se151  1  0.08701958  0.24978738  0.43407514  1
  Se  Se152  1  0.05936212  0.25342235  0.94098107  1
  Se  Se153  1  0.08146642  0.58492505  0.44354514  1
  Se  Se154  1  0.08485997  0.58586940  0.93844296  1
  Se  Se155  1  0.08825911  0.91510887  0.44645448  1
  Se  Se156  1  0.07734879  0.94012214  0.93856132  1
  Se  Se157  1  0.40440300  0.25544554  0.42939181  1
  Se  Se158  1  0.40975283  0.26070356  0.95436378  1
  Se  Se159  1  0.41085364  0.58255947  0.44790277  1
  Se  Se160  1  0.41716626  0.58711335  0.94225009  1
  Se  Se161  1  0.41330725  0.92571814  0.44269949  1
  Se  Se162  1  0.40932143  0.91793253  0.93592161  1
  Se  Se163  1  0.75000927  0.24567866  0.44434248  1
  Se  Se164  1  0.74379203  0.25331864  0.95114196  1
  Se  Se165  1  0.73953753  0.58788081  0.44332905  1
  Se  Se166  1  0.76064487  0.58335913  0.94886636  1
  Se  Se167  1  0.75929855  0.92528547  0.44401216  1
  Se  Se168  1  0.73981305  0.92360070  0.93901379  1
  Se  Se169  1  0.25228363  0.08465390  0.44358616  1
  Se  Se170  1  0.25234641  0.07891163  0.94452122  1
  Se  Se171  1  0.24336550  0.41675394  0.43624941  1
  Se  Se172  1  0.25664693  0.40689214  0.94326163  1
  Se  Se173  1  0.24874724  0.75487183  0.44952922  1
  Se  Se174  1  0.24784566  0.75140434  0.94137977  1
  Se  Se175  1  0.58910024  0.07585061  0.44057090  1
  Se  Se176  1  0.57605432  0.08591689  0.94654311  1
  Se  Se177  1  0.57824739  0.41254714  0.44513774  1
  Se  Se178  1  0.59047290  0.41340602  0.94232799  1
  Se  Se179  1  0.58865637  0.75011519  0.43912567  1
  Se  Se180  1  0.59625717  0.74922018  0.94007519  1
  Se  Se181  1  0.92172442  0.08739973  0.44372916  1
  Se  Se182  1  0.89087639  0.08994171  0.94955408  1
  Se  Se183  1  0.91828399  0.41154335  0.43276958  1
  Se  Se184  1  0.91767822  0.41772906  0.95602795  1
  Se  Se185  1  0.92290078  0.75090980  0.43986086  1
  Se  Se186  1  0.93616846  0.74641984  0.93545519  1
  Se  Se187  1  0.24228516  0.24372510  0.29016028  1
  Se  Se188  1  0.24589617  0.24133079  0.81277302  1
  Se  Se189  1  0.24389712  0.58538174  0.31181025  1
  Se  Se190  1  0.25545274  0.57989410  0.79833058  1
  Se  Se191  1  0.25211908  0.91560718  0.30754617  1
  Se  Se192  1  0.24820441  0.91290669  0.79469463  1
  Se  Se193  1  0.58298307  0.25118265  0.30379630  1
  Se  Se194  1  0.58287685  0.23890630  0.80968531  1
  Se  Se195  1  0.57452650  0.58002766  0.31146255  1
  Se  Se196  1  0.58411099  0.57805503  0.80536320  1
  Se  Se197  1  0.58466153  0.91430331  0.30151295  1
  Se  Se198  1  0.57855549  0.91020786  0.80214227  1
  Se  Se199  1  0.91186552  0.24600128  0.30265672  1
  Se  Se200  1  0.91647154  0.23304799  0.81494070  1
  Se  Se201  1  0.92005395  0.58881047  0.30101870  1
  Se  Se202  1  0.91850494  0.57371209  0.81257045  1
  Se  Se203  1  0.92046117  0.92216269  0.29909569  1
  Se  Se204  1  0.88775877  0.89100145  0.81256141  1
  Se  Se205  1  0.07978939  0.07115737  0.30413413  1
  Se  Se206  1  0.07946715  0.09332038  0.82218030  1
  Se  Se207  1  0.08074628  0.41698517  0.29985966  1
  Se  Se208  1  0.09594004  0.42030589  0.80584521  1
  Se  Se209  1  0.08587366  0.75405971  0.30367469  1
  Se  Se210  1  0.08899099  0.75397796  0.80461505  1
  Se  Se211  1  0.41507766  0.08200087  0.29981048  1
  Se  Se212  1  0.41378437  0.08108227  0.80803721  1
  Se  Se213  1  0.41257716  0.41978103  0.29815995  1
  Se  Se214  1  0.42687041  0.41902757  0.81247350  1
  Se  Se215  1  0.42647192  0.76114071  0.30710080  1
  Se  Se216  1  0.41471841  0.74397538  0.80429796  1
  Se  Se217  1  0.74913980  0.08269697  0.30164725  1
  Se  Se218  1  0.74496194  0.08396258  0.80263629  1
  Se  Se219  1  0.75002979  0.42109818  0.30192182  1
  Se  Se220  1  0.76469504  0.41471554  0.82034188  1
  Se  Se221  1  0.76737256  0.76294276  0.31271887  1
  Se  Se222  1  0.74459543  0.73202004  0.80028533  1
  Se  Se223  1  0.25345620  0.06564300  0.18471771  1
  Se  Se224  1  0.24557321  0.08556579  0.69717797  1
  Se  Se225  1  0.25255426  0.41961173  0.20460639  1
  Se  Se226  1  0.24283103  0.41285286  0.68419312  1
  Se  Se227  1  0.25180201  0.76912980  0.18552194  1
  Se  Se228  1  0.25039305  0.73597893  0.69740579  1
  Se  Se229  1  0.58577876  0.08642942  0.19744212  1
  Se  Se230  1  0.58414906  0.07747017  0.69625224  1
  Se  Se231  1  0.56900106  0.42628210  0.19894028  1
  Se  Se232  1  0.57255047  0.41372386  0.68903573  1
  Se  Se233  1  0.58723391  0.74736904  0.19105436  1
  Se  Se234  1  0.57677715  0.74778586  0.69330645  1
  Se  Se235  1  0.91564727  0.08463834  0.19272126  1
  Se  Se236  1  0.91866805  0.08667056  0.69500391  1
  Se  Se237  1  0.91601239  0.41994493  0.19627611  1
  Se  Se238  1  0.90941994  0.42207138  0.69453139  1
  Se  Se239  1  0.92235679  0.75073295  0.19544358  1
  Se  Se240  1  0.90864752  0.75741085  0.68585897  1
  Se  Se241  1  0.06538801  0.26112070  0.20497039  1
  Se  Se242  1  0.09007495  0.24236491  0.69075604  1
  Se  Se243  1  0.08637650  0.58746418  0.19482478  1
  Se  Se244  1  0.08582808  0.57571610  0.68453735  1
  Se  Se245  1  0.08312413  0.91781239  0.19262064  1
  Se  Se246  1  0.08036729  0.92588928  0.69919286  1
  Se  Se247  1  0.41465383  0.23901780  0.19046013  1
  Se  Se248  1  0.42281026  0.23793735  0.69387065  1
  Se  Se249  1  0.42227629  0.58276887  0.19177108  1
  Se  Se250  1  0.41387154  0.57506542  0.69241166  1
  Se  Se251  1  0.44676547  0.88753157  0.18054822  1
  Se  Se252  1  0.41475977  0.91910467  0.69913919  1
  Se  Se253  1  0.74573031  0.25300210  0.19631933  1
  Se  Se254  1  0.75709439  0.24852709  0.69214734  1
  Se  Se255  1  0.75838985  0.58463279  0.18967789  1
  Se  Se256  1  0.74414812  0.57624599  0.69988595  1
  Se  Se257  1  0.75318739  0.92101148  0.19492971  1
  Se  Se258  1  0.75172251  0.91824037  0.69717953  1
