# generated using pymatgen
data_In86Cu29Se144
_symmetry_space_group_name_H-M   'P 1'
_cell_length_a   17.61396777
_cell_length_b   17.61072274
_cell_length_c   23.47582079
_cell_angle_alpha   90.02667784
_cell_angle_beta   89.99371900
_cell_angle_gamma   89.98763918
_symmetry_Int_Tables_number   1
_chemical_formula_structural   In86Cu29Se144
_chemical_formula_sum   'In86 Cu29 Se144'
_cell_volume   7282.07425143
_cell_formula_units_Z   1
loop_
 _symmetry_equiv_pos_site_id
 _symmetry_equiv_pos_as_xyz
  1  'x, y, z'
loop_
 _atom_site_type_symbol
 _atom_site_label
 _atom_site_symmetry_multiplicity
 _atom_site_fract_x
 _atom_site_fract_y
 _atom_site_fract_z
 _atom_site_occupancy
  In  In0  1  0.01365989  0.16487825  0.12477887  1
  In  In1  1  -0.00542018  0.17698195  0.62962946  1
  In  In2  1  -0.00909952  0.49708367  0.12408964  1
  In  In3  1  0.00096757  0.49820472  0.62520163  1
  In  In4  1  0.00132597  0.82429392  0.12012654  1
  In  In5  1  0.00051164  0.83242244  0.62944633  1
  In  In6  1  0.31378548  0.17638542  0.13034181  1
  In  In7  1  0.33407921  0.17046384  0.62192112  1
  In  In8  1  0.33460484  0.48421689  0.12616087  1
  In  In9  1  0.33527530  0.49839617  0.62660047  1
  In  In10  1  0.33063209  0.85890587  0.12441405  1
  In  In11  1  0.32241487  0.83986627  0.62908325  1
  In  In12  1  0.64428491  0.16519581  0.13704450  1
  In  In13  1  0.67548452  0.17838637  0.61810685  1
  In  In14  1  0.66787308  0.49661426  0.11943103  1
  In  In15  1  0.65534496  0.48703985  0.61649397  1
  In  In16  1  0.65961248  0.84348609  0.13627618  1
  In  In17  1  0.67195821  0.82614067  0.62179049  1
  In  In18  1  0.16460032  -0.00161876  0.37411146  1
  In  In19  1  0.16783749  0.00372194  0.87281845  1
  In  In20  1  0.18137575  0.33850463  0.36754509  1
  In  In21  1  0.16231990  0.32477356  0.86658329  1
  In  In22  1  0.17060033  0.66411217  0.38465707  1
  In  In23  1  0.17210510  0.67533328  0.86577275  1
  In  In24  1  0.51791049  0.01214604  0.35916752  1
  In  In25  1  0.49367763  0.01339700  0.87428836  1
  In  In26  1  0.49747912  0.32923706  0.37832601  1
  In  In27  1  0.50723432  0.33967968  0.86775699  1
  In  In28  1  0.48999921  0.65578678  0.37862325  1
  In  In29  1  0.48528846  0.66444852  0.87255351  1
  In  In30  1  0.83065906  0.01162744  0.38660580  1
  In  In31  1  0.83761508  -0.01367099  0.87240706  1
  In  In32  1  0.83528417  0.33111938  0.38155020  1
  In  In33  1  0.84314584  0.34535963  0.86427757  1
  In  In34  1  0.84690736  0.65780993  0.38920479  1
  In  In35  1  0.83188276  0.65781107  0.86733194  1
  In  In36  1  -0.00647035  0.16532093  0.37564417  1
  In  In37  1  0.00975678  0.17860254  0.86519945  1
  In  In38  1  0.00979505  0.49190390  0.38158062  1
  In  In39  1  -0.00671413  0.49176445  0.86399021  1
  In  In40  1  0.00659449  0.83071840  0.38809665  1
  In  In41  1  0.01092399  0.85186277  0.85581204  1
  In  In42  1  0.34761278  0.18340494  0.35978280  1
  In  In43  1  0.32714903  0.15954348  0.86665348  1
  In  In44  1  0.35571695  0.46653373  0.40175960  1
  In  In45  1  0.33945473  0.50563281  0.86846459  1
  In  In46  1  0.32539495  0.83499032  0.37588711  1
  In  In47  1  0.31935616  0.82781966  0.86881926  1
  In  In48  1  0.66816928  0.16559910  0.37961123  1
  In  In49  1  0.65313672  0.17071522  0.87249336  1
  In  In50  1  0.66755957  0.49906342  0.38265608  1
  In  In51  1  0.67952116  0.49730798  0.87852753  1
  In  In52  1  0.66801334  0.84737504  0.38046577  1
  In  In53  1  0.67369321  0.82178635  0.87534534  1
  In  In54  1  0.17397651  0.00963508  0.11133372  1
  In  In55  1  0.17631233  -0.00730300  0.62573383  1
  In  In56  1  0.16949044  0.32408913  0.13611449  1
  In  In57  1  0.16694794  0.33745836  0.62688707  1
  In  In58  1  0.15330510  0.67019026  0.11845747  1
  In  In59  1  0.16450655  0.66598953  0.62902756  1
  In  In60  1  0.44864611  0.04608739  0.18966990  1
  In  In61  1  0.48137981  0.00444027  0.62477560  1
  In  In62  1  0.49105163  0.33390816  0.12682917  1
  In  In63  1  0.49800112  0.33759818  0.62207718  1
  In  In64  1  0.50397450  0.65950977  0.12308711  1
  In  In65  1  0.50047256  0.65059656  0.62555657  1
  In  In66  1  0.82694330  -0.01052600  0.13112372  1
  In  In67  1  0.83850896  0.00708848  0.62071643  1
  In  In68  1  0.83624158  0.34935117  0.12700784  1
  In  In69  1  0.83263965  0.33233262  0.62305362  1
  In  In70  1  0.84034612  0.66126298  0.12182273  1
  In  In71  1  0.84806875  0.67545432  0.61909319  1
  In  In72  1  0.66902810  0.66358943  0.74579218  1
  In  In73  1  0.49789894  0.83779635  0.00869616  1
  In  In74  1  0.17219552  0.17433692  0.50303689  1
  In  In75  1  0.16912552  0.49915588  -0.00506951  1
  In  In76  1  0.32973137  0.66413717  0.25089890  1
  In  In77  1  0.83531419  0.16990768  -0.00205518  1
  In  In78  1  0.66926166  0.66260914  0.25434695  1
  In  In79  1  0.00195906  0.00274904  0.25289635  1
  In  In80  1  0.48605917  0.16821841  0.01438908  1
  In  In81  1  0.83620311  0.82535098  -0.00154683  1
  In  In82  1  0.66383730  0.00166263  0.75088873  1
  In  In83  1  0.49773986  0.83320564  0.49709155  1
  In  In84  1  0.66624262  0.33056292  0.25674319  1
  In  In85  1  0.00202327  0.65675164  0.25075417  1
  Cu  Cu86  1  0.00198309  0.33650494  -0.00855589  1
  Cu  Cu87  1  0.33392948  0.66447920  -0.00721001  1
  Cu  Cu88  1  0.83086180  0.83438385  0.25986317  1
  Cu  Cu89  1  0.16622332  0.83598773  0.74717423  1
  Cu  Cu90  1  0.00527727  -0.00435790  0.50347504  1
  Cu  Cu91  1  0.82816954  0.16647554  0.25783111  1
  Cu  Cu92  1  0.83141691  0.49786722  0.74276729  1
  Cu  Cu93  1  0.66548703  0.66123283  0.00159602  1
  Cu  Cu94  1  0.49787239  0.49549487  0.74648054  1
  Cu  Cu95  1  0.32609434  0.66490060  0.50466953  1
  Cu  Cu96  1  0.83322042  0.16751577  0.74417223  1
  Cu  Cu97  1  0.17541153  0.48988740  0.25814060  1
  Cu  Cu98  1  0.67170649  0.34212717  -0.00426174  1
  Cu  Cu99  1  0.16548105  0.83619776  0.24914660  1
  Cu  Cu100  1  0.16883313  0.16345155  0.74432708  1
  Cu  Cu101  1  0.00045854  0.66787212  -0.00678675  1
  Cu  Cu102  1  0.67344956  0.66227520  0.50353437  1
  Cu  Cu103  1  0.49621474  0.17277399  0.74625742  1
  Cu  Cu104  1  0.33452904  0.00605735  0.49733991  1
  Cu  Cu105  1  0.49130192  0.83693140  0.75220917  1
  Cu  Cu106  1  0.00723014  0.00123507  -0.00741330  1
  Cu  Cu107  1  0.16637762  0.50031421  0.74728695  1
  Cu  Cu108  1  0.66537269  0.00426261  0.49979166  1
  Cu  Cu109  1  0.66298836  0.00112141  0.01137095  1
  Cu  Cu110  1  -0.00177185  0.33298281  0.50407366  1
  Cu  Cu111  1  0.32907175  0.00311953  -0.00061101  1
  Cu  Cu112  1  0.66629026  0.32907847  0.49968037  1
  Cu  Cu113  1  0.33518574  0.32928822  0.00131212  1
  Cu  Cu114  1  0.00128296  0.66870825  0.50918334  1
  Se  Se115  1  0.08433541  0.08909223  0.04625254  1
  Se  Se116  1  0.08239091  0.08223575  0.56220257  1
  Se  Se117  1  0.08131106  0.41192007  0.05731221  1
  Se  Se118  1  0.08381875  0.41524640  0.55560213  1
  Se  Se119  1  0.08226840  0.75357622  0.04447426  1
  Se  Se120  1  0.08645078  0.75316981  0.55926479  1
  Se  Se121  1  0.40359533  0.07115600  0.06894564  1
  Se  Se122  1  0.41654907  0.08992428  0.54975547  1
  Se  Se123  1  0.41899638  0.41472905  0.05110753  1
  Se  Se124  1  0.42830715  0.43323087  0.55563559  1
  Se  Se125  1  0.40451446  0.74345794  0.06252696  1
  Se  Se126  1  0.41212676  0.74553366  0.56251440  1
  Se  Se127  1  0.74636295  0.08477232  0.06453129  1
  Se  Se128  1  0.75111691  0.08562064  0.55300107  1
  Se  Se129  1  0.75682182  0.42114227  0.05057603  1
  Se  Se130  1  0.75045576  0.41335073  0.55190593  1
  Se  Se131  1  0.73894575  0.74689313  0.06374880  1
  Se  Se132  1  0.75489984  0.75092037  0.55145831  1
  Se  Se133  1  0.24364618  0.25537322  0.05389426  1
  Se  Se134  1  0.26376355  0.27002614  0.55381311  1
  Se  Se135  1  0.25684305  0.58736114  0.05997706  1
  Se  Se136  1  0.24683307  0.58168144  0.56036960  1
  Se  Se137  1  0.24365112  0.91188068  0.04542504  1
  Se  Se138  1  0.25538724  0.91836760  0.54954667  1
  Se  Se139  1  0.59379004  0.26014009  0.05714287  1
  Se  Se140  1  0.57949145  0.24961329  0.55368208  1
  Se  Se141  1  0.58118070  0.57774987  0.05234759  1
  Se  Se142  1  0.58212347  0.58190020  0.55015750  1
  Se  Se143  1  0.57711889  0.93077606  0.07075007  1
  Se  Se144  1  0.58543611  0.92414751  0.56158959  1
  Se  Se145  1  0.92426780  0.25915989  0.05776464  1
  Se  Se146  1  0.91391641  0.24665062  0.55323091  1
  Se  Se147  1  0.92198373  0.58488798  0.05012112  1
  Se  Se148  1  0.91706075  0.57814255  0.55385405  1
  Se  Se149  1  0.92358995  0.92658497  0.05506642  1
  Se  Se150  1  0.91972774  0.91599624  0.55759682  1
  Se  Se151  1  0.07923879  0.25728864  0.44015868  1
  Se  Se152  1  0.08592763  0.24978191  0.94389891  1
  Se  Se153  1  0.07925413  0.58767707  0.44888555  1
  Se  Se154  1  0.07932364  0.58592125  0.93271631  1
  Se  Se155  1  0.09258091  0.91797311  0.44980637  1
  Se  Se156  1  0.08489953  0.91415682  0.93892477  1
  Se  Se157  1  0.41461465  0.24406504  0.44432537  1
  Se  Se158  1  0.41451918  0.25093214  0.93773590  1
  Se  Se159  1  0.41518075  0.58297223  0.45498662  1
  Se  Se160  1  0.41835777  0.57801492  0.94660133  1
  Se  Se161  1  0.41739893  0.92825039  0.43555395  1
  Se  Se162  1  0.41048807  0.92200128  0.93948284  1
  Se  Se163  1  0.75183574  0.24598992  0.44770128  1
  Se  Se164  1  0.74548632  0.25726719  0.93546424  1
  Se  Se165  1  0.75497872  0.57658469  0.45103349  1
  Se  Se166  1  0.75484234  0.58837249  0.94611804  1
  Se  Se167  1  0.75293640  0.91933183  0.45236305  1
  Se  Se168  1  0.73864683  0.92266775  0.94743197  1
  Se  Se169  1  0.25569155  0.08673705  0.43630551  1
  Se  Se170  1  0.24962992  0.08734406  0.94357878  1
  Se  Se171  1  0.23026420  0.42654224  0.44763349  1
  Se  Se172  1  0.25819822  0.40759223  0.93641567  1
  Se  Se173  1  0.25120023  0.75334542  0.44961909  1
  Se  Se174  1  0.24740528  0.74791737  0.94489283  1
  Se  Se175  1  0.57948067  0.08185046  0.44466823  1
  Se  Se176  1  0.58502603  0.08173475  0.95038091  1
  Se  Se177  1  0.58378475  0.41159684  0.44531511  1
  Se  Se178  1  0.58423191  0.41949395  0.94138862  1
  Se  Se179  1  0.59122402  0.73963102  0.44063908  1
  Se  Se180  1  0.58476601  0.74363410  0.94436759  1
  Se  Se181  1  0.92453600  0.08433321  0.45234692  1
  Se  Se182  1  0.92201168  0.07912505  0.93572572  1
  Se  Se183  1  0.91706662  0.41720269  0.44856876  1
  Se  Se184  1  0.91620490  0.42035843  0.94265717  1
  Se  Se185  1  0.91855615  0.75305836  0.45434400  1
  Se  Se186  1  0.92420847  0.74819848  0.93021729  1
  Se  Se187  1  0.25109161  0.25064795  0.29610273  1
  Se  Se188  1  0.25156828  0.24855289  0.79871219  1
  Se  Se189  1  0.24993703  0.57502145  0.31667634  1
  Se  Se190  1  0.25021975  0.58293776  0.80203133  1
  Se  Se191  1  0.24721674  0.91678804  0.30405903  1
  Se  Se192  1  0.24918581  0.92095423  0.80161981  1
  Se  Se193  1  0.57452245  0.23550181  0.30652788  1
  Se  Se194  1  0.58430352  0.25231930  0.79791299  1
  Se  Se195  1  0.57490807  0.57160763  0.30906297  1
  Se  Se196  1  0.57829313  0.57742570  0.80851022  1
  Se  Se197  1  0.58061891  0.90198145  0.30436969  1
  Se  Se198  1  0.57579551  0.90794632  0.81470234  1
  Se  Se199  1  0.91267910  0.24983203  0.30766744  1
  Se  Se200  1  0.91630171  0.25125732  0.79944608  1
  Se  Se201  1  0.91230047  0.57156059  0.31103076  1
  Se  Se202  1  0.91444377  0.58060615  0.79669219  1
  Se  Se203  1  0.91684232  0.91209477  0.31684243  1
  Se  Se204  1  0.91129242  0.92018027  0.79389858  1
  Se  Se205  1  0.09296429  0.09676399  0.30590132  1
  Se  Se206  1  0.08510246  0.08412644  0.80164230  1
  Se  Se207  1  0.08151034  0.41227604  0.30522202  1
  Se  Se208  1  0.08409735  0.41359012  0.79984308  1
  Se  Se209  1  0.08852163  0.75370273  0.30838395  1
  Se  Se210  1  0.08192994  0.74848390  0.79724123  1
  Se  Se211  1  0.40702239  0.07213625  0.30187597  1
  Se  Se212  1  0.41659894  0.08311296  0.79749611  1
  Se  Se213  1  0.41435675  0.41240270  0.31068333  1
  Se  Se214  1  0.41438103  0.41356423  0.80173041  1
  Se  Se215  1  0.42105047  0.75318425  0.31123458  1
  Se  Se216  1  0.41056862  0.74919959  0.80319221  1
  Se  Se217  1  0.74904997  0.08003584  0.30981103  1
  Se  Se218  1  0.75609792  0.09190119  0.81165366  1
  Se  Se219  1  0.75718413  0.42374616  0.31009408  1
  Se  Se220  1  0.74675664  0.41838780  0.79964711  1
  Se  Se221  1  0.75941409  0.74748217  0.31914175  1
  Se  Se222  1  0.76171104  0.75969215  0.79917062  1
  Se  Se223  1  0.24816292  0.07276517  0.19218509  1
  Se  Se224  1  0.25492364  0.08429832  0.69035226  1
  Se  Se225  1  0.25663351  0.40916892  0.20000188  1
  Se  Se226  1  0.25177632  0.41672736  0.69670166  1
  Se  Se227  1  0.24038525  0.75319707  0.18681548  1
  Se  Se228  1  0.25018432  0.74924465  0.69741421  1
  Se  Se229  1  0.59530339  0.06001597  0.20066447  1
  Se  Se230  1  0.57793997  0.08999470  0.68729987  1
  Se  Se231  1  0.57964985  0.42071407  0.19249661  1
  Se  Se232  1  0.58436167  0.41338520  0.69570700  1
  Se  Se233  1  0.57363843  0.74945140  0.19672081  1
  Se  Se234  1  0.57250993  0.75821704  0.69183632  1
  Se  Se235  1  0.90763338  0.08994739  0.19163643  1
  Se  Se236  1  0.91799416  0.08349740  0.69504150  1
  Se  Se237  1  0.92157026  0.41774650  0.19902435  1
  Se  Se238  1  0.91692000  0.41299262  0.69257001  1
  Se  Se239  1  0.90915452  0.75739520  0.19616410  1
  Se  Se240  1  0.91866290  0.74734180  0.69701247  1
  Se  Se241  1  0.06762198  0.25781353  0.19748946  1
  Se  Se242  1  0.08609446  0.25215379  0.69534423  1
  Se  Se243  1  0.09851216  0.56928105  0.19244819  1
  Se  Se244  1  0.07988351  0.58246392  0.69635142  1
  Se  Se245  1  0.08542418  0.91283235  0.18621553  1
  Se  Se246  1  0.08484367  0.92130018  0.69433356  1
  Se  Se247  1  0.43656167  0.22161186  0.18426886  1
  Se  Se248  1  0.41404093  0.25482573  0.69158923  1
  Se  Se249  1  0.42151685  0.57340501  0.19242728  1
  Se  Se250  1  0.41468319  0.58402718  0.69927804  1
  Se  Se251  1  0.42344167  0.90071622  0.19997416  1
  Se  Se252  1  0.41059648  0.91956036  0.69725827  1
  Se  Se253  1  0.75561723  0.24437073  0.18897762  1
  Se  Se254  1  0.74870516  0.25285253  0.69576410  1
  Se  Se255  1  0.75902647  0.57553419  0.19146959  1
  Se  Se256  1  0.75203759  0.57636664  0.68059098  1
  Se  Se257  1  0.74872470  0.91650435  0.20626638  1
  Se  Se258  1  0.75241942  0.91473439  0.68969863  1
