# generated using pymatgen
data_In86Cu29Se144
_symmetry_space_group_name_H-M   'P 1'
_cell_length_a   17.57313851
_cell_length_b   17.57719949
_cell_length_c   23.43520838
_cell_angle_alpha   89.98778949
_cell_angle_beta   89.99705873
_cell_angle_gamma   89.98526444
_symmetry_Int_Tables_number   1
_chemical_formula_structural   In86Cu29Se144
_chemical_formula_sum   'In86 Cu29 Se144'
_cell_volume   7238.82051231
_cell_formula_units_Z   1
loop_
 _symmetry_equiv_pos_site_id
 _symmetry_equiv_pos_as_xyz
  1  'x, y, z'
loop_
 _atom_site_type_symbol
 _atom_site_label
 _atom_site_symmetry_multiplicity
 _atom_site_fract_x
 _atom_site_fract_y
 _atom_site_fract_z
 _atom_site_occupancy
  In  In0  1  0.00145102  0.18046204  0.12625161  1
  In  In1  1  -0.00793660  0.15720906  0.62310951  1
  In  In2  1  -0.00003608  0.50505409  0.12117933  1
  In  In3  1  0.00758340  0.49737781  0.62632173  1
  In  In4  1  0.00069911  0.81120545  0.12639103  1
  In  In5  1  0.01328794  0.82235161  0.62859224  1
  In  In6  1  0.34312352  0.17865221  0.11990133  1
  In  In7  1  0.32009165  0.17501000  0.63052996  1
  In  In8  1  0.31420004  0.51310230  0.14364637  1
  In  In9  1  0.32578966  0.50965457  0.63213246  1
  In  In10  1  0.31741824  0.83691271  0.12196943  1
  In  In11  1  0.32787522  0.83203796  0.61975464  1
  In  In12  1  0.68162411  0.19698619  0.10406457  1
  In  In13  1  0.67246905  0.15560867  0.61512905  1
  In  In14  1  0.68183809  0.48525699  0.12949804  1
  In  In15  1  0.67752831  0.50734695  0.62664186  1
  In  In16  1  0.66795936  0.82662126  0.12973601  1
  In  In17  1  0.65347274  0.82847402  0.62062437  1
  In  In18  1  0.18250633  -0.00546448  0.39686041  1
  In  In19  1  0.15338703  -0.01212447  0.86340028  1
  In  In20  1  0.16639379  0.33204716  0.37321941  1
  In  In21  1  0.18012119  0.33689009  0.87532345  1
  In  In22  1  0.17051075  0.66472992  0.37143166  1
  In  In23  1  0.16611663  0.66452606  0.87625053  1
  In  In24  1  0.48774275  -0.00853659  0.38454055  1
  In  In25  1  0.49963696  0.01164360  0.87102535  1
  In  In26  1  0.51049686  0.33927372  0.36666118  1
  In  In27  1  0.48953436  0.33543762  0.87986604  1
  In  In28  1  0.50016673  0.67161597  0.37424558  1
  In  In29  1  0.50165926  0.67002688  0.86978745  1
  In  In30  1  0.84294956  0.00447550  0.38013060  1
  In  In31  1  0.84202337  0.00092885  0.87504182  1
  In  In32  1  0.83170780  0.32864264  0.36827164  1
  In  In33  1  0.82826886  0.33768213  0.88936217  1
  In  In34  1  0.83176688  0.66610121  0.36221831  1
  In  In35  1  0.83162372  0.65291541  0.86225705  1
  In  In36  1  -0.00164394  0.17511553  0.37727497  1
  In  In37  1  -0.00135665  0.15927914  0.87499927  1
  In  In38  1  0.02179508  0.50768053  0.35956509  1
  In  In39  1  -0.00745838  0.51328321  0.88126112  1
  In  In40  1  0.01094557  0.83579164  0.37569166  1
  In  In41  1  0.00667946  0.83521002  0.86837853  1
  In  In42  1  0.32668128  0.15923991  0.38056769  1
  In  In43  1  0.33703268  0.17085306  0.86678774  1
  In  In44  1  0.31453874  0.48878251  0.36014629  1
  In  In45  1  0.32944318  0.49408584  0.87222987  1
  In  In46  1  0.34121854  0.82938108  0.38819001  1
  In  In47  1  0.31983736  0.82113789  0.86471074  1
  In  In48  1  0.67381897  0.18275167  0.37909039  1
  In  In49  1  0.66424173  0.17257604  0.88512598  1
  In  In50  1  0.66832461  0.50081950  0.36741360  1
  In  In51  1  0.66403889  0.49972949  0.88027604  1
  In  In52  1  0.66963994  0.81572265  0.37913893  1
  In  In53  1  0.67763987  0.82665926  0.87341893  1
  In  In54  1  0.17801478  -0.00414608  0.12167780  1
  In  In55  1  0.16858079  -0.00303933  0.62461720  1
  In  In56  1  0.13833845  0.36459325  0.15833782  1
  In  In57  1  0.17003155  0.34676808  0.61739080  1
  In  In58  1  0.16330912  0.66598617  0.12386843  1
  In  In59  1  0.16746490  0.66654836  0.62155853  1
  In  In60  1  0.48368745  0.01369874  0.12339975  1
  In  In61  1  0.49690056  -0.01754845  0.61777559  1
  In  In62  1  0.50114164  0.33374675  0.13125395  1
  In  In63  1  0.49305652  0.32323830  0.62357577  1
  In  In64  1  0.50209494  0.65839287  0.13210141  1
  In  In65  1  0.48639061  0.67453353  0.63036320  1
  In  In66  1  0.82213219  0.00334879  0.12322464  1
  In  In67  1  0.82972302  0.01440893  0.62431220  1
  In  In68  1  0.83619678  0.34070535  0.12048708  1
  In  In69  1  0.84363535  0.33239292  0.62074861  1
  In  In70  1  0.85691181  0.64884677  0.14059270  1
  In  In71  1  0.83578752  0.65989053  0.64020079  1
  In  In72  1  0.49834368  0.50136026  0.48823563  1
  In  In73  1  0.66346649  0.33640009  0.75642982  1
  In  In74  1  0.83903434  0.49203381  0.49390344  1
  In  In75  1  0.17259258  0.17306799  0.00012456  1
  In  In76  1  0.00270865  -0.00106514  0.26099775  1
  In  In77  1  0.49629580  0.83823779  0.00341474  1
  In  In78  1  0.66088707  0.00156280  0.24827323  1
  In  In79  1  0.83890659  0.83380328  0.00006562  1
  In  In80  1  0.50271821  0.49028541  0.00077002  1
  In  In81  1  0.66352326  -0.00518385  0.74250106  1
  In  In82  1  0.00010415  0.33776160  0.74683178  1
  In  In83  1  0.50173691  0.16528995  0.50006829  1
  In  In84  1  0.83371145  0.83829595  0.49943078  1
  In  In85  1  0.33250181  -0.00203538  0.25734232  1
  Cu  Cu86  1  0.00488461  0.66601458  -0.00012287  1
  Cu  Cu87  1  0.48591474  0.16436156  0.74600156  1
  Cu  Cu88  1  0.83295189  0.17249075  0.24578293  1
  Cu  Cu89  1  0.67732314  0.66199039  0.00179253  1
  Cu  Cu90  1  0.17035906  0.83139069  0.74369710  1
  Cu  Cu91  1  0.32680684  -0.00139944  -0.00686337  1
  Cu  Cu92  1  0.16299167  0.82468299  0.24996495  1
  Cu  Cu93  1  0.49511599  0.82799765  0.74453829  1
  Cu  Cu94  1  0.83600906  0.49382900  0.24707582  1
  Cu  Cu95  1  0.32614653  0.66428512  0.50249751  1
  Cu  Cu96  1  0.32759438  0.33841033  0.00386752  1
  Cu  Cu97  1  0.32632205  0.66171530  0.00114500  1
  Cu  Cu98  1  0.49881156  0.82606794  0.25314091  1
  Cu  Cu99  1  0.00180883  0.00030349  -0.00582167  1
  Cu  Cu100  1  0.16806896  0.50573136  0.74886147  1
  Cu  Cu101  1  0.66111799  0.66862592  0.50077308  1
  Cu  Cu102  1  0.17206811  0.16841811  0.25740866  1
  Cu  Cu103  1  0.65934919  0.01109815  0.00200468  1
  Cu  Cu104  1  0.00682847  0.33028841  0.49606905  1
  Cu  Cu105  1  0.00163176  0.34021948  0.00676555  1
  Cu  Cu106  1  0.49867435  0.49880842  0.75431500  1
  Cu  Cu107  1  0.83842709  0.82984728  0.75234256  1
  Cu  Cu108  1  0.00388094  0.66132787  0.49669509  1
  Cu  Cu109  1  0.83096571  0.16776615  0.75009330  1
  Cu  Cu110  1  0.00583255  0.00284273  0.50273843  1
  Cu  Cu111  1  0.33091488  0.33638824  0.49714910  1
  Cu  Cu112  1  0.49837359  0.50572163  0.25129182  1
  Cu  Cu113  1  0.16475563  0.16473168  0.74945460  1
  Cu  Cu114  1  0.50880241  0.17324900  0.24758399  1
  Se  Se115  1  0.07969528  0.07939726  0.05901236  1
  Se  Se116  1  0.08738394  0.08679399  0.55707595  1
  Se  Se117  1  0.09045496  0.41550865  0.06106643  1
  Se  Se118  1  0.08096993  0.42246611  0.54877697  1
  Se  Se119  1  0.08778497  0.75263523  0.04988930  1
  Se  Se120  1  0.08459972  0.74750175  0.54980371  1
  Se  Se121  1  0.40605021  0.08499614  0.04673257  1
  Se  Se122  1  0.41141013  0.08571781  0.56502637  1
  Se  Se123  1  0.40543826  0.41930532  0.06620011  1
  Se  Se124  1  0.41167112  0.41677439  0.55709899  1
  Se  Se125  1  0.41020486  0.74087568  0.06045414  1
  Se  Se126  1  0.41471381  0.74753662  0.55154446  1
  Se  Se127  1  0.75312071  0.08795357  0.05009621  1
  Se  Se128  1  0.75903469  0.08525536  0.54510792  1
  Se  Se129  1  0.74887868  0.41427273  0.04922157  1
  Se  Se130  1  0.74384267  0.40997172  0.55668243  1
  Se  Se131  1  0.75449437  0.74259433  0.06278646  1
  Se  Se132  1  0.75197013  0.73877517  0.56052455  1
  Se  Se133  1  0.24352525  0.26638667  0.06773049  1
  Se  Se134  1  0.24927828  0.25456265  0.55294375  1
  Se  Se135  1  0.24750847  0.57840762  0.05732580  1
  Se  Se136  1  0.24633207  0.57616762  0.55341245  1
  Se  Se137  1  0.24456069  0.91365322  0.04457900  1
  Se  Se138  1  0.23758627  0.90752307  0.55319925  1
  Se  Se139  1  0.55984206  0.24345694  0.05551106  1
  Se  Se140  1  0.59408434  0.25997590  0.55598158  1
  Se  Se141  1  0.59131000  0.58506574  0.05921394  1
  Se  Se142  1  0.58188757  0.58655153  0.55953524  1
  Se  Se143  1  0.58818382  0.92759664  0.06473586  1
  Se  Se144  1  0.59878477  0.92698848  0.55148936  1
  Se  Se145  1  0.91839492  0.25055277  0.05298098  1
  Se  Se146  1  0.92237571  0.25035822  0.55202332  1
  Se  Se147  1  0.91473360  0.58651819  0.05117525  1
  Se  Se148  1  0.91882732  0.58853612  0.55765473  1
  Se  Se149  1  0.92706057  0.92359922  0.06310894  1
  Se  Se150  1  0.92489949  0.92147790  0.56353999  1
  Se  Se151  1  0.09190937  0.24502692  0.44566690  1
  Se  Se152  1  0.07636927  0.26065511  0.93992782  1
  Se  Se153  1  0.08769351  0.58024932  0.44222462  1
  Se  Se154  1  0.08911168  0.58033808  0.94894846  1
  Se  Se155  1  0.08359387  0.91222226  0.45222278  1
  Se  Se156  1  0.08340045  0.91391325  0.94408018  1
  Se  Se157  1  0.41738944  0.26165316  0.43834709  1
  Se  Se158  1  0.40362527  0.25244371  0.94611368  1
  Se  Se159  1  0.40003168  0.58669570  0.43418307  1
  Se  Se160  1  0.41600544  0.58893490  0.94284296  1
  Se  Se161  1  0.40244616  0.92631909  0.45748645  1
  Se  Se162  1  0.41012421  0.91863499  0.93464870  1
  Se  Se163  1  0.76729915  0.24792975  0.44731340  1
  Se  Se164  1  0.75635026  0.24185919  0.95127180  1
  Se  Se165  1  0.74541892  0.59104162  0.44189910  1
  Se  Se166  1  0.75536955  0.58286358  0.94221945  1
  Se  Se167  1  0.74090676  0.92378757  0.43925895  1
  Se  Se168  1  0.74025739  0.92660738  0.94454575  1
  Se  Se169  1  0.26080765  0.08471781  0.45980890  1
  Se  Se170  1  0.24618105  0.07827535  0.93230798  1
  Se  Se171  1  0.24694162  0.41879086  0.44331956  1
  Se  Se172  1  0.24797862  0.42355680  0.94921533  1
  Se  Se173  1  0.24475385  0.74789584  0.44602338  1
  Se  Se174  1  0.24998242  0.74930134  0.94583979  1
  Se  Se175  1  0.59037698  0.07970522  0.43609202  1
  Se  Se176  1  0.57343133  0.08817237  0.94693518  1
  Se  Se177  1  0.59965859  0.40891411  0.44301332  1
  Se  Se178  1  0.59526276  0.39637532  0.94610403  1
  Se  Se179  1  0.57566448  0.75209655  0.45035109  1
  Se  Se180  1  0.59239717  0.74533838  0.94708543  1
  Se  Se181  1  0.92382804  0.08567506  0.44795100  1
  Se  Se182  1  0.91456333  0.08537003  0.94826263  1
  Se  Se183  1  0.93306288  0.41235384  0.43130702  1
  Se  Se184  1  0.91983878  0.42125795  0.94949834  1
  Se  Se185  1  0.91924983  0.74130560  0.43971857  1
  Se  Se186  1  0.92178529  0.74292005  0.93663410  1
  Se  Se187  1  0.25889245  0.24793827  0.30927457  1
  Se  Se188  1  0.24741281  0.25098311  0.80104680  1
  Se  Se189  1  0.24292793  0.58339935  0.29604699  1
  Se  Se190  1  0.25253965  0.58478115  0.80609860  1
  Se  Se191  1  0.24063384  0.90671597  0.31269077  1
  Se  Se192  1  0.25101426  0.91782865  0.79844948  1
  Se  Se193  1  0.59467471  0.25255004  0.30150940  1
  Se  Se194  1  0.57019279  0.23898823  0.80831941  1
  Se  Se195  1  0.58248442  0.58796677  0.30573594  1
  Se  Se196  1  0.58447000  0.57896150  0.80812981  1
  Se  Se197  1  0.57437393  0.91163741  0.31196822  1
  Se  Se198  1  0.57651343  0.90528197  0.80847172  1
  Se  Se199  1  0.92086490  0.24911639  0.30069599  1
  Se  Se200  1  0.90872769  0.25021281  0.81017389  1
  Se  Se201  1  0.91755358  0.57893227  0.30054336  1
  Se  Se202  1  0.93139084  0.58677657  0.79864748  1
  Se  Se203  1  0.90564313  0.90483841  0.31011455  1
  Se  Se204  1  0.91702240  0.91855036  0.80375893  1
  Se  Se205  1  0.10061121  0.08123161  0.31924473  1
  Se  Se206  1  0.07664115  0.08425609  0.80058167  1
  Se  Se207  1  0.08892716  0.40737842  0.29645996  1
  Se  Se208  1  0.08949889  0.42347794  0.81007389  1
  Se  Se209  1  0.07823912  0.74585829  0.30469873  1
  Se  Se210  1  0.09022530  0.74973207  0.80317313  1
  Se  Se211  1  0.43053043  0.09128155  0.30880687  1
  Se  Se212  1  0.40854056  0.07556033  0.79874908  1
  Se  Se213  1  0.41951687  0.41664809  0.30230489  1
  Se  Se214  1  0.41499215  0.41233359  0.80423522  1
  Se  Se215  1  0.40964393  0.75221657  0.30832470  1
  Se  Se216  1  0.41416541  0.74476304  0.80088846  1
  Se  Se217  1  0.75818950  0.08831655  0.30695418  1
  Se  Se218  1  0.74678672  0.08737414  0.80844968  1
  Se  Se219  1  0.75008885  0.41455530  0.30146395  1
  Se  Se220  1  0.76023530  0.42327612  0.81023543  1
  Se  Se221  1  0.74114294  0.74688355  0.30021602  1
  Se  Se222  1  0.74963669  0.74677829  0.80011363  1
  Se  Se223  1  0.24872060  0.09070331  0.19241348  1
  Se  Se224  1  0.24812453  0.08052401  0.69695872  1
  Se  Se225  1  0.26782876  0.39712522  0.20144820  1
  Se  Se226  1  0.24751784  0.41619293  0.69652088  1
  Se  Se227  1  0.25010815  0.74923608  0.19366771  1
  Se  Se228  1  0.25288314  0.74536653  0.69171659  1
  Se  Se229  1  0.58254464  0.09412507  0.18292580  1
  Se  Se230  1  0.57324872  0.09014201  0.68668907  1
  Se  Se231  1  0.58165538  0.42186396  0.19681814  1
  Se  Se232  1  0.57543028  0.42167315  0.68884925  1
  Se  Se233  1  0.58322702  0.74749860  0.19732872  1
  Se  Se234  1  0.58445086  0.74574497  0.69612962  1
  Se  Se235  1  0.91415050  0.08487213  0.19211262  1
  Se  Se236  1  0.91453524  0.08211397  0.70006650  1
  Se  Se237  1  0.92194478  0.41572388  0.19143304  1
  Se  Se238  1  0.90359552  0.42929842  0.69356169  1
  Se  Se239  1  0.91118372  0.75804706  0.20174197  1
  Se  Se240  1  0.92365715  0.74848941  0.69889139  1
  Se  Se241  1  0.08054442  0.24348020  0.20567071  1
  Se  Se242  1  0.08798815  0.24704690  0.68668979  1
  Se  Se243  1  0.07255307  0.59346098  0.19151143  1
  Se  Se244  1  0.08397855  0.58545929  0.69361582  1
  Se  Se245  1  0.08933472  0.91409197  0.19144241  1
  Se  Se246  1  0.08299461  0.91735665  0.69597510  1
  Se  Se247  1  0.41528476  0.25076742  0.19963127  1
  Se  Se248  1  0.40801392  0.25689496  0.69794010  1
  Se  Se249  1  0.41184621  0.59132569  0.20327126  1
  Se  Se250  1  0.41615852  0.58320768  0.70028132  1
  Se  Se251  1  0.42146659  0.90868098  0.19179934  1
  Se  Se252  1  0.41381534  0.91239972  0.69173121  1
  Se  Se253  1  0.75194148  0.25532233  0.19029489  1
  Se  Se254  1  0.75080544  0.24651356  0.68994809  1
  Se  Se255  1  0.74930008  0.58110762  0.19759484  1
  Se  Se256  1  0.74267206  0.58545183  0.70389780  1
  Se  Se257  1  0.75881672  0.90953327  0.19641802  1
  Se  Se258  1  0.75897678  0.90525018  0.68670097  1
