# generated using pymatgen
data_In86Cu29Se144
_symmetry_space_group_name_H-M   'P 1'
_cell_length_a   17.58779986
_cell_length_b   17.59222694
_cell_length_c   23.45671321
_cell_angle_alpha   89.99748632
_cell_angle_beta   89.97484038
_cell_angle_gamma   89.99816639
_symmetry_Int_Tables_number   1
_chemical_formula_structural   In86Cu29Se144
_chemical_formula_sum   'In86 Cu29 Se144'
_cell_volume   7257.70729939
_cell_formula_units_Z   1
loop_
 _symmetry_equiv_pos_site_id
 _symmetry_equiv_pos_as_xyz
  1  'x, y, z'
loop_
 _atom_site_type_symbol
 _atom_site_label
 _atom_site_symmetry_multiplicity
 _atom_site_fract_x
 _atom_site_fract_y
 _atom_site_fract_z
 _atom_site_occupancy
  In  In0  1  0.00867548  0.15333898  0.13662839  1
  In  In1  1  0.01545889  0.16594149  0.62205849  1
  In  In2  1  0.02913935  0.52346175  0.09321109  1
  In  In3  1  0.01952426  0.52005243  0.61150081  1
  In  In4  1  0.02197821  0.81099400  0.13246804  1
  In  In5  1  -0.00190761  0.81894322  0.62279797  1
  In  In6  1  0.31081625  0.18374165  0.14890205  1
  In  In7  1  0.33987481  0.15962389  0.62863762  1
  In  In8  1  0.32757341  0.50599628  0.12989666  1
  In  In9  1  0.32964317  0.49918525  0.62731024  1
  In  In10  1  0.32774821  0.83254101  0.12309722  1
  In  In11  1  0.33435090  0.83744656  0.63461702  1
  In  In12  1  0.67546506  0.17700740  0.12935448  1
  In  In13  1  0.66712077  0.18644448  0.62471094  1
  In  In14  1  0.66563362  0.48734556  0.12436753  1
  In  In15  1  0.66284141  0.50095887  0.62604365  1
  In  In16  1  0.65902798  0.83913177  0.12140907  1
  In  In17  1  0.64891689  0.81940556  0.63136983  1
  In  In18  1  0.15898039  -0.00621061  0.35999560  1
  In  In19  1  0.18012592  -0.01000675  0.88379986  1
  In  In20  1  0.18459204  0.33033441  0.36934875  1
  In  In21  1  0.17405725  0.33453890  0.89639120  1
  In  In22  1  0.17174427  0.66623911  0.37565995  1
  In  In23  1  0.16484782  0.66101389  0.87277784  1
  In  In24  1  0.50329202  0.01291806  0.38246648  1
  In  In25  1  0.47407546  -0.00265724  0.86870589  1
  In  In26  1  0.49657078  0.33306578  0.37702305  1
  In  In27  1  0.49790843  0.33193859  0.86556684  1
  In  In28  1  0.47631860  0.66277601  0.38137122  1
  In  In29  1  0.49955661  0.67532175  0.86385105  1
  In  In30  1  0.84829468  -0.00586524  0.37226093  1
  In  In31  1  0.83755356  -0.00230976  0.87893751  1
  In  In32  1  0.83438677  0.35379643  0.37045707  1
  In  In33  1  0.83479845  0.35928191  0.87680972  1
  In  In34  1  0.83644287  0.65392787  0.37708822  1
  In  In35  1  0.83058261  0.65173114  0.87098171  1
  In  In36  1  0.01641082  0.15283605  0.36918727  1
  In  In37  1  0.01843182  0.18944633  0.88140682  1
  In  In38  1  -0.00676900  0.50676622  0.37930160  1
  In  In39  1  -0.00345933  0.50072167  0.89170090  1
  In  In40  1  0.02496781  0.84429702  0.36425688  1
  In  In41  1  0.01614217  0.82392146  0.88165874  1
  In  In42  1  0.33921634  0.17478603  0.36315475  1
  In  In43  1  0.32943510  0.17111690  0.87493702  1
  In  In44  1  0.33392739  0.49856141  0.37992095  1
  In  In45  1  0.32259972  0.49488261  0.86966454  1
  In  In46  1  0.31367985  0.81273303  0.36493099  1
  In  In47  1  0.32912753  0.82956672  0.87057669  1
  In  In48  1  0.64886257  0.16631645  0.37831116  1
  In  In49  1  0.65314644  0.16850269  0.86931971  1
  In  In50  1  0.66885847  0.49248103  0.37981033  1
  In  In51  1  0.66751522  0.50662803  0.86720751  1
  In  In52  1  0.66908313  0.84038506  0.37619884  1
  In  In53  1  0.66398770  0.80970065  0.86959828  1
  In  In54  1  0.17405461  -0.00132764  0.12639302  1
  In  In55  1  0.18428868  0.00334369  0.62345442  1
  In  In56  1  0.17917000  0.34472196  0.11142686  1
  In  In57  1  0.16581287  0.34895689  0.62640181  1
  In  In58  1  0.16929843  0.67007609  0.11909752  1
  In  In59  1  0.16650546  0.66627885  0.62818522  1
  In  In60  1  0.49161261  -0.01550548  0.11859515  1
  In  In61  1  0.48008883  -0.00752412  0.62175037  1
  In  In62  1  0.49916138  0.33571413  0.13260699  1
  In  In63  1  0.49461566  0.33800440  0.62411339  1
  In  In64  1  0.48030136  0.66625274  0.12580953  1
  In  In65  1  0.50391297  0.66508693  0.63501555  1
  In  In66  1  0.83512814  0.01388042  0.12853450  1
  In  In67  1  0.84127580  -0.01197647  0.62492076  1
  In  In68  1  0.82659609  0.34011304  0.12785269  1
  In  In69  1  0.81918619  0.33950750  0.62696875  1
  In  In70  1  0.85432373  0.66371221  0.11870777  1
  In  In71  1  0.84042231  0.65632224  0.62843942  1
  In  In72  1  0.84103602  0.83052020  0.50442901  1
  In  In73  1  -0.00227521  0.34185940  0.24514966  1
  In  In74  1  0.49289708  0.50324055  0.00068759  1
  In  In75  1  0.17368485  0.16635997  0.49033472  1
  In  In76  1  0.49363425  0.82947512  0.50476740  1
  In  In77  1  -0.00189422  0.34672359  0.75644669  1
  In  In78  1  0.83722787  0.83040749  0.00297160  1
  In  In79  1  0.65896748  0.00147012  0.74570016  1
  In  In80  1  0.00506130  -0.00302102  0.75462658  1
  In  In81  1  0.83402958  0.17699046  0.48964525  1
  In  In82  1  0.66775789  0.66470097  0.25931685  1
  In  In83  1  0.83531744  0.16779315  0.00114375  1
  In  In84  1  0.66690166  0.00695260  0.24768292  1
  In  In85  1  0.48796476  0.16571621  -0.00305881  1
  Cu  Cu86  1  0.83609985  0.50689965  0.24791565  1
  Cu  Cu87  1  0.33486457  0.33371387  0.49916642  1
  Cu  Cu88  1  0.16907164  0.50409939  0.75155444  1
  Cu  Cu89  1  0.49260255  0.82994460  0.24977173  1
  Cu  Cu90  1  -0.00621823  0.33543375  0.49755685  1
  Cu  Cu91  1  0.83491996  0.49889134  0.74784735  1
  Cu  Cu92  1  0.65709097  0.34193356  0.50364353  1
  Cu  Cu93  1  0.65546470  -0.00954920  -0.00138990  1
  Cu  Cu94  1  0.32898629  0.67598924  -0.00374593  1
  Cu  Cu95  1  0.49775096  0.17621211  0.74722574  1
  Cu  Cu96  1  0.49382865  0.49274531  0.25340043  1
  Cu  Cu97  1  0.83579455  0.16873559  0.74764508  1
  Cu  Cu98  1  0.67022961  0.01216680  0.50502902  1
  Cu  Cu99  1  0.32614291  -0.00203341  0.00231830  1
  Cu  Cu100  1  0.66681861  0.33415876  -0.00196409  1
  Cu  Cu101  1  0.16931291  0.82848594  0.24480706  1
  Cu  Cu102  1  0.83319081  0.17489652  0.25201212  1
  Cu  Cu103  1  0.50055707  0.16936834  0.25165457  1
  Cu  Cu104  1  0.49670575  0.49702209  0.74675310  1
  Cu  Cu105  1  0.00723859  0.67313033  0.49678963  1
  Cu  Cu106  1  0.33316706  -0.00528973  0.49706692  1
  Cu  Cu107  1  0.84926804  0.83489084  0.24789258  1
  Cu  Cu108  1  0.83352337  0.82057214  0.75110666  1
  Cu  Cu109  1  0.66183072  0.66096525  0.50201610  1
  Cu  Cu110  1  0.17297292  0.17243354  0.75635361  1
  Cu  Cu111  1  0.16627754  0.83104415  0.75202575  1
  Cu  Cu112  1  0.16575195  0.50358096  0.24545403  1
  Cu  Cu113  1  0.00359256  -0.00226825  0.00658712  1
  Cu  Cu114  1  0.66648663  0.66057580  -0.00628817  1
  Se  Se115  1  0.08566568  0.08179546  0.05937945  1
  Se  Se116  1  0.08481937  0.07397911  0.55288347  1
  Se  Se117  1  0.07817443  0.40294204  0.04409813  1
  Se  Se118  1  0.08227642  0.41385848  0.54983253  1
  Se  Se119  1  0.07860613  0.74127197  0.04786731  1
  Se  Se120  1  0.08996268  0.75188577  0.55353535  1
  Se  Se121  1  0.40389791  0.08020350  0.06224003  1
  Se  Se122  1  0.41262354  0.08243639  0.55020107  1
  Se  Se123  1  0.40982815  0.41052679  0.06179833  1
  Se  Se124  1  0.41291531  0.41966588  0.55428437  1
  Se  Se125  1  0.41546789  0.75340389  0.05213244  1
  Se  Se126  1  0.40757742  0.73996612  0.56479581  1
  Se  Se127  1  0.73512558  0.07471101  0.05520765  1
  Se  Se128  1  0.75729667  0.08550246  0.56298993  1
  Se  Se129  1  0.75015454  0.41633691  0.05062198  1
  Se  Se130  1  0.74750817  0.42135254  0.55329581  1
  Se  Se131  1  0.74155796  0.73929943  0.06086468  1
  Se  Se132  1  0.74138622  0.74533756  0.56035135  1
  Se  Se133  1  0.25909284  0.24275959  0.05714511  1
  Se  Se134  1  0.25220096  0.25383675  0.56058418  1
  Se  Se135  1  0.25695241  0.58588583  0.05289135  1
  Se  Se136  1  0.22275870  0.55857211  0.56470507  1
  Se  Se137  1  0.24356985  0.91025688  0.05179749  1
  Se  Se138  1  0.25637789  0.91241194  0.55564074  1
  Se  Se139  1  0.58653041  0.25437511  0.05716941  1
  Se  Se140  1  0.57768723  0.25271540  0.55356034  1
  Se  Se141  1  0.58646742  0.59053522  0.06297842  1
  Se  Se142  1  0.57787624  0.58527425  0.55891145  1
  Se  Se143  1  0.57233360  0.90426914  0.04705424  1
  Se  Se144  1  0.59194722  0.92306403  0.55971260  1
  Se  Se145  1  0.91837136  0.24466898  0.07172254  1
  Se  Se146  1  0.92202600  0.25606245  0.56249519  1
  Se  Se147  1  0.90448949  0.56897113  0.04569637  1
  Se  Se148  1  0.91878371  0.59071539  0.54807973  1
  Se  Se149  1  0.91986896  0.92199671  0.06593761  1
  Se  Se150  1  0.93683068  0.92588972  0.55394064  1
  Se  Se151  1  0.07510604  0.25891194  0.43703228  1
  Se  Se152  1  0.09166440  0.24813076  0.96312691  1
  Se  Se153  1  0.08440864  0.58406845  0.44406867  1
  Se  Se154  1  0.08822273  0.58520496  0.94907003  1
  Se  Se155  1  0.09143934  0.92210054  0.44161591  1
  Se  Se156  1  0.08471806  0.91688070  0.94935177  1
  Se  Se157  1  0.41226324  0.24628543  0.44385552  1
  Se  Se158  1  0.40821629  0.26761241  0.94245145  1
  Se  Se159  1  0.40895985  0.58057200  0.45408002  1
  Se  Se160  1  0.41116640  0.59425521  0.93716393  1
  Se  Se161  1  0.41332205  0.91510633  0.43549541  1
  Se  Se162  1  0.40670842  0.91591735  0.94450698  1
  Se  Se163  1  0.73722297  0.26674532  0.43701219  1
  Se  Se164  1  0.74373714  0.25243281  0.93671643  1
  Se  Se165  1  0.74766704  0.58287566  0.44660739  1
  Se  Se166  1  0.74921648  0.57435734  0.94502089  1
  Se  Se167  1  0.74847826  0.93006782  0.44610105  1
  Se  Se168  1  0.74127879  0.91510861  0.93974268  1
  Se  Se169  1  0.26006611  0.07401940  0.43146191  1
  Se  Se170  1  0.25155149  0.08825714  0.94702299  1
  Se  Se171  1  0.24677430  0.41309335  0.44707677  1
  Se  Se172  1  0.25414514  0.43194024  0.95380966  1
  Se  Se173  1  0.24888786  0.74868932  0.44837582  1
  Se  Se174  1  0.24320742  0.75278369  0.94049228  1
  Se  Se175  1  0.57964786  0.09082369  0.45724044  1
  Se  Se176  1  0.58108985  0.07335980  0.93778086  1
  Se  Se177  1  0.57475787  0.42076734  0.44605534  1
  Se  Se178  1  0.58467952  0.41330848  0.93917113  1
  Se  Se179  1  0.58928707  0.74569635  0.43981325  1
  Se  Se180  1  0.58004890  0.74343462  0.94478210  1
  Se  Se181  1  0.92840424  0.07800430  0.44452103  1
  Se  Se182  1  0.93114464  0.07938948  0.94157164  1
  Se  Se183  1  0.91023900  0.42258152  0.44890746  1
  Se  Se184  1  0.93625478  0.38961624  0.95007951  1
  Se  Se185  1  0.92532887  0.75076667  0.43443918  1
  Se  Se186  1  0.91831019  0.73882262  0.94000217  1
  Se  Se187  1  0.23299156  0.23054293  0.29923949  1
  Se  Se188  1  0.24438644  0.26142533  0.81328182  1
  Se  Se189  1  0.24979939  0.57746684  0.30685461  1
  Se  Se190  1  0.25481127  0.58964163  0.80081675  1
  Se  Se191  1  0.25254241  0.91262825  0.29821873  1
  Se  Se192  1  0.24822965  0.91936626  0.80189952  1
  Se  Se193  1  0.58311779  0.25292236  0.30506637  1
  Se  Se194  1  0.58724046  0.25576760  0.79683021  1
  Se  Se195  1  0.57154334  0.57681502  0.31406419  1
  Se  Se196  1  0.57872528  0.58190801  0.80045369  1
  Se  Se197  1  0.57599829  0.91264023  0.30573419  1
  Se  Se198  1  0.58089851  0.91524845  0.81401228  1
  Se  Se199  1  0.91604635  0.24826715  0.31476319  1
  Se  Se200  1  0.91138062  0.24637091  0.81314834  1
  Se  Se201  1  0.92083262  0.58664298  0.30182191  1
  Se  Se202  1  0.92190137  0.56913306  0.80871007  1
  Se  Se203  1  0.92906911  0.92165207  0.29935950  1
  Se  Se204  1  0.91135605  0.90273772  0.81104255  1
  Se  Se205  1  0.08943166  0.08621074  0.29048202  1
  Se  Se206  1  0.09134016  0.09063011  0.81428249  1
  Se  Se207  1  0.08909165  0.42384092  0.31101699  1
  Se  Se208  1  0.09404534  0.42499308  0.81762874  1
  Se  Se209  1  0.08822526  0.74251167  0.30052112  1
  Se  Se210  1  0.08150798  0.74680031  0.80220634  1
  Se  Se211  1  0.42442433  0.07953077  0.30436642  1
  Se  Se212  1  0.41240054  0.09485499  0.80103731  1
  Se  Se213  1  0.41000137  0.41207413  0.30801745  1
  Se  Se214  1  0.41275381  0.41699945  0.80235333  1
  Se  Se215  1  0.41339214  0.74152604  0.30127336  1
  Se  Se216  1  0.41635364  0.75811907  0.79824144  1
  Se  Se217  1  0.75564230  0.09170695  0.31466441  1
  Se  Se218  1  0.75746443  0.08657756  0.80783623  1
  Se  Se219  1  0.74811607  0.42572000  0.29893487  1
  Se  Se220  1  0.74823683  0.41680291  0.79983199  1
  Se  Se221  1  0.76427130  0.76254657  0.31047086  1
  Se  Se222  1  0.74940651  0.73491014  0.80048264  1
  Se  Se223  1  0.27238263  0.05883802  0.19612623  1
  Se  Se224  1  0.25008685  0.08659143  0.69972725  1
  Se  Se225  1  0.24726282  0.41558573  0.19495140  1
  Se  Se226  1  0.24967198  0.41516714  0.70104381  1
  Se  Se227  1  0.25282563  0.74368045  0.19325881  1
  Se  Se228  1  0.24893546  0.74929190  0.69757962  1
  Se  Se229  1  0.57389460  0.09026590  0.18471333  1
  Se  Se230  1  0.57443409  0.09338317  0.68370750  1
  Se  Se231  1  0.58440055  0.41744947  0.20002399  1
  Se  Se232  1  0.58238330  0.41482854  0.69415424  1
  Se  Se233  1  0.57983349  0.75230553  0.19348866  1
  Se  Se234  1  0.57400389  0.75233181  0.70841100  1
  Se  Se235  1  0.91364285  0.08361560  0.20509709  1
  Se  Se236  1  0.91613422  0.08987571  0.69012127  1
  Se  Se237  1  0.91679085  0.43496757  0.18322189  1
  Se  Se238  1  0.91829676  0.42691418  0.68314629  1
  Se  Se239  1  0.92251608  0.74149730  0.19713000  1
  Se  Se240  1  0.92059371  0.74281268  0.69672519  1
  Se  Se241  1  0.09146544  0.25802086  0.18712639  1
  Se  Se242  1  0.08862093  0.24887630  0.69803618  1
  Se  Se243  1  0.08466189  0.58050045  0.18560659  1
  Se  Se244  1  0.08030856  0.58453541  0.69906851  1
  Se  Se245  1  0.08548715  0.91505114  0.19385301  1
  Se  Se246  1  0.08968354  0.91251466  0.68822155  1
  Se  Se247  1  0.41682908  0.25691074  0.20332444  1
  Se  Se248  1  0.41072763  0.25542765  0.69427412  1
  Se  Se249  1  0.41526248  0.58091010  0.20080370  1
  Se  Se250  1  0.41236691  0.58176364  0.69690899  1
  Se  Se251  1  0.41340583  0.91298699  0.19479672  1
  Se  Se252  1  0.42251214  0.91540821  0.70222185  1
  Se  Se253  1  0.74844499  0.25841674  0.20225860  1
  Se  Se254  1  0.74990066  0.25426536  0.70076747  1
  Se  Se255  1  0.75149666  0.58497388  0.18737187  1
  Se  Se256  1  0.74950219  0.58157980  0.69542263  1
  Se  Se257  1  0.75827223  0.90893273  0.19225811  1
  Se  Se258  1  0.75545973  0.90464800  0.69272137  1
