# generated using pymatgen
data_In86Cu29Se144
_symmetry_space_group_name_H-M   'P 1'
_cell_length_a   17.60037406
_cell_length_b   17.60115420
_cell_length_c   23.46929715
_cell_angle_alpha   90.01909268
_cell_angle_beta   90.00942789
_cell_angle_gamma   89.99860331
_symmetry_Int_Tables_number   1
_chemical_formula_structural   In86Cu29Se144
_chemical_formula_sum   'In86 Cu29 Se144'
_cell_volume   7270.48025382
_cell_formula_units_Z   1
loop_
 _symmetry_equiv_pos_site_id
 _symmetry_equiv_pos_as_xyz
  1  'x, y, z'
loop_
 _atom_site_type_symbol
 _atom_site_label
 _atom_site_symmetry_multiplicity
 _atom_site_fract_x
 _atom_site_fract_y
 _atom_site_fract_z
 _atom_site_occupancy
  In  In0  1  -0.01658886  0.17992811  0.13804277  1
  In  In1  1  -0.00484402  0.16632970  0.62408888  1
  In  In2  1  0.00224494  0.49553400  0.13407748  1
  In  In3  1  0.01406170  0.49327330  0.63571109  1
  In  In4  1  -0.02327991  0.85198857  0.14678929  1
  In  In5  1  -0.00158084  0.83703498  0.62518698  1
  In  In6  1  0.34742614  0.16514957  0.12207464  1
  In  In7  1  0.32350900  0.14614418  0.60429395  1
  In  In8  1  0.32305215  0.50047625  0.12733769  1
  In  In9  1  0.32322854  0.50898318  0.62836157  1
  In  In10  1  0.33552678  0.83143227  0.12760382  1
  In  In11  1  0.32032751  0.85153442  0.62380218  1
  In  In12  1  0.67747583  0.17006926  0.11890126  1
  In  In13  1  0.67114580  0.16386210  0.62364883  1
  In  In14  1  0.65820503  0.49174470  0.12448621  1
  In  In15  1  0.66507870  0.49928679  0.63366862  1
  In  In16  1  0.67243159  0.82295940  0.12041463  1
  In  In17  1  0.67735472  0.82929421  0.63166752  1
  In  In18  1  0.14445785  0.02384099  0.39742027  1
  In  In19  1  0.16094971  -0.00464800  0.85813264  1
  In  In20  1  0.16809315  0.32961301  0.37582465  1
  In  In21  1  0.15266599  0.33210857  0.86883513  1
  In  In22  1  0.14925831  0.67984303  0.39155077  1
  In  In23  1  0.15568730  0.64702815  0.84633795  1
  In  In24  1  0.51099432  0.01317708  0.38291239  1
  In  In25  1  0.50975434  0.01046632  0.86268904  1
  In  In26  1  0.48378406  0.32059908  0.36333893  1
  In  In27  1  0.50298279  0.31616913  0.87721888  1
  In  In28  1  0.50202637  0.66404035  0.38143241  1
  In  In29  1  0.50062668  0.66886795  0.86232634  1
  In  In30  1  0.84786369  -0.01442624  0.39196015  1
  In  In31  1  0.83287779  0.00241445  0.87486075  1
  In  In32  1  0.82670956  0.32210682  0.36670322  1
  In  In33  1  0.83205287  0.32740513  0.86922832  1
  In  In34  1  0.84493445  0.66823528  0.37509941  1
  In  In35  1  0.84961653  0.68229832  0.86689068  1
  In  In36  1  0.00453636  0.16475961  0.37097703  1
  In  In37  1  -0.00859513  0.15754158  0.86879563  1
  In  In38  1  0.00823756  0.50597944  0.37258044  1
  In  In39  1  -0.00617224  0.49523849  0.86357130  1
  In  In40  1  -0.00725233  0.84009692  0.37923707  1
  In  In41  1  -0.00207781  0.83216380  0.87293354  1
  In  In42  1  0.31415756  0.17752598  0.39908513  1
  In  In43  1  0.34477631  0.16641067  0.87317890  1
  In  In44  1  0.32576052  0.48062024  0.37232175  1
  In  In45  1  0.31605886  0.50388270  0.86830540  1
  In  In46  1  0.32739786  0.82030996  0.37985595  1
  In  In47  1  0.32727037  0.82989377  0.85880156  1
  In  In48  1  0.66196139  0.16677037  0.38722061  1
  In  In49  1  0.66876263  0.16619067  0.87112676  1
  In  In50  1  0.67223129  0.49257068  0.37402853  1
  In  In51  1  0.66695786  0.49532127  0.86601152  1
  In  In52  1  0.68925724  0.84063164  0.37954777  1
  In  In53  1  0.67805089  0.84639599  0.86451476  1
  In  In54  1  0.16291496  -0.01069436  0.13023581  1
  In  In55  1  0.16559293  -0.00277233  0.61941708  1
  In  In56  1  0.15646165  0.33581580  0.13961222  1
  In  In57  1  0.15918723  0.32183620  0.61711674  1
  In  In58  1  0.15967120  0.65753328  0.12646876  1
  In  In59  1  0.16016269  0.66942587  0.62353350  1
  In  In60  1  0.48339065  0.00774661  0.12502100  1
  In  In61  1  0.49450471  0.01371189  0.62630301  1
  In  In62  1  0.52072235  0.31984157  0.14039288  1
  In  In63  1  0.51121617  0.32564584  0.62784731  1
  In  In64  1  0.48928818  0.67221348  0.11989168  1
  In  In65  1  0.50347284  0.66633063  0.63210260  1
  In  In66  1  0.83122020  0.00518970  0.11984332  1
  In  In67  1  0.83254082  0.00475676  0.62502766  1
  In  In68  1  0.84279028  0.31716931  0.13376507  1
  In  In69  1  0.84167184  0.32492399  0.63047418  1
  In  In70  1  0.83828954  0.67669211  0.12040312  1
  In  In71  1  0.82901852  0.67525382  0.63122195  1
  In  In72  1  0.51718681  0.85462866  -0.01305334  1
  In  In73  1  0.49558862  0.83974519  0.51166738  1
  In  In74  1  0.16378519  0.49866591  0.00307811  1
  In  In75  1  0.16668311  0.82977749  0.00046023  1
  In  In76  1  0.31836246  0.00832019  0.26624099  1
  In  In77  1  0.16437474  0.16601302  -0.00002271  1
  In  In78  1  0.83777821  0.50183818  0.49972697  1
  In  In79  1  0.49787299  0.49868434  0.00675796  1
  In  In80  1  0.33715193  0.33063967  0.75015083  1
  In  In81  1  0.67272534  0.65712665  0.25809014  1
  In  In82  1  0.49419061  0.49534390  0.49955378  1
  In  In83  1  0.67197291  0.00172269  0.25477289  1
  In  In84  1  0.83183138  0.49480668  -0.00761064  1
  In  In85  1  0.32450293  0.65931689  0.24408078  1
  Cu  Cu86  1  0.83272179  0.16046482  0.25230625  1
  Cu  Cu87  1  0.50154688  0.49738196  0.74906249  1
  Cu  Cu88  1  0.50097133  0.83419914  0.74218509  1
  Cu  Cu89  1  0.33511304  0.32962115  0.00198932  1
  Cu  Cu90  1  0.66747141  0.67598416  0.50480345  1
  Cu  Cu91  1  0.33925911  0.00681035  -0.00661310  1
  Cu  Cu92  1  0.16746577  0.50039577  0.25482373  1
  Cu  Cu93  1  0.50234158  0.16711361  0.74725382  1
  Cu  Cu94  1  0.66835214  0.33024898  0.50189007  1
  Cu  Cu95  1  -0.00326665  0.00257652  0.50526311  1
  Cu  Cu96  1  0.50143272  0.17028235  0.25136389  1
  Cu  Cu97  1  0.16463881  0.16331543  0.73829713  1
  Cu  Cu98  1  0.00122706  0.33103319  0.49799595  1
  Cu  Cu99  1  0.83200896  0.50267523  0.74714744  1
  Cu  Cu100  1  0.83140374  0.16483595  0.74845527  1
  Cu  Cu101  1  0.33166599  0.33243648  0.50008226  1
  Cu  Cu102  1  0.67793687  0.67128726  -0.00520835  1
  Cu  Cu103  1  -0.00029316  0.66841891  -0.00483290  1
  Cu  Cu104  1  0.16883887  0.83538004  0.74181192  1
  Cu  Cu105  1  0.33797975  0.67803151  -0.01313635  1
  Cu  Cu106  1  0.50266880  0.83208678  0.25210715  1
  Cu  Cu107  1  -0.00429574  0.67232435  0.50465711  1
  Cu  Cu108  1  0.66967467  0.32554173  -0.00040244  1
  Cu  Cu109  1  0.83187582  0.49243689  0.25090209  1
  Cu  Cu110  1  0.14924053  0.83166207  0.26106267  1
  Cu  Cu111  1  0.83943828  0.84034578  0.74940247  1
  Cu  Cu112  1  -0.00559197  0.00289222  0.00234486  1
  Cu  Cu113  1  0.66904682  0.00596921  -0.00696752  1
  Cu  Cu114  1  0.32083143  0.66467770  0.50480743  1
  Se  Se115  1  0.07962114  0.07567297  0.06265057  1
  Se  Se116  1  0.08207182  0.08708533  0.55505338  1
  Se  Se117  1  0.07381824  0.40553579  0.05876203  1
  Se  Se118  1  0.07919496  0.41574994  0.55417922  1
  Se  Se119  1  0.07483219  0.74555990  0.06153322  1
  Se  Se120  1  0.08225719  0.75646930  0.55408415  1
  Se  Se121  1  0.42269677  0.08858829  0.04513336  1
  Se  Se122  1  0.43048002  0.08703212  0.54406084  1
  Se  Se123  1  0.40968388  0.40873622  0.06595462  1
  Se  Se124  1  0.40882385  0.40879212  0.56541843  1
  Se  Se125  1  0.41665092  0.76028097  0.04498627  1
  Se  Se126  1  0.40808647  0.73957633  0.56331893  1
  Se  Se127  1  0.75358079  0.08701152  0.04775911  1
  Se  Se128  1  0.76806383  0.10021073  0.55526862  1
  Se  Se129  1  0.74790415  0.40770695  0.05929552  1
  Se  Se130  1  0.74518795  0.41499036  0.56012316  1
  Se  Se131  1  0.75871949  0.75529083  0.04719046  1
  Se  Se132  1  0.75544751  0.75462422  0.55488026  1
  Se  Se133  1  0.24984630  0.25661009  0.06360402  1
  Se  Se134  1  0.24503723  0.24546170  0.54707593  1
  Se  Se135  1  0.26136233  0.59890287  0.05191671  1
  Se  Se136  1  0.23928183  0.57844872  0.55479882  1
  Se  Se137  1  0.26392411  0.92535058  0.05549364  1
  Se  Se138  1  0.25848375  0.93318130  0.54539756  1
  Se  Se139  1  0.58187163  0.24890085  0.05544900  1
  Se  Se140  1  0.58471356  0.24642747  0.55381625  1
  Se  Se141  1  0.59378311  0.59869759  0.05577537  1
  Se  Se142  1  0.58925143  0.58672116  0.55610153  1
  Se  Se143  1  0.59366843  0.93269947  0.06450893  1
  Se  Se144  1  0.59153260  0.92206378  0.56773840  1
  Se  Se145  1  0.91290585  0.24415967  0.05540982  1
  Se  Se146  1  0.91568111  0.25151977  0.55254154  1
  Se  Se147  1  0.92557616  0.58071027  0.05513144  1
  Se  Se148  1  0.92155296  0.58700886  0.56600964  1
  Se  Se149  1  0.91756388  0.91452133  0.05750228  1
  Se  Se150  1  0.91352247  0.91731306  0.55609879  1
  Se  Se151  1  0.08371834  0.24747092  0.44407326  1
  Se  Se152  1  0.07204641  0.25245160  0.94089602  1
  Se  Se153  1  0.07547281  0.58158466  0.45377189  1
  Se  Se154  1  0.07973123  0.58901633  0.93669321  1
  Se  Se155  1  0.07848397  0.91445089  0.45181164  1
  Se  Se156  1  0.08095302  0.92787813  0.94301107  1
  Se  Se157  1  0.42289945  0.25270230  0.45006830  1
  Se  Se158  1  0.41692987  0.24609383  0.94950979  1
  Se  Se159  1  0.40126795  0.58789722  0.44246443  1
  Se  Se160  1  0.41392229  0.58523185  0.93678759  1
  Se  Se161  1  0.41741477  0.91597305  0.43552913  1
  Se  Se162  1  0.40927959  0.92290537  0.92965019  1
  Se  Se163  1  0.75435735  0.25229083  0.44771910  1
  Se  Se164  1  0.75163165  0.24834491  0.94140865  1
  Se  Se165  1  0.74211972  0.59330945  0.44201584  1
  Se  Se166  1  0.74938715  0.59035454  0.93199025  1
  Se  Se167  1  0.74160389  0.92820116  0.45589362  1
  Se  Se168  1  0.75054371  0.91683408  0.94490773  1
  Se  Se169  1  0.26584263  0.05967729  0.45347784  1
  Se  Se170  1  0.24941411  0.07573879  0.93412292  1
  Se  Se171  1  0.24565973  0.41555874  0.44962515  1
  Se  Se172  1  0.25398216  0.40552723  0.94181609  1
  Se  Se173  1  0.24300660  0.75603828  0.45599432  1
  Se  Se174  1  0.24474004  0.74323825  0.92977306  1
  Se  Se175  1  0.59993866  0.07029431  0.45706064  1
  Se  Se176  1  0.58178133  0.08545568  0.94126127  1
  Se  Se177  1  0.58640257  0.40772386  0.44158102  1
  Se  Se178  1  0.58920817  0.41149938  0.94434431  1
  Se  Se179  1  0.58814680  0.75342677  0.44343620  1
  Se  Se180  1  0.59212028  0.74616764  0.93472941  1
  Se  Se181  1  0.92209889  0.08965232  0.44674513  1
  Se  Se182  1  0.91432912  0.08497714  0.94610614  1
  Se  Se183  1  0.91948860  0.40934052  0.43648506  1
  Se  Se184  1  0.92757448  0.40633380  0.93917112  1
  Se  Se185  1  0.91209332  0.75239949  0.44966339  1
  Se  Se186  1  0.91765233  0.75701284  0.94775822  1
  Se  Se187  1  0.26264884  0.25041006  0.31371405  1
  Se  Se188  1  0.24092149  0.23845354  0.80714765  1
  Se  Se189  1  0.24018801  0.58591910  0.31759591  1
  Se  Se190  1  0.26711610  0.59119022  0.79021632  1
  Se  Se191  1  0.23661014  0.90565521  0.31816737  1
  Se  Se192  1  0.25362028  0.92191160  0.79255098  1
  Se  Se193  1  0.58881356  0.24444132  0.30898022  1
  Se  Se194  1  0.58501247  0.25056975  0.80115806  1
  Se  Se195  1  0.57199960  0.57220822  0.31030976  1
  Se  Se196  1  0.58629684  0.58220134  0.80005386  1
  Se  Se197  1  0.58069892  0.90805606  0.31421874  1
  Se  Se198  1  0.58294353  0.91622098  0.79787159  1
  Se  Se199  1  0.91899172  0.24622085  0.30162569  1
  Se  Se200  1  0.91792840  0.24897862  0.80002709  1
  Se  Se201  1  0.91226900  0.57678362  0.30541788  1
  Se  Se202  1  0.91728437  0.58660569  0.79924172  1
  Se  Se203  1  0.90595812  0.91344543  0.30801406  1
  Se  Se204  1  0.92017773  0.92178015  0.80697882  1
  Se  Se205  1  0.09523895  0.08407309  0.30652791  1
  Se  Se206  1  0.07956273  0.08547987  0.79690548  1
  Se  Se207  1  0.08511041  0.41490224  0.30703009  1
  Se  Se208  1  0.10502826  0.43918480  0.80501884  1
  Se  Se209  1  0.06981670  0.74407065  0.31212045  1
  Se  Se210  1  0.08441973  0.75901118  0.80054124  1
  Se  Se211  1  0.42338043  0.09252781  0.31410159  1
  Se  Se212  1  0.41409486  0.08468390  0.79776910  1
  Se  Se213  1  0.42144631  0.42478961  0.30272028  1
  Se  Se214  1  0.42501858  0.42070285  0.81499687  1
  Se  Se215  1  0.42132951  0.74679877  0.30564946  1
  Se  Se216  1  0.41702760  0.74961639  0.79501774  1
  Se  Se217  1  0.75809961  0.08604456  0.31893049  1
  Se  Se218  1  0.74899153  0.08053403  0.80290356  1
  Se  Se219  1  0.74471805  0.41107991  0.30098495  1
  Se  Se220  1  0.75291760  0.41451824  0.80098300  1
  Se  Se221  1  0.76296847  0.75756700  0.30374804  1
  Se  Se222  1  0.75475606  0.75292044  0.80050665  1
  Se  Se223  1  0.24801364  0.08785962  0.18718632  1
  Se  Se224  1  0.25201559  0.08206906  0.68825278  1
  Se  Se225  1  0.24959915  0.41853852  0.19963814  1
  Se  Se226  1  0.24304304  0.41150241  0.68948859  1
  Se  Se227  1  0.23310915  0.76256558  0.19379161  1
  Se  Se228  1  0.25135314  0.75303338  0.68806031  1
  Se  Se229  1  0.57760657  0.08557962  0.19105261  1
  Se  Se230  1  0.58723735  0.08422988  0.69534745  1
  Se  Se231  1  0.58509145  0.42189750  0.20184271  1
  Se  Se232  1  0.58402576  0.41131917  0.69887367  1
  Se  Se233  1  0.57859161  0.74935193  0.19300324  1
  Se  Se234  1  0.58902811  0.74757146  0.69767781  1
  Se  Se235  1  0.91191375  0.07605311  0.19644171  1
  Se  Se236  1  0.91822359  0.08280988  0.69664119  1
  Se  Se237  1  0.91815782  0.41071387  0.19887853  1
  Se  Se238  1  0.91649147  0.41703885  0.69696148  1
  Se  Se239  1  0.92718826  0.73147711  0.19586464  1
  Se  Se240  1  0.91949982  0.75290119  0.69726924  1
  Se  Se241  1  0.08869071  0.23689652  0.20087701  1
  Se  Se242  1  0.07890627  0.25139611  0.69366718  1
  Se  Se243  1  0.08306926  0.58285139  0.20095668  1
  Se  Se244  1  0.08210308  0.59271149  0.69818354  1
  Se  Se245  1  0.07838622  0.92339189  0.20598132  1
  Se  Se246  1  0.08329124  0.92127970  0.69272474  1
  Se  Se247  1  0.41413240  0.25008369  0.19763923  1
  Se  Se248  1  0.41463998  0.23746076  0.68530905  1
  Se  Se249  1  0.42679348  0.57525984  0.19040690  1
  Se  Se250  1  0.41931552  0.57790117  0.69436808  1
  Se  Se251  1  0.41602260  0.91446558  0.20077518  1
  Se  Se252  1  0.41797996  0.91904972  0.69038952  1
  Se  Se253  1  0.74684709  0.24402239  0.19929694  1
  Se  Se254  1  0.74819904  0.25056824  0.69608183  1
  Se  Se255  1  0.75788753  0.57485430  0.18648686  1
  Se  Se256  1  0.74724845  0.58692154  0.69717903  1
  Se  Se257  1  0.75205231  0.90841786  0.19032503  1
  Se  Se258  1  0.75299307  0.92158531  0.69752093  1
