# generated using pymatgen
data_In86Cu29Se144
_symmetry_space_group_name_H-M   'P 1'
_cell_length_a   17.54585782
_cell_length_b   17.54411221
_cell_length_c   23.39765625
_cell_angle_alpha   89.99686087
_cell_angle_beta   90.00284172
_cell_angle_gamma   90.01276263
_symmetry_Int_Tables_number   1
_chemical_formula_structural   In86Cu29Se144
_chemical_formula_sum   'In86 Cu29 Se144'
_cell_volume   7202.41839519
_cell_formula_units_Z   1
loop_
 _symmetry_equiv_pos_site_id
 _symmetry_equiv_pos_as_xyz
  1  'x, y, z'
loop_
 _atom_site_type_symbol
 _atom_site_label
 _atom_site_symmetry_multiplicity
 _atom_site_fract_x
 _atom_site_fract_y
 _atom_site_fract_z
 _atom_site_occupancy
  In  In0  1  -0.01078373  0.15828062  0.12950563  1
  In  In1  1  0.00005554  0.16307067  0.60754333  1
  In  In2  1  0.00728038  0.52317669  0.10509972  1
  In  In3  1  0.00394790  0.48980931  0.62210824  1
  In  In4  1  0.00040157  0.82671654  0.12786553  1
  In  In5  1  0.00084057  0.84178132  0.60578809  1
  In  In6  1  0.32418069  0.15865788  0.12839798  1
  In  In7  1  0.32959245  0.18065016  0.62757833  1
  In  In8  1  0.34120929  0.50927863  0.11657360  1
  In  In9  1  0.32831727  0.48955456  0.62101600  1
  In  In10  1  0.33650386  0.84054583  0.12598616  1
  In  In11  1  0.33737641  0.83434643  0.61778949  1
  In  In12  1  0.67734136  0.16371505  0.13566549  1
  In  In13  1  0.66887737  0.16648056  0.62637499  1
  In  In14  1  0.66707454  0.50329273  0.11942263  1
  In  In15  1  0.65842593  0.51219438  0.63109895  1
  In  In16  1  0.66578698  0.82993524  0.13101783  1
  In  In17  1  0.66928660  0.83432190  0.61572742  1
  In  In18  1  0.16390031  -0.00930350  0.37403100  1
  In  In19  1  0.16006849  -0.00033152  0.87536251  1
  In  In20  1  0.16174424  0.33294596  0.38330770  1
  In  In21  1  0.17200991  0.33287540  0.87133331  1
  In  In22  1  0.15625504  0.67604697  0.38203458  1
  In  In23  1  0.16402947  0.66556682  0.88594047  1
  In  In24  1  0.48669150  -0.00847510  0.36874851  1
  In  In25  1  0.50174763  -0.00962269  0.87952100  1
  In  In26  1  0.51827747  0.34041443  0.37774763  1
  In  In27  1  0.51132531  0.33772863  0.85643262  1
  In  In28  1  0.50837019  0.65794077  0.37753913  1
  In  In29  1  0.52122142  0.64444920  0.89887442  1
  In  In30  1  0.83320426  -0.00570235  0.37060559  1
  In  In31  1  0.82943128  -0.01147719  0.88200196  1
  In  In32  1  0.82008092  0.32979366  0.37280204  1
  In  In33  1  0.82829063  0.35837430  0.88044033  1
  In  In34  1  0.85028856  0.69365778  0.34216343  1
  In  In35  1  0.81927381  0.67490224  0.89704333  1
  In  In36  1  0.01527327  0.13831634  0.39526690  1
  In  In37  1  0.00864245  0.16447197  0.87183993  1
  In  In38  1  0.00037787  0.51294343  0.37098003  1
  In  In39  1  -0.01032267  0.50790343  0.90139085  1
  In  In40  1  -0.00434450  0.83704405  0.36987170  1
  In  In41  1  0.00158351  0.82064348  0.89882042  1
  In  In42  1  0.33074730  0.15099568  0.37676453  1
  In  In43  1  0.32438359  0.18120254  0.86204512  1
  In  In44  1  0.33426620  0.50183232  0.38044596  1
  In  In45  1  0.33857399  0.49285287  0.87728006  1
  In  In46  1  0.32163955  0.84229439  0.37913973  1
  In  In47  1  0.34450627  0.82692335  0.88492529  1
  In  In48  1  0.67535905  0.17465990  0.37302796  1
  In  In49  1  0.65336759  0.16986330  0.87161177  1
  In  In50  1  0.67434677  0.49942426  0.37006660  1
  In  In51  1  0.66271558  0.49963072  0.87703418  1
  In  In52  1  0.66842606  0.83019804  0.36540608  1
  In  In53  1  0.67950875  0.81642126  0.89485889  1
  In  In54  1  0.17178847  -0.01238461  0.13565698  1
  In  In55  1  0.16495964  0.00372015  0.60738381  1
  In  In56  1  0.15426223  0.34988765  0.12354099  1
  In  In57  1  0.16826300  0.33357600  0.62123385  1
  In  In58  1  0.15280067  0.66616812  0.11937267  1
  In  In59  1  0.17065548  0.66678043  0.61613135  1
  In  In60  1  0.51698342  -0.01433057  0.14415379  1
  In  In61  1  0.50912448  -0.00589588  0.61810984  1
  In  In62  1  0.51042263  0.35059623  0.11978394  1
  In  In63  1  0.48418336  0.33924894  0.63763687  1
  In  In64  1  0.52588225  0.68419918  0.10084795  1
  In  In65  1  0.51740816  0.67583058  0.61903851  1
  In  In66  1  0.85636863  -0.03756798  0.16115159  1
  In  In67  1  0.83675441  0.00153449  0.60325455  1
  In  In68  1  0.82388932  0.33171541  0.12238314  1
  In  In69  1  0.83695961  0.32707452  0.62609717  1
  In  In70  1  0.82892926  0.67540228  0.12101910  1
  In  In71  1  0.82100461  0.66843862  0.62527990  1
  In  In72  1  0.33655694  0.66742705  0.24533770  1
  In  In73  1  0.49720931  0.16706716  0.50239177  1
  In  In74  1  0.49813215  0.16207660  -0.00744125  1
  In  In75  1  0.83482156  0.50790257  0.49507366  1
  In  In76  1  -0.00175364  0.00326244  0.75151000  1
  In  In77  1  0.17043802  0.17044072  -0.00718951  1
  In  In78  1  -0.00228899  0.33526813  0.75145833  1
  In  In79  1  0.33967340  0.00625530  0.74128548  1
  In  In80  1  -0.00664731  0.66731405  0.76145830  1
  In  In81  1  0.34384647  0.33014743  0.24844225  1
  In  In82  1  -0.01225135  0.33033465  0.24725953  1
  In  In83  1  0.34510421  0.66580483  0.75639471  1
  In  In84  1  0.83236927  0.16403487  0.00970424  1
  In  In85  1  0.66628949  0.00059911  0.74028409  1
  Cu  Cu86  1  0.82923350  0.16999515  0.74673314  1
  Cu  Cu87  1  0.50391848  0.17086304  0.25832254  1
  Cu  Cu88  1  -0.00064532  0.33212201  0.50074381  1
  Cu  Cu89  1  0.83316183  0.82805993  0.75386907  1
  Cu  Cu90  1  0.33079344  0.34307462  -0.00494004  1
  Cu  Cu91  1  0.66384343  0.34353174  0.50138809  1
  Cu  Cu92  1  0.15647698  0.83174012  0.25499701  1
  Cu  Cu93  1  0.51701300  0.50413816  0.24435494  1
  Cu  Cu94  1  0.50156393  0.50541466  0.75352487  1
  Cu  Cu95  1  0.32551008  -0.00525156  0.49669671  1
  Cu  Cu96  1  0.16419729  0.15734102  0.25441992  1
  Cu  Cu97  1  0.67668662  -0.01433661  0.01544588  1
  Cu  Cu98  1  0.51970271  0.82393197  0.75080794  1
  Cu  Cu99  1  0.66189768  0.33539182  -0.00303573  1
  Cu  Cu100  1  0.33401344  0.33561696  0.50151946  1
  Cu  Cu101  1  0.17180185  0.84003296  0.74829378  1
  Cu  Cu102  1  0.49705081  0.83016129  0.24893249  1
  Cu  Cu103  1  0.00093577  -0.00449179  0.01086656  1
  Cu  Cu104  1  0.31814838  0.67084298  0.00345069  1
  Cu  Cu105  1  0.16256909  0.50815282  0.24566712  1
  Cu  Cu106  1  0.34161743  0.66232336  0.50068892  1
  Cu  Cu107  1  0.67743802  0.67472329  0.49238593  1
  Cu  Cu108  1  0.00103984  0.66903745  0.49000031  1
  Cu  Cu109  1  0.81619999  0.50795025  0.75644992  1
  Cu  Cu110  1  0.34025516  -0.00177982  0.00507496  1
  Cu  Cu111  1  0.16146438  0.49715211  0.74950489  1
  Cu  Cu112  1  0.83255780  0.50413968  0.24217511  1
  Cu  Cu113  1  0.83786136  0.16277594  0.25753713  1
  Cu  Cu114  1  0.66338301  -0.00526994  0.49107224  1
  Se  Se115  1  0.08597333  0.08082625  0.06173741  1
  Se  Se116  1  0.06183159  0.06243067  0.54316944  1
  Se  Se117  1  0.08383806  0.42243322  0.04632269  1
  Se  Se118  1  0.08609254  0.41620676  0.55032701  1
  Se  Se119  1  0.09126910  0.76570495  0.05333868  1
  Se  Se120  1  0.08650315  0.74792152  0.54837536  1
  Se  Se121  1  0.41998051  0.07717890  0.06525931  1
  Se  Se122  1  0.40353165  0.07515934  0.56064307  1
  Se  Se123  1  0.41869127  0.41849899  0.05017909  1
  Se  Se124  1  0.42193432  0.41516107  0.55407781  1
  Se  Se125  1  0.40689813  0.74985367  0.05588955  1
  Se  Se126  1  0.42312473  0.74986711  0.55335436  1
  Se  Se127  1  0.75726676  0.06742419  0.07283879  1
  Se  Se128  1  0.73549508  0.08334128  0.54979765  1
  Se  Se129  1  0.74789481  0.41431195  0.05077020  1
  Se  Se130  1  0.74853754  0.42067639  0.56162757  1
  Se  Se131  1  0.72929549  0.74341314  0.05498949  1
  Se  Se132  1  0.76005487  0.75555101  0.54896594  1
  Se  Se133  1  0.25657860  0.26061041  0.05913114  1
  Se  Se134  1  0.24927349  0.24939332  0.55076570  1
  Se  Se135  1  0.24127525  0.58049174  0.05551709  1
  Se  Se136  1  0.25314080  0.57926604  0.55227369  1
  Se  Se137  1  0.24999505  0.92031751  0.05637397  1
  Se  Se138  1  0.24568536  0.90671364  0.54973855  1
  Se  Se139  1  0.59118610  0.24666259  0.05797690  1
  Se  Se140  1  0.58359017  0.26176069  0.56118062  1
  Se  Se141  1  0.56397517  0.55996303  0.05117105  1
  Se  Se142  1  0.59582754  0.59007619  0.54888151  1
  Se  Se143  1  0.57685047  0.91306454  0.06029801  1
  Se  Se144  1  0.58108610  0.91113296  0.54578800  1
  Se  Se145  1  0.93014860  0.25830377  0.05873620  1
  Se  Se146  1  0.90950343  0.25106226  0.54931935  1
  Se  Se147  1  0.90406528  0.59036534  0.04642843  1
  Se  Se148  1  0.92726050  0.59330309  0.56019603  1
  Se  Se149  1  0.91250081  0.91750966  0.06396191  1
  Se  Se150  1  0.90883606  0.90993294  0.53827700  1
  Se  Se151  1  0.08557262  0.24551331  0.45211364  1
  Se  Se152  1  0.07232552  0.26149657  0.94215931  1
  Se  Se153  1  0.08602293  0.57670710  0.44754670  1
  Se  Se154  1  0.07582569  0.59873692  0.95747702  1
  Se  Se155  1  0.08650162  0.90409182  0.44138980  1
  Se  Se156  1  0.08657970  0.92110587  0.95092967  1
  Se  Se157  1  0.41235149  0.25742151  0.43670147  1
  Se  Se158  1  0.41000374  0.25794403  0.93573135  1
  Se  Se159  1  0.42403756  0.57774550  0.44752493  1
  Se  Se160  1  0.40221700  0.58691337  0.94828905  1
  Se  Se161  1  0.41580347  0.91481321  0.44730981  1
  Se  Se162  1  0.42438183  0.91359505  0.95338356  1
  Se  Se163  1  0.74471236  0.25576681  0.45083669  1
  Se  Se164  1  0.74390259  0.24804670  0.94130098  1
  Se  Se165  1  0.75988832  0.60031554  0.42890605  1
  Se  Se166  1  0.74366982  0.57243479  0.95127701  1
  Se  Se167  1  0.74695119  0.91092306  0.43928106  1
  Se  Se168  1  0.76299334  0.90688746  0.95852209  1
  Se  Se169  1  0.24218534  0.07994640  0.44575237  1
  Se  Se170  1  0.26671546  0.07747738  0.93827348  1
  Se  Se171  1  0.24967221  0.41739671  0.44649410  1
  Se  Se172  1  0.24176423  0.42136922  0.94326919  1
  Se  Se173  1  0.25609763  0.74376717  0.44618611  1
  Se  Se174  1  0.24366150  0.76005784  0.94804348  1
  Se  Se175  1  0.58182223  0.08030107  0.43582226  1
  Se  Se176  1  0.60330981  0.06697699  0.94798673  1
  Se  Se177  1  0.58822573  0.43143715  0.44723361  1
  Se  Se178  1  0.57373392  0.41026833  0.94053453  1
  Se  Se179  1  0.58625959  0.75220700  0.44033665  1
  Se  Se180  1  0.57017476  0.76064939  0.95412839  1
  Se  Se181  1  0.89032440  0.09540385  0.44072687  1
  Se  Se182  1  0.92762508  0.07643119  0.94433130  1
  Se  Se183  1  0.92258047  0.41157727  0.43671251  1
  Se  Se184  1  0.91667055  0.40503226  0.95864579  1
  Se  Se185  1  0.91309443  0.74456143  0.43533517  1
  Se  Se186  1  0.92044730  0.73667380  0.96368504  1
  Se  Se187  1  0.24447955  0.24665000  0.30907088  1
  Se  Se188  1  0.23360343  0.24997732  0.79398974  1
  Se  Se189  1  0.24489016  0.58171934  0.30892802  1
  Se  Se190  1  0.24157811  0.58023363  0.80880130  1
  Se  Se191  1  0.24825985  0.91501253  0.30035813  1
  Se  Se192  1  0.25571378  0.91577686  0.80918000  1
  Se  Se193  1  0.59004441  0.25795911  0.30423687  1
  Se  Se194  1  0.58187158  0.24037721  0.79336416  1
  Se  Se195  1  0.59291271  0.58761905  0.30310980  1
  Se  Se196  1  0.58334239  0.58888729  0.80809703  1
  Se  Se197  1  0.57854857  0.91728407  0.30227192  1
  Se  Se198  1  0.59382897  0.90893880  0.81248907  1
  Se  Se199  1  0.92051914  0.23937937  0.31988027  1
  Se  Se200  1  0.90544916  0.24647725  0.81391686  1
  Se  Se201  1  0.92281171  0.58183315  0.29330612  1
  Se  Se202  1  0.90357022  0.57737071  0.82063833  1
  Se  Se203  1  0.90638283  0.90794745  0.29842375  1
  Se  Se204  1  0.91907910  0.90382977  0.81385594  1
  Se  Se205  1  0.07825217  0.07648058  0.30668556  1
  Se  Se206  1  0.10066582  0.09643178  0.79893121  1
  Se  Se207  1  0.08829728  0.41889604  0.30402958  1
  Se  Se208  1  0.07580177  0.43195196  0.81553398  1
  Se  Se209  1  0.07620298  0.74186332  0.30367731  1
  Se  Se210  1  0.09081960  0.76307113  0.81228934  1
  Se  Se211  1  0.41333887  0.08492055  0.30041462  1
  Se  Se212  1  0.42680666  0.08706985  0.81197455  1
  Se  Se213  1  0.43007109  0.42841371  0.30536733  1
  Se  Se214  1  0.41249269  0.41933190  0.79921006  1
  Se  Se215  1  0.41806364  0.75439983  0.31382560  1
  Se  Se216  1  0.43758374  0.75204285  0.81532078  1
  Se  Se217  1  0.74561205  0.08182685  0.30512239  1
  Se  Se218  1  0.75801170  0.08298744  0.80921107  1
  Se  Se219  1  0.75544760  0.41782777  0.29843991  1
  Se  Se220  1  0.73924372  0.41261791  0.80341834  1
  Se  Se221  1  0.73162730  0.74081176  0.29005118  1
  Se  Se222  1  0.75348786  0.74752846  0.81261780  1
  Se  Se223  1  0.25238609  0.07698284  0.20243592  1
  Se  Se224  1  0.23646416  0.08595565  0.68607246  1
  Se  Se225  1  0.25027709  0.42544644  0.19278680  1
  Se  Se226  1  0.24482980  0.41587507  0.69500728  1
  Se  Se227  1  0.23845637  0.75549487  0.19141575  1
  Se  Se228  1  0.25127474  0.75356697  0.69343009  1
  Se  Se229  1  0.58734704  0.08823697  0.20347215  1
  Se  Se230  1  0.56612834  0.09255319  0.69148878  1
  Se  Se231  1  0.59644423  0.41318029  0.19539986  1
  Se  Se232  1  0.58142439  0.42042783  0.69667660  1
  Se  Se233  1  0.57537455  0.74306511  0.19504300  1
  Se  Se234  1  0.60280564  0.74817259  0.69267963  1
  Se  Se235  1  0.92485455  0.07959271  0.20820612  1
  Se  Se236  1  0.90699204  0.08748922  0.68627690  1
  Se  Se237  1  0.91567472  0.42616999  0.18089254  1
  Se  Se238  1  0.90300291  0.43178976  0.69628257  1
  Se  Se239  1  0.90493835  0.75690341  0.19490514  1
  Se  Se240  1  0.91805721  0.75705396  0.68878021  1
  Se  Se241  1  0.09151485  0.24256664  0.19169010  1
  Se  Se242  1  0.07739358  0.24295680  0.68569850  1
  Se  Se243  1  0.07488406  0.58583933  0.19280464  1
  Se  Se244  1  0.08377463  0.58265230  0.69191804  1
  Se  Se245  1  0.07598693  0.91681869  0.20023451  1
  Se  Se246  1  0.08618881  0.91348971  0.68776047  1
  Se  Se247  1  0.43144009  0.24256846  0.18426422  1
  Se  Se248  1  0.41198082  0.24530194  0.70311267  1
  Se  Se249  1  0.43196857  0.58270236  0.18697579  1
  Se  Se250  1  0.42558669  0.58164231  0.68563059  1
  Se  Se251  1  0.41005441  0.91792612  0.20304932  1
  Se  Se252  1  0.43385332  0.90318489  0.69357136  1
  Se  Se253  1  0.76022457  0.25013839  0.20226734  1
  Se  Se254  1  0.74630367  0.25469543  0.69529904  1
  Se  Se255  1  0.74726837  0.58619016  0.18917567  1
  Se  Se256  1  0.74219360  0.59475934  0.70035722  1
  Se  Se257  1  0.72429598  0.93213051  0.19926199  1
  Se  Se258  1  0.76640694  0.91365754  0.68752359  1
