# generated using pymatgen
data_In86Cu29Se144
_symmetry_space_group_name_H-M   'P 1'
_cell_length_a   17.57219643
_cell_length_b   17.57339556
_cell_length_c   23.43055156
_cell_angle_alpha   89.98333773
_cell_angle_beta   89.96559101
_cell_angle_gamma   90.00273880
_symmetry_Int_Tables_number   1
_chemical_formula_structural   In86Cu29Se144
_chemical_formula_sum   'In86 Cu29 Se144'
_cell_volume   7235.42671379
_cell_formula_units_Z   1
loop_
 _symmetry_equiv_pos_site_id
 _symmetry_equiv_pos_as_xyz
  1  'x, y, z'
loop_
 _atom_site_type_symbol
 _atom_site_label
 _atom_site_symmetry_multiplicity
 _atom_site_fract_x
 _atom_site_fract_y
 _atom_site_fract_z
 _atom_site_occupancy
  In  In0  1  -0.00534762  0.17243084  0.12087617  1
  In  In1  1  -0.00561620  0.17657379  0.63156946  1
  In  In2  1  0.01211517  0.50306958  0.13024352  1
  In  In3  1  -0.00476605  0.48794637  0.62260002  1
  In  In4  1  -0.01785444  0.84101527  0.12727463  1
  In  In5  1  0.00836540  0.85153273  0.60849645  1
  In  In6  1  0.34714774  0.15013337  0.14381756  1
  In  In7  1  0.33236613  0.16858352  0.62044482  1
  In  In8  1  0.33609057  0.49138163  0.12797078  1
  In  In9  1  0.35158949  0.50388591  0.60749785  1
  In  In10  1  0.35423329  0.83293339  0.12888044  1
  In  In11  1  0.33251709  0.84442598  0.60722676  1
  In  In12  1  0.66832109  0.16615993  0.12575039  1
  In  In13  1  0.67481636  0.15244185  0.63512163  1
  In  In14  1  0.65698870  0.51144028  0.13306220  1
  In  In15  1  0.66034709  0.50830284  0.63039411  1
  In  In16  1  0.66681057  0.83678772  0.12765634  1
  In  In17  1  0.67034642  0.83386394  0.61950402  1
  In  In18  1  0.16592368  -0.00609583  0.37810804  1
  In  In19  1  0.15935034  0.01307413  0.86845410  1
  In  In20  1  0.19149364  0.32905452  0.37621636  1
  In  In21  1  0.16419220  0.33648623  0.86696768  1
  In  In22  1  0.15963023  0.67044330  0.38128681  1
  In  In23  1  0.16905360  0.66570615  0.87308411  1
  In  In24  1  0.49341231  -0.01386906  0.37087109  1
  In  In25  1  0.51314007  -0.01041177  0.88242125  1
  In  In26  1  0.50669656  0.33226510  0.36882555  1
  In  In27  1  0.50552038  0.32716831  0.88619533  1
  In  In28  1  0.51071480  0.66625040  0.38041067  1
  In  In29  1  0.50808953  0.65316601  0.88754908  1
  In  In30  1  0.83088661  0.00758632  0.38617001  1
  In  In31  1  0.82716184  0.00060708  0.87255711  1
  In  In32  1  0.81979060  0.32894626  0.37563076  1
  In  In33  1  0.81911721  0.32149995  0.86891441  1
  In  In34  1  0.83459584  0.67283547  0.37223939  1
  In  In35  1  0.83009453  0.68599970  0.87547383  1
  In  In36  1  -0.00488664  0.15005590  0.38327439  1
  In  In37  1  -0.01558491  0.14652587  0.85537503  1
  In  In38  1  -0.00391789  0.51423005  0.37775600  1
  In  In39  1  0.01321662  0.49541568  0.87030820  1
  In  In40  1  0.00738142  0.83072731  0.38651109  1
  In  In41  1  -0.01982588  0.83525530  0.87264627  1
  In  In42  1  0.33100024  0.16804681  0.35886449  1
  In  In43  1  0.33667102  0.17639006  0.87845884  1
  In  In44  1  0.34842730  0.48353518  0.38775318  1
  In  In45  1  0.34636345  0.50508115  0.87804420  1
  In  In46  1  0.33160547  0.84503041  0.38437102  1
  In  In47  1  0.34095656  0.84263644  0.87898394  1
  In  In48  1  0.67543044  0.16805402  0.37084049  1
  In  In49  1  0.66627504  0.16559351  0.87833450  1
  In  In50  1  0.65907093  0.49246509  0.36975582  1
  In  In51  1  0.65657175  0.49292169  0.86939776  1
  In  In52  1  0.66331232  0.83159390  0.37581121  1
  In  In53  1  0.66736828  0.83507106  0.87162074  1
  In  In54  1  0.17418734  0.01222287  0.13286415  1
  In  In55  1  0.16971223  -0.00912723  0.62194120  1
  In  In56  1  0.17026130  0.34105039  0.13263341  1
  In  In57  1  0.15463326  0.32826180  0.61778258  1
  In  In58  1  0.16650678  0.65650101  0.13454690  1
  In  In59  1  0.17359500  0.67147534  0.61496262  1
  In  In60  1  0.50670740  0.00182633  0.12768005  1
  In  In61  1  0.51134538  0.00509349  0.62466035  1
  In  In62  1  0.50374028  0.33338606  0.12716682  1
  In  In63  1  0.50300712  0.34820073  0.62091755  1
  In  In64  1  0.51112061  0.68480179  0.11366572  1
  In  In65  1  0.52522578  0.68051087  0.60392325  1
  In  In66  1  0.82335559  -0.00866846  0.11815237  1
  In  In67  1  0.83132405  -0.00120988  0.62004875  1
  In  In68  1  0.83439687  0.31552427  0.12117408  1
  In  In69  1  0.83634135  0.32254262  0.63178394  1
  In  In70  1  0.82028031  0.67691527  0.13541138  1
  In  In71  1  0.80882164  0.68040826  0.62473279  1
  In  In72  1  0.33717125  0.66489820  0.74963679  1
  In  In73  1  0.49731600  0.16353201  0.49790535  1
  In  In74  1  0.17198534  0.83082682  -0.00172152  1
  In  In75  1  0.00308689  -0.00361472  0.25872259  1
  In  In76  1  0.16597760  0.16452929  0.49664821  1
  In  In77  1  -0.00050674  0.33373994  0.24750920  1
  In  In78  1  0.83171542  0.50031533  0.00079717  1
  In  In79  1  0.33314308  -0.00032555  0.74451183  1
  In  In80  1  0.33789033  0.66408781  0.25455483  1
  In  In81  1  -0.01395390  0.66582156  0.74527056  1
  In  In82  1  0.33012769  0.33145028  0.74482164  1
  In  In83  1  0.17002918  0.16987948  0.00199307  1
  In  In84  1  0.82692805  0.50482767  0.50322906  1
  In  In85  1  0.17379898  0.49811934  0.00330077  1
  Cu  Cu86  1  0.15823150  0.83322841  0.74228714  1
  Cu  Cu87  1  0.67206405  0.67577876  0.00275742  1
  Cu  Cu88  1  0.83066144  0.16066529  0.24954048  1
  Cu  Cu89  1  -0.00917430  0.00015156  -0.00590312  1
  Cu  Cu90  1  0.66629883  0.32705084  0.49882005  1
  Cu  Cu91  1  0.66665993  -0.00450867  0.50044412  1
  Cu  Cu92  1  0.49953143  0.49892757  0.25166231  1
  Cu  Cu93  1  0.16591664  0.50355628  0.25802619  1
  Cu  Cu94  1  0.34504116  0.00069389  0.00652711  1
  Cu  Cu95  1  0.33159300  0.66674489  0.49233472  1
  Cu  Cu96  1  0.66688316  0.00115275  0.00090329  1
  Cu  Cu97  1  0.16683036  0.83141368  0.26101121  1
  Cu  Cu98  1  -0.00144410  0.66903801  0.50167898  1
  Cu  Cu99  1  0.83020072  0.49790834  0.74622774  1
  Cu  Cu100  1  0.16288170  0.49185113  0.74001924  1
  Cu  Cu101  1  -0.00535320  0.32433283  -0.00744467  1
  Cu  Cu102  1  -0.00501645  0.67320007  0.00622995  1
  Cu  Cu103  1  0.50855848  0.82660315  0.74832266  1
  Cu  Cu104  1  0.50674224  0.83671039  0.24993322  1
  Cu  Cu105  1  0.82823547  0.84333941  0.74554863  1
  Cu  Cu106  1  0.50482888  0.50327732  0.74882376  1
  Cu  Cu107  1  0.51057476  0.16717239  0.24982308  1
  Cu  Cu108  1  0.82935140  0.83041016  0.25155178  1
  Cu  Cu109  1  0.34267833  0.32938044  0.00671570  1
  Cu  Cu110  1  0.83022875  0.50111395  0.25497452  1
  Cu  Cu111  1  0.82588969  0.16620750  0.74953729  1
  Cu  Cu112  1  0.50511835  0.16659486  0.75732950  1
  Cu  Cu113  1  -0.00083840  0.33402083  0.50299083  1
  Cu  Cu114  1  0.66276323  0.33394586  0.00087663  1
  Se  Se115  1  0.07607504  0.07226689  0.05643216  1
  Se  Se116  1  0.07768625  0.08436809  0.56318399  1
  Se  Se117  1  0.07379587  0.40359695  0.05493781  1
  Se  Se118  1  0.08377052  0.42164913  0.54918916  1
  Se  Se119  1  0.08180783  0.74718844  0.06525840  1
  Se  Se120  1  0.08705058  0.75367633  0.54967012  1
  Se  Se121  1  0.42120244  0.08856525  0.06051752  1
  Se  Se122  1  0.40686286  0.07075379  0.55696686  1
  Se  Se123  1  0.42215176  0.41893743  0.05660122  1
  Se  Se124  1  0.41545609  0.40235306  0.54411762  1
  Se  Se125  1  0.41268240  0.75265764  0.04992192  1
  Se  Se126  1  0.41247839  0.74598047  0.55119492  1
  Se  Se127  1  0.75093374  0.08622710  0.05301350  1
  Se  Se128  1  0.74550773  0.08487552  0.55277189  1
  Se  Se129  1  0.74371818  0.41224773  0.06340406  1
  Se  Se130  1  0.74430540  0.40765180  0.56277115  1
  Se  Se131  1  0.75460332  0.75716292  0.05709057  1
  Se  Se132  1  0.73168082  0.74089777  0.54505573  1
  Se  Se133  1  0.25781194  0.25441813  0.06711418  1
  Se  Se134  1  0.25872525  0.26022494  0.55173769  1
  Se  Se135  1  0.25962992  0.59260650  0.06098356  1
  Se  Se136  1  0.25264508  0.58275387  0.54948309  1
  Se  Se137  1  0.25573675  0.92394088  0.06234116  1
  Se  Se138  1  0.24160564  0.91966626  0.54308280  1
  Se  Se139  1  0.58363135  0.24892020  0.05720666  1
  Se  Se140  1  0.58914748  0.24654792  0.56256560  1
  Se  Se141  1  0.58964507  0.58727879  0.05287516  1
  Se  Se142  1  0.57386026  0.56174013  0.55127742  1
  Se  Se143  1  0.58469734  0.91742577  0.05639092  1
  Se  Se144  1  0.57970840  0.91649839  0.55353967  1
  Se  Se145  1  0.91229103  0.24087065  0.04507888  1
  Se  Se146  1  0.91520355  0.25096232  0.55447862  1
  Se  Se147  1  0.92036321  0.58762444  0.06539766  1
  Se  Se148  1  0.91702282  0.59452310  0.56561315  1
  Se  Se149  1  0.91157476  0.91447835  0.04826791  1
  Se  Se150  1  0.89511059  0.90139600  0.55108661  1
  Se  Se151  1  0.07690623  0.25900122  0.43643154  1
  Se  Se152  1  0.08029669  0.24841243  0.93415492  1
  Se  Se153  1  0.08142866  0.58301423  0.45138918  1
  Se  Se154  1  0.07593613  0.59230494  0.94675778  1
  Se  Se155  1  0.06478630  0.94011998  0.44574974  1
  Se  Se156  1  0.07859611  0.92109923  0.93821461  1
  Se  Se157  1  0.41067914  0.25112968  0.43493167  1
  Se  Se158  1  0.42137216  0.24252099  0.95308325  1
  Se  Se159  1  0.42211716  0.58417726  0.44589777  1
  Se  Se160  1  0.41419533  0.58196534  0.95388803  1
  Se  Se161  1  0.42611577  0.91361653  0.45163578  1
  Se  Se162  1  0.42350567  0.91430882  0.95222349  1
  Se  Se163  1  0.75204475  0.24277488  0.44956603  1
  Se  Se164  1  0.74780124  0.25043820  0.94907198  1
  Se  Se165  1  0.74071359  0.58659018  0.43709157  1
  Se  Se166  1  0.74496036  0.59066254  0.93899114  1
  Se  Se167  1  0.74930649  0.91269238  0.44586959  1
  Se  Se168  1  0.74774460  0.91748965  0.94331766  1
  Se  Se169  1  0.26276950  0.08114577  0.43781844  1
  Se  Se170  1  0.25933678  0.07247458  0.94339053  1
  Se  Se171  1  0.23762036  0.42794587  0.44785358  1
  Se  Se172  1  0.25987906  0.40280047  0.94192762  1
  Se  Se173  1  0.24641521  0.75442279  0.44553203  1
  Se  Se174  1  0.26268715  0.73790481  0.94074508  1
  Se  Se175  1  0.58899769  0.07677287  0.43755486  1
  Se  Se176  1  0.58190858  0.08550887  0.94891589  1
  Se  Se177  1  0.58505009  0.40979159  0.44418227  1
  Se  Se178  1  0.58231954  0.42236412  0.94961891  1
  Se  Se179  1  0.57166431  0.76489169  0.44775988  1
  Se  Se180  1  0.58705992  0.75278917  0.94419088  1
  Se  Se181  1  0.91558082  0.08180709  0.45798421  1
  Se  Se182  1  0.91280523  0.08637292  0.94015917  1
  Se  Se183  1  0.91622847  0.41214365  0.44102266  1
  Se  Se184  1  0.92050677  0.41307267  0.93593542  1
  Se  Se185  1  0.91353056  0.74833039  0.44734816  1
  Se  Se186  1  0.91402957  0.75461030  0.95093828  1
  Se  Se187  1  0.24951380  0.25488288  0.29344584  1
  Se  Se188  1  0.24206073  0.23670318  0.80372887  1
  Se  Se189  1  0.25039034  0.57831452  0.31848461  1
  Se  Se190  1  0.24214051  0.56727954  0.80495459  1
  Se  Se191  1  0.25183941  0.91756894  0.30736170  1
  Se  Se192  1  0.24149033  0.90774065  0.80696897  1
  Se  Se193  1  0.59363741  0.25162280  0.30238956  1
  Se  Se194  1  0.58385215  0.25395979  0.81020490  1
  Se  Se195  1  0.58161482  0.58480020  0.30383920  1
  Se  Se196  1  0.58303972  0.58960809  0.80459073  1
  Se  Se197  1  0.59053669  0.92024875  0.30279299  1
  Se  Se198  1  0.58362201  0.91777910  0.80158203  1
  Se  Se199  1  0.91309823  0.23996430  0.30961566  1
  Se  Se200  1  0.91247846  0.25233382  0.79975421  1
  Se  Se201  1  0.91568786  0.58610243  0.30298886  1
  Se  Se202  1  0.90592175  0.57552333  0.81364005  1
  Se  Se203  1  0.90873619  0.90864057  0.31462161  1
  Se  Se204  1  0.91438109  0.92267456  0.80010428  1
  Se  Se205  1  0.09330006  0.09503659  0.30894734  1
  Se  Se206  1  0.08279324  0.07982358  0.79145591  1
  Se  Se207  1  0.08356530  0.41958956  0.31454762  1
  Se  Se208  1  0.07992352  0.41102068  0.79476790  1
  Se  Se209  1  0.07867616  0.75015570  0.30903552  1
  Se  Se210  1  0.08342108  0.75317018  0.80637975  1
  Se  Se211  1  0.42633913  0.08376025  0.30267192  1
  Se  Se212  1  0.42009030  0.08479337  0.81267065  1
  Se  Se213  1  0.41592530  0.41489318  0.30382545  1
  Se  Se214  1  0.42356480  0.41871053  0.80668235  1
  Se  Se215  1  0.42284106  0.75978364  0.31204064  1
  Se  Se216  1  0.42545167  0.75402231  0.81142790  1
  Se  Se217  1  0.75355227  0.07521243  0.30561891  1
  Se  Se218  1  0.74307112  0.08358836  0.80478503  1
  Se  Se219  1  0.74819880  0.41219960  0.30249303  1
  Se  Se220  1  0.74707084  0.41677085  0.80321550  1
  Se  Se221  1  0.74419181  0.74782160  0.30411016  1
  Se  Se222  1  0.74971371  0.75363890  0.79889121  1
  Se  Se223  1  0.25097012  0.08145666  0.20865535  1
  Se  Se224  1  0.24184108  0.09288610  0.68978676  1
  Se  Se225  1  0.24967821  0.42308572  0.20243801  1
  Se  Se226  1  0.25186900  0.42453814  0.67944538  1
  Se  Se227  1  0.24768317  0.75811634  0.19435481  1
  Se  Se228  1  0.25050307  0.76025495  0.68903273  1
  Se  Se229  1  0.59213899  0.08091739  0.19725724  1
  Se  Se230  1  0.58265710  0.07841850  0.70354334  1
  Se  Se231  1  0.58529423  0.41591462  0.19831204  1
  Se  Se232  1  0.58545100  0.41462757  0.69797471  1
  Se  Se233  1  0.58529462  0.74912778  0.19597264  1
  Se  Se234  1  0.58857830  0.74657672  0.69015973  1
  Se  Se235  1  0.91485266  0.08243099  0.19046445  1
  Se  Se236  1  0.90764584  0.08598145  0.69159290  1
  Se  Se237  1  0.90632492  0.42363707  0.18794818  1
  Se  Se238  1  0.91643587  0.41473579  0.69731360  1
  Se  Se239  1  0.91822878  0.75035091  0.19956819  1
  Se  Se240  1  0.90961949  0.76332363  0.68445498  1
  Se  Se241  1  0.09025814  0.23846830  0.19182616  1
  Se  Se242  1  0.08542827  0.25570650  0.69599458  1
  Se  Se243  1  0.07998321  0.58584483  0.20673098  1
  Se  Se244  1  0.08774928  0.58401111  0.68675600  1
  Se  Se245  1  0.09124504  0.90789918  0.19181170  1
  Se  Se246  1  0.07780489  0.91981531  0.69230333  1
  Se  Se247  1  0.42303974  0.25215589  0.19979872  1
  Se  Se248  1  0.42867194  0.24133107  0.69015908  1
  Se  Se249  1  0.42739289  0.58329927  0.18813036  1
  Se  Se250  1  0.42774406  0.58255754  0.68634633  1
  Se  Se251  1  0.42140442  0.92181167  0.19980747  1
  Se  Se252  1  0.42367518  0.90449811  0.68915647  1
  Se  Se253  1  0.75189151  0.24927079  0.19716568  1
  Se  Se254  1  0.74138717  0.25322654  0.69977622  1
  Se  Se255  1  0.74639919  0.58570428  0.20201143  1
  Se  Se256  1  0.74892525  0.58669335  0.69799116  1
  Se  Se257  1  0.75138968  0.91859968  0.19763736  1
  Se  Se258  1  0.74242422  0.92257095  0.69127641  1
