# generated using pymatgen
data_In86Cu29Se144
_symmetry_space_group_name_H-M   'P 1'
_cell_length_a   17.59124488
_cell_length_b   17.58661267
_cell_length_c   23.45370619
_cell_angle_alpha   89.98012798
_cell_angle_beta   90.02561099
_cell_angle_gamma   89.99684458
_symmetry_Int_Tables_number   1
_chemical_formula_structural   In86Cu29Se144
_chemical_formula_sum   'In86 Cu29 Se144'
_cell_volume   7255.88152832
_cell_formula_units_Z   1
loop_
 _symmetry_equiv_pos_site_id
 _symmetry_equiv_pos_as_xyz
  1  'x, y, z'
loop_
 _atom_site_type_symbol
 _atom_site_label
 _atom_site_symmetry_multiplicity
 _atom_site_fract_x
 _atom_site_fract_y
 _atom_site_fract_z
 _atom_site_occupancy
  In  In0  1  -0.00167916  0.16889271  0.13059059  1
  In  In1  1  -0.00117901  0.15054085  0.61034872  1
  In  In2  1  -0.00852613  0.49818803  0.12522208  1
  In  In3  1  0.00928248  0.48742065  0.62263744  1
  In  In4  1  0.01011358  0.84043564  0.13143112  1
  In  In5  1  0.01316766  0.85133422  0.62295341  1
  In  In6  1  0.34637604  0.15287393  0.13415481  1
  In  In7  1  0.33419888  0.16243175  0.62258087  1
  In  In8  1  0.34092219  0.48894005  0.13196706  1
  In  In9  1  0.32508304  0.48511832  0.61678268  1
  In  In10  1  0.32932902  0.83557884  0.12754305  1
  In  In11  1  0.34435965  0.83037414  0.62312043  1
  In  In12  1  0.65629363  0.15473986  0.11921679  1
  In  In13  1  0.65289627  0.15397131  0.61717581  1
  In  In14  1  0.66402071  0.49763417  0.12066388  1
  In  In15  1  0.65740846  0.51062131  0.62361372  1
  In  In16  1  0.66314945  0.85706071  0.13003516  1
  In  In17  1  0.66834854  0.84613534  0.62503704  1
  In  In18  1  0.17391129  0.00614692  0.36870278  1
  In  In19  1  0.16523578  0.00360509  0.87317501  1
  In  In20  1  0.16860430  0.33157855  0.37130640  1
  In  In21  1  0.16948277  0.32056312  0.86967846  1
  In  In22  1  0.16859215  0.65037546  0.37799175  1
  In  In23  1  0.18178287  0.67940569  0.87445248  1
  In  In24  1  0.49669647  0.00165852  0.37362388  1
  In  In25  1  0.49816066  -0.00008589  0.87264202  1
  In  In26  1  0.48919366  0.33936433  0.38043727  1
  In  In27  1  0.49374014  0.34303380  0.87652099  1
  In  In28  1  0.48882194  0.68543599  0.38584996  1
  In  In29  1  0.49241781  0.66933283  0.88235652  1
  In  In30  1  0.84500385  0.01850170  0.35575661  1
  In  In31  1  0.83810923  0.01625670  0.87117150  1
  In  In32  1  0.82909874  0.31422425  0.37691291  1
  In  In33  1  0.83557230  0.32812745  0.88746345  1
  In  In34  1  0.83490188  0.67367801  0.37430199  1
  In  In35  1  0.82215019  0.66791198  0.88172416  1
  In  In36  1  -0.00151388  0.16500558  0.37561574  1
  In  In37  1  0.00191581  0.15222360  0.88002594  1
  In  In38  1  0.01730061  0.50012532  0.37535536  1
  In  In39  1  -0.00116236  0.48683308  0.87803964  1
  In  In40  1  0.00192445  0.85493037  0.36328580  1
  In  In41  1  -0.00137360  0.86306987  0.88645208  1
  In  In42  1  0.33183369  0.16538625  0.37409347  1
  In  In43  1  0.33986968  0.17286224  0.86852901  1
  In  In44  1  0.33310781  0.49718241  0.37122083  1
  In  In45  1  0.34047253  0.50533807  0.87168883  1
  In  In46  1  0.33978747  0.85034094  0.35634312  1
  In  In47  1  0.31688358  0.85633417  0.89734133  1
  In  In48  1  0.67379647  0.15532240  0.38440292  1
  In  In49  1  0.67264466  0.16261103  0.87810433  1
  In  In50  1  0.66292105  0.49783136  0.38080945  1
  In  In51  1  0.66193124  0.50565851  0.88500921  1
  In  In52  1  0.65341548  0.83822777  0.37483602  1
  In  In53  1  0.64866169  0.84077488  0.87858980  1
  In  In54  1  0.17381933  -0.01464084  0.13302813  1
  In  In55  1  0.16111526  0.01009719  0.62950227  1
  In  In56  1  0.17109143  0.32338568  0.13526538  1
  In  In57  1  0.18274430  0.33603131  0.61795082  1
  In  In58  1  0.17496003  0.68930229  0.12725846  1
  In  In59  1  0.17817147  0.66027049  0.62093590  1
  In  In60  1  0.49450924  0.00368875  0.12240231  1
  In  In61  1  0.49740570  -0.00255891  0.62477896  1
  In  In62  1  0.49162689  0.32078348  0.12042774  1
  In  In63  1  0.48609247  0.32081387  0.61523700  1
  In  In64  1  0.49027010  0.65813649  0.12255082  1
  In  In65  1  0.50551948  0.66494800  0.60863960  1
  In  In66  1  0.82604661  0.00454191  0.13100865  1
  In  In67  1  0.82980280  0.00627638  0.62727248  1
  In  In68  1  0.83712769  0.33554362  0.12317532  1
  In  In69  1  0.84991714  0.32598831  0.62238957  1
  In  In70  1  0.84280903  0.66086340  0.12169354  1
  In  In71  1  0.82708852  0.66972523  0.62765383  1
  In  In72  1  0.66140291  0.67523271  0.75659129  1
  In  In73  1  0.16709433  0.50494823  -0.00261920  1
  In  In74  1  0.66206304  0.32740639  0.25708274  1
  In  In75  1  0.01100043  0.32439980  0.74982000  1
  In  In76  1  0.66531661  0.32746396  0.74780897  1
  In  In77  1  0.66199990  0.66922255  0.25553258  1
  In  In78  1  0.33653521  0.66879033  0.74704926  1
  In  In79  1  0.17204531  0.15857567  0.00404747  1
  In  In80  1  0.00258661  0.67524583  0.74339254  1
  In  In81  1  0.82908574  0.83527885  0.00910208  1
  In  In82  1  0.82897047  0.83766459  0.50016885  1
  In  In83  1  0.83226734  0.49429311  0.50051682  1
  In  In84  1  0.17143280  0.83625735  0.48881047  1
  In  In85  1  0.00479862  0.66931913  0.24343851  1
  Cu  Cu86  1  0.83572929  0.85111985  0.75193217  1
  Cu  Cu87  1  0.49385686  0.16260277  0.25046401  1
  Cu  Cu88  1  0.17430726  0.16410429  0.74571636  1
  Cu  Cu89  1  0.33191171  0.33057657  0.49445867  1
  Cu  Cu90  1  0.66067413  -0.00427678  0.49914643  1
  Cu  Cu91  1  0.49490452  0.84063460  0.75173557  1
  Cu  Cu92  1  0.16323550  0.16634080  0.25251168  1
  Cu  Cu93  1  0.66323949  0.32828682  0.49990545  1
  Cu  Cu94  1  0.49760305  0.83857469  0.24877904  1
  Cu  Cu95  1  0.00115331  0.66601750  0.49746008  1
  Cu  Cu96  1  0.83402765  0.16219328  0.74736964  1
  Cu  Cu97  1  0.83966001  0.49502133  0.24709398  1
  Cu  Cu98  1  0.34071293  0.33290277  -0.00002284  1
  Cu  Cu99  1  0.00885224  0.32650771  0.49771982  1
  Cu  Cu100  1  0.17096100  0.49608596  0.25088789  1
  Cu  Cu101  1  0.66383210  0.00539584  0.00048274  1
  Cu  Cu102  1  -0.00486096  0.33206744  0.00611610  1
  Cu  Cu103  1  0.66356148  0.66075359  0.00362063  1
  Cu  Cu104  1  0.49422570  0.49780407  0.25096710  1
  Cu  Cu105  1  0.49659198  0.16190788  0.74496926  1
  Cu  Cu106  1  0.83394978  0.49828431  0.76134830  1
  Cu  Cu107  1  0.33712171  0.66075409  0.49598369  1
  Cu  Cu108  1  0.16488719  0.84513178  0.75573943  1
  Cu  Cu109  1  0.00217920  0.66804614  0.00495454  1
  Cu  Cu110  1  0.66506846  0.33144829  0.00160753  1
  Cu  Cu111  1  0.49021716  0.49404674  0.74692030  1
  Cu  Cu112  1  0.33714027  -0.00173421  0.49609440  1
  Cu  Cu113  1  0.33592735  0.66958584  0.00388916  1
  Cu  Cu114  1  0.83337222  0.16787425  0.25010049  1
  Se  Se115  1  0.08227322  0.07564496  0.06641782  1
  Se  Se116  1  0.09595260  0.07962296  0.54730415  1
  Se  Se117  1  0.08521864  0.40896983  0.06040656  1
  Se  Se118  1  0.08931075  0.41288955  0.55062755  1
  Se  Se119  1  0.08058326  0.75400664  0.05733052  1
  Se  Se120  1  0.08177630  0.74644535  0.55784871  1
  Se  Se121  1  0.42007206  0.09235181  0.05257850  1
  Se  Se122  1  0.41838587  0.08058378  0.55347192  1
  Se  Se123  1  0.42031177  0.41862581  0.05451585  1
  Se  Se124  1  0.41688927  0.41553824  0.54735641  1
  Se  Se125  1  0.41687862  0.75318857  0.05824694  1
  Se  Se126  1  0.41599555  0.75024331  0.54789237  1
  Se  Se127  1  0.75253160  0.08285665  0.05378402  1
  Se  Se128  1  0.74686033  0.07821692  0.55262527  1
  Se  Se129  1  0.74927961  0.41456247  0.05544918  1
  Se  Se130  1  0.74276942  0.40588632  0.56450203  1
  Se  Se131  1  0.73703187  0.74290891  0.06707628  1
  Se  Se132  1  0.73832713  0.74245931  0.55766133  1
  Se  Se133  1  0.26022894  0.25454886  0.06057214  1
  Se  Se134  1  0.25327452  0.24420822  0.55003874  1
  Se  Se135  1  0.25527442  0.58658639  0.06368251  1
  Se  Se136  1  0.25167700  0.57925086  0.54857223  1
  Se  Se137  1  0.25418389  0.91990738  0.05522644  1
  Se  Se138  1  0.25616142  0.91883133  0.55799568  1
  Se  Se139  1  0.58083849  0.24653724  0.05256453  1
  Se  Se140  1  0.57772849  0.24403210  0.55034919  1
  Se  Se141  1  0.57736813  0.57801923  0.05461906  1
  Se  Se142  1  0.58553980  0.57753768  0.54435909  1
  Se  Se143  1  0.58131151  0.92063911  0.05281958  1
  Se  Se144  1  0.57859780  0.91256475  0.55357169  1
  Se  Se145  1  0.91500670  0.24483428  0.05698399  1
  Se  Se146  1  0.91968583  0.24576815  0.54765176  1
  Se  Se147  1  0.91800489  0.57859572  0.04948751  1
  Se  Se148  1  0.92259721  0.58941480  0.56191686  1
  Se  Se149  1  0.92252271  0.92484685  0.06279069  1
  Se  Se150  1  0.92350792  0.92805673  0.55476213  1
  Se  Se151  1  0.08932724  0.24567465  0.44096355  1
  Se  Se152  1  0.07860645  0.25552372  0.94541714  1
  Se  Se153  1  0.08695313  0.57776443  0.45330657  1
  Se  Se154  1  0.07708456  0.59533603  0.93554775  1
  Se  Se155  1  0.07556330  0.93065644  0.44160118  1
  Se  Se156  1  0.09998594  0.91999576  0.95074493  1
  Se  Se157  1  0.41663429  0.24414688  0.44551292  1
  Se  Se158  1  0.41932746  0.25000740  0.94286328  1
  Se  Se159  1  0.41940344  0.57750516  0.44124806  1
  Se  Se160  1  0.41258826  0.58122540  0.94906398  1
  Se  Se161  1  0.41429077  0.91188492  0.44021741  1
  Se  Se162  1  0.44166975  0.89833450  0.94211929  1
  Se  Se163  1  0.75107146  0.24406765  0.45329184  1
  Se  Se164  1  0.74900094  0.24568695  0.95064690  1
  Se  Se165  1  0.74822751  0.59282262  0.44353039  1
  Se  Se166  1  0.75243001  0.58058290  0.95286924  1
  Se  Se167  1  0.74695958  0.92723416  0.43544361  1
  Se  Se168  1  0.74588594  0.92265212  0.94113898  1
  Se  Se169  1  0.25109260  0.08068060  0.44469771  1
  Se  Se170  1  0.26434746  0.07996558  0.93970094  1
  Se  Se171  1  0.24947960  0.41605263  0.44134717  1
  Se  Se172  1  0.25445425  0.40835851  0.94009409  1
  Se  Se173  1  0.26292389  0.74478886  0.43349594  1
  Se  Se174  1  0.24603237  0.75192354  0.95626402  1
  Se  Se175  1  0.57703606  0.08124797  0.44719600  1
  Se  Se176  1  0.58109643  0.08434045  0.94234444  1
  Se  Se177  1  0.58283654  0.41380643  0.44759796  1
  Se  Se178  1  0.58168530  0.41583891  0.94776671  1
  Se  Se179  1  0.59362287  0.74628960  0.44684986  1
  Se  Se180  1  0.58532136  0.74482222  0.94741497  1
  Se  Se181  1  0.90707202  0.08487019  0.44003560  1
  Se  Se182  1  0.91476749  0.08332517  0.95006563  1
  Se  Se183  1  0.92445595  0.40887220  0.43929611  1
  Se  Se184  1  0.91527490  0.41879527  0.95232134  1
  Se  Se185  1  0.92893451  0.75258807  0.43946843  1
  Se  Se186  1  0.92170025  0.74954559  0.94292651  1
  Se  Se187  1  0.25160253  0.24855403  0.30297722  1
  Se  Se188  1  0.25443593  0.25153445  0.79724236  1
  Se  Se189  1  0.25162370  0.58317899  0.30197660  1
  Se  Se190  1  0.24137770  0.57917993  0.80427119  1
  Se  Se191  1  0.23045445  0.90664631  0.29779500  1
  Se  Se192  1  0.25541170  0.91972241  0.80890800  1
  Se  Se193  1  0.57281075  0.23835674  0.31619043  1
  Se  Se194  1  0.57369503  0.24295963  0.80854606  1
  Se  Se195  1  0.57309099  0.57614086  0.31208499  1
  Se  Se196  1  0.57006328  0.57500834  0.80760468  1
  Se  Se197  1  0.58083538  0.92148169  0.30184061  1
  Se  Se198  1  0.58518686  0.92140867  0.80016626  1
  Se  Se199  1  0.91679619  0.25043380  0.30361680  1
  Se  Se200  1  0.91099257  0.24426860  0.80936472  1
  Se  Se201  1  0.91492590  0.57825599  0.30886134  1
  Se  Se202  1  0.91503017  0.58601439  0.81215208  1
  Se  Se203  1  0.90379943  0.91080427  0.29525792  1
  Se  Se204  1  0.92196650  0.92837652  0.80592308  1
  Se  Se205  1  0.07911419  0.08257049  0.30449298  1
  Se  Se206  1  0.08710666  0.08962114  0.80336617  1
  Se  Se207  1  0.08314938  0.41486482  0.30116228  1
  Se  Se208  1  0.09488650  0.42480326  0.80621259  1
  Se  Se209  1  0.08798326  0.74859810  0.31404976  1
  Se  Se210  1  0.08336512  0.76235219  0.81297726  1
  Se  Se211  1  0.40945738  0.07834457  0.30340969  1
  Se  Se212  1  0.41500286  0.08050738  0.80191426  1
  Se  Se213  1  0.41302503  0.41008978  0.30189625  1
  Se  Se214  1  0.40852422  0.41304552  0.80141840  1
  Se  Se215  1  0.41960548  0.74830994  0.30082930  1
  Se  Se216  1  0.41613091  0.75927369  0.81238622  1
  Se  Se217  1  0.73910584  0.08943012  0.29853115  1
  Se  Se218  1  0.74574823  0.08479339  0.80085539  1
  Se  Se219  1  0.75827519  0.42239891  0.31103114  1
  Se  Se220  1  0.75043320  0.41734460  0.81541845  1
  Se  Se221  1  0.75576332  0.76183217  0.30743677  1
  Se  Se222  1  0.75827515  0.76714389  0.81092425  1
  Se  Se223  1  0.24606632  0.08502079  0.19685053  1
  Se  Se224  1  0.25800183  0.07783962  0.69576491  1
  Se  Se225  1  0.25402102  0.41046300  0.19945418  1
  Se  Se226  1  0.24771233  0.41866553  0.69472541  1
  Se  Se227  1  0.25680243  0.75223421  0.20287035  1
  Se  Se228  1  0.23840086  0.76196720  0.69256772  1
  Se  Se229  1  0.57867548  0.08247088  0.19565038  1
  Se  Se230  1  0.58252888  0.07836434  0.69554741  1
  Se  Se231  1  0.57723536  0.41799870  0.19312510  1
  Se  Se232  1  0.57508222  0.41807279  0.68789827  1
  Se  Se233  1  0.57644863  0.75476118  0.18882118  1
  Se  Se234  1  0.57131631  0.75546819  0.69057240  1
  Se  Se235  1  0.91645621  0.08321159  0.19798237  1
  Se  Se236  1  0.92186145  0.08558773  0.69227589  1
  Se  Se237  1  0.92172393  0.40996665  0.19697947  1
  Se  Se238  1  0.91232214  0.42285496  0.69789057  1
  Se  Se239  1  0.90613564  0.75814938  0.19116339  1
  Se  Se240  1  0.90768868  0.76902866  0.68782180  1
  Se  Se241  1  0.07830993  0.25140513  0.20149656  1
  Se  Se242  1  0.09159627  0.23902840  0.68198209  1
  Se  Se243  1  0.09520785  0.57601506  0.18533926  1
  Se  Se244  1  0.09141130  0.57669486  0.69169834  1
  Se  Se245  1  0.08861434  0.91248777  0.20619677  1
  Se  Se246  1  0.08118724  0.92684898  0.70160663  1
  Se  Se247  1  0.41442880  0.25288849  0.20000735  1
  Se  Se248  1  0.41384546  0.24859429  0.69414086  1
  Se  Se249  1  0.41269833  0.58417330  0.19906875  1
  Se  Se250  1  0.42250928  0.58042304  0.68293896  1
  Se  Se251  1  0.41536230  0.92142192  0.19421514  1
  Se  Se252  1  0.41059282  0.91891060  0.69576452  1
  Se  Se253  1  0.74873497  0.24496219  0.18954517  1
  Se  Se254  1  0.75637465  0.24171656  0.68544213  1
  Se  Se255  1  0.75485512  0.57741048  0.19369917  1
  Se  Se256  1  0.75383595  0.57617861  0.70009629  1
  Se  Se257  1  0.75067056  0.91972695  0.20237927  1
  Se  Se258  1  0.74624902  0.92479306  0.69710962  1
