# generated using pymatgen
data_In86Cu29Se144
_symmetry_space_group_name_H-M   'P 1'
_cell_length_a   17.57626290
_cell_length_b   17.57296713
_cell_length_c   23.43745010
_cell_angle_alpha   89.99758845
_cell_angle_beta   90.01319714
_cell_angle_gamma   89.97583596
_symmetry_Int_Tables_number   1
_chemical_formula_structural   In86Cu29Se144
_chemical_formula_sum   'In86 Cu29 Se144'
_cell_volume   7239.05617561
_cell_formula_units_Z   1
loop_
 _symmetry_equiv_pos_site_id
 _symmetry_equiv_pos_as_xyz
  1  'x, y, z'
loop_
 _atom_site_type_symbol
 _atom_site_label
 _atom_site_symmetry_multiplicity
 _atom_site_fract_x
 _atom_site_fract_y
 _atom_site_fract_z
 _atom_site_occupancy
  In  In0  1  0.00066504  0.17070228  0.12243927  1
  In  In1  1  0.01880092  0.17338447  0.62389523  1
  In  In2  1  -0.01073662  0.48842316  0.11719841  1
  In  In3  1  -0.00524288  0.50005870  0.62517774  1
  In  In4  1  -0.00042877  0.85005303  0.12589896  1
  In  In5  1  -0.01392932  0.82532881  0.62670664  1
  In  In6  1  0.32622759  0.17600731  0.12848182  1
  In  In7  1  0.30487823  0.19610826  0.65506565  1
  In  In8  1  0.31817488  0.49649862  0.12164503  1
  In  In9  1  0.32690991  0.50503329  0.63216573  1
  In  In10  1  0.34342053  0.83970602  0.12509931  1
  In  In11  1  0.33186028  0.83299539  0.63252959  1
  In  In12  1  0.67291552  0.15883409  0.13055003  1
  In  In13  1  0.67616504  0.17608467  0.62376161  1
  In  In14  1  0.68031939  0.48960911  0.13431988  1
  In  In15  1  0.67946894  0.49808325  0.62445003  1
  In  In16  1  0.67312974  0.82082741  0.13741124  1
  In  In17  1  0.65560578  0.83180420  0.62252081  1
  In  In18  1  0.17479273  0.01422365  0.36852356  1
  In  In19  1  0.17895016  0.00498128  0.87627176  1
  In  In20  1  0.16307121  0.33147335  0.37826680  1
  In  In21  1  0.16538002  0.32957909  0.87493921  1
  In  In22  1  0.15998780  0.65091872  0.38146897  1
  In  In23  1  0.15247831  0.65331253  0.86416260  1
  In  In24  1  0.50625428  0.00376620  0.36238634  1
  In  In25  1  0.48533424  0.01346628  0.87497953  1
  In  In26  1  0.49693145  0.33718705  0.36756568  1
  In  In27  1  0.50087788  0.32070647  0.85922864  1
  In  In28  1  0.51300547  0.65895525  0.37816418  1
  In  In29  1  0.49840114  0.66450260  0.86574704  1
  In  In30  1  0.82993151  -0.00388355  0.36214554  1
  In  In31  1  0.83691217  -0.00223476  0.88632946  1
  In  In32  1  0.83580631  0.33488656  0.36890928  1
  In  In33  1  0.83732237  0.33536977  0.87594634  1
  In  In34  1  0.82550192  0.65862507  0.38102428  1
  In  In35  1  0.83201675  0.66158462  0.87745603  1
  In  In36  1  0.00774886  0.18133017  0.36823341  1
  In  In37  1  -0.00423227  0.17262095  0.87897579  1
  In  In38  1  0.01253031  0.49046755  0.38867947  1
  In  In39  1  -0.00029482  0.49732766  0.87699439  1
  In  In40  1  -0.01083235  0.83285613  0.37145197  1
  In  In41  1  -0.00379551  0.82042957  0.87438255  1
  In  In42  1  0.32747379  0.16515605  0.37159630  1
  In  In43  1  0.32306059  0.15840485  0.85975944  1
  In  In44  1  0.32950990  0.48590934  0.37756585  1
  In  In45  1  0.31779414  0.48242351  0.86328159  1
  In  In46  1  0.32855789  0.84229628  0.37363582  1
  In  In47  1  0.33389938  0.83519821  0.86680342  1
  In  In48  1  0.66774907  0.16863718  0.36511410  1
  In  In49  1  0.67103869  0.18043474  0.87348710  1
  In  In50  1  0.67776501  0.50135841  0.37314305  1
  In  In51  1  0.67271810  0.50474493  0.86996383  1
  In  In52  1  0.66756770  0.83387269  0.36603143  1
  In  In53  1  0.67824289  0.83351736  0.87773445  1
  In  In54  1  0.15446488  0.01606523  0.13269397  1
  In  In55  1  0.16845733  0.01619417  0.62472055  1
  In  In56  1  0.16510868  0.33117966  0.12345779  1
  In  In57  1  0.15716955  0.33473108  0.63035537  1
  In  In58  1  0.16995687  0.65332778  0.11929621  1
  In  In59  1  0.16830277  0.65717520  0.62867864  1
  In  In60  1  0.49918761  -0.00701638  0.14154036  1
  In  In61  1  0.49207234  -0.00594178  0.62225149  1
  In  In62  1  0.50243983  0.33279771  0.13222244  1
  In  In63  1  0.49946927  0.32642380  0.63287518  1
  In  In64  1  0.51005427  0.67740392  0.12768293  1
  In  In65  1  0.50548556  0.66180831  0.63344979  1
  In  In66  1  0.83600647  0.00284166  0.12217031  1
  In  In67  1  0.83083373  0.00103517  0.62109365  1
  In  In68  1  0.83523317  0.33320698  0.12379095  1
  In  In69  1  0.81924655  0.35540187  0.63220811  1
  In  In70  1  0.82556726  0.65510333  0.11839566  1
  In  In71  1  0.84234298  0.64955476  0.63179675  1
  In  In72  1  0.34064954  0.67132539  0.24691128  1
  In  In73  1  0.50255877  0.16851325  -0.00167769  1
  In  In74  1  0.50556189  0.49615573  0.50746958  1
  In  In75  1  0.83098995  0.82695055  0.49130617  1
  In  In76  1  0.00486108  0.00159021  0.75431889  1
  In  In77  1  0.50314493  0.49784179  -0.00529878  1
  In  In78  1  -0.00120047  0.66592972  0.25463701  1
  In  In79  1  0.49890451  0.16647990  0.50177889  1
  In  In80  1  0.16297484  0.82704669  0.50462941  1
  In  In81  1  0.50410361  0.83326719  0.00769341  1
  In  In82  1  0.16255803  0.83462726  -0.00099517  1
  In  In83  1  0.83782342  0.17129273  0.49664014  1
  In  In84  1  0.66153570  0.00189485  0.75220708  1
  In  In85  1  0.50321228  0.83632414  0.49030478  1
  Cu  Cu86  1  0.50381677  0.50155091  0.74592464  1
  Cu  Cu87  1  0.83639526  0.83660116  0.24720559  1
  Cu  Cu88  1  0.33581179  0.66345853  0.50816924  1
  Cu  Cu89  1  0.16183588  0.49704878  0.74970679  1
  Cu  Cu90  1  -0.00505847  0.66557271  -0.00561016  1
  Cu  Cu91  1  0.67745795  0.33693667  -0.00160136  1
  Cu  Cu92  1  0.50333216  0.50148249  0.25300918  1
  Cu  Cu93  1  0.32668015  0.33015996  -0.00315205  1
  Cu  Cu94  1  0.00265988  0.33435647  -0.00042742  1
  Cu  Cu95  1  0.83614023  0.16736991  0.24437918  1
  Cu  Cu96  1  0.67529373  0.00110403  0.00463346  1
  Cu  Cu97  1  0.32384910  0.65839834  -0.00807301  1
  Cu  Cu98  1  0.67248372  0.66304601  0.00187246  1
  Cu  Cu99  1  0.32044170  0.33071605  0.50441051  1
  Cu  Cu100  1  0.83637782  0.49805726  0.75438674  1
  Cu  Cu101  1  0.00542829  0.00430890  0.49313695  1
  Cu  Cu102  1  0.83249853  0.49821149  0.24770049  1
  Cu  Cu103  1  0.49880540  0.83203518  0.74897863  1
  Cu  Cu104  1  0.16637619  0.17245177  0.24883866  1
  Cu  Cu105  1  0.17065113  0.84135132  0.24964911  1
  Cu  Cu106  1  0.16558244  0.83072527  0.74899465  1
  Cu  Cu107  1  0.83980949  0.17355529  0.75021594  1
  Cu  Cu108  1  0.33090631  0.00943691  0.00336912  1
  Cu  Cu109  1  0.49468360  0.17216222  0.24987145  1
  Cu  Cu110  1  -0.00054397  0.33391188  0.50364378  1
  Cu  Cu111  1  -0.00110906  0.00714758  0.00368080  1
  Cu  Cu112  1  0.32760588  0.01738870  0.50021259  1
  Cu  Cu113  1  0.16493038  0.49001388  0.25060962  1
  Cu  Cu114  1  0.82760454  0.81829632  0.75074608  1
  Se  Se115  1  0.08728961  0.08947412  0.05181111  1
  Se  Se116  1  0.08507137  0.08574035  0.54944373  1
  Se  Se117  1  0.08693600  0.41769731  0.05316175  1
  Se  Se118  1  0.08246047  0.41789036  0.55717314  1
  Se  Se119  1  0.07305563  0.74281954  0.06038757  1
  Se  Se120  1  0.07071082  0.73789292  0.56030730  1
  Se  Se121  1  0.41898024  0.07864525  0.06431094  1
  Se  Se122  1  0.40422987  0.09000314  0.56615442  1
  Se  Se123  1  0.41218952  0.40774148  0.05585479  1
  Se  Se124  1  0.40712278  0.40761468  0.56220061  1
  Se  Se125  1  0.40439068  0.73484828  0.05470059  1
  Se  Se126  1  0.41745750  0.74938136  0.55954108  1
  Se  Se127  1  0.75494485  0.09093190  0.05378607  1
  Se  Se128  1  0.74214582  0.07745455  0.55202885  1
  Se  Se129  1  0.75538230  0.42201392  0.05396792  1
  Se  Se130  1  0.75202904  0.41955457  0.54796114  1
  Se  Se131  1  0.74804845  0.75246237  0.05656087  1
  Se  Se132  1  0.75306700  0.74715207  0.56553853  1
  Se  Se133  1  0.24635472  0.24668158  0.05231564  1
  Se  Se134  1  0.24383652  0.24800378  0.56273183  1
  Se  Se135  1  0.24353013  0.57338237  0.04485905  1
  Se  Se136  1  0.24933461  0.57928689  0.55518159  1
  Se  Se137  1  0.25117076  0.92466911  0.06108233  1
  Se  Se138  1  0.25705809  0.92254904  0.55656785  1
  Se  Se139  1  0.59277591  0.25894189  0.05795327  1
  Se  Se140  1  0.59090758  0.26190272  0.55493684  1
  Se  Se141  1  0.58972839  0.58380077  0.06115734  1
  Se  Se142  1  0.59366925  0.59518134  0.55829939  1
  Se  Se143  1  0.59271814  0.92512029  0.06529887  1
  Se  Se144  1  0.59140836  0.92951633  0.55121244  1
  Se  Se145  1  0.91700143  0.25211558  0.05297500  1
  Se  Se146  1  0.91806860  0.25709832  0.56586218  1
  Se  Se147  1  0.91502348  0.58097304  0.05071081  1
  Se  Se148  1  0.90263240  0.56761239  0.55366746  1
  Se  Se149  1  0.91636450  0.91742505  0.05073845  1
  Se  Se150  1  0.92433878  0.92420753  0.55148213  1
  Se  Se151  1  0.08133658  0.24875669  0.44956122  1
  Se  Se152  1  0.08499004  0.24883439  0.94732921  1
  Se  Se153  1  0.08379118  0.58190178  0.45715140  1
  Se  Se154  1  0.08342105  0.58338150  0.94606821  1
  Se  Se155  1  0.08287855  0.91774824  0.43619127  1
  Se  Se156  1  0.07378781  0.92604728  0.93769580  1
  Se  Se157  1  0.40791966  0.26003521  0.44269447  1
  Se  Se158  1  0.41105581  0.25351358  0.93701027  1
  Se  Se159  1  0.41196211  0.58474178  0.44354868  1
  Se  Se160  1  0.40827164  0.58162749  0.93389660  1
  Se  Se161  1  0.40840181  0.93578633  0.44142558  1
  Se  Se162  1  0.40861158  0.92144315  0.94716022  1
  Se  Se163  1  0.74220266  0.25595658  0.43917547  1
  Se  Se164  1  0.75694579  0.24829439  0.94660611  1
  Se  Se165  1  0.75186083  0.57460941  0.45167350  1
  Se  Se166  1  0.75070796  0.57672411  0.94752061  1
  Se  Se167  1  0.74312764  0.92571680  0.43923609  1
  Se  Se168  1  0.75292588  0.91207879  0.95198982  1
  Se  Se169  1  0.24162012  0.09563913  0.44665151  1
  Se  Se170  1  0.25433486  0.09220187  0.94577949  1
  Se  Se171  1  0.24243185  0.41779752  0.44972585  1
  Se  Se172  1  0.24505857  0.41740355  0.94587849  1
  Se  Se173  1  0.25994291  0.74180111  0.44232373  1
  Se  Se174  1  0.24884352  0.74594296  0.93493272  1
  Se  Se175  1  0.58856489  0.08069140  0.43822574  1
  Se  Se176  1  0.59385744  0.07448677  0.94027156  1
  Se  Se177  1  0.58662316  0.41079218  0.43920699  1
  Se  Se178  1  0.58810875  0.40324293  0.93543360  1
  Se  Se179  1  0.60205072  0.74199252  0.44489759  1
  Se  Se180  1  0.58617282  0.73985355  0.94364880  1
  Se  Se181  1  0.92089275  0.07858791  0.43279949  1
  Se  Se182  1  0.91498475  0.08934428  0.94925013  1
  Se  Se183  1  0.91446412  0.40918101  0.44528600  1
  Se  Se184  1  0.91648724  0.41772433  0.94789563  1
  Se  Se185  1  0.93081742  0.73463144  0.44323051  1
  Se  Se186  1  0.90976651  0.75190092  0.94718842  1
  Se  Se187  1  0.24798523  0.25498359  0.30605078  1
  Se  Se188  1  0.26152133  0.26766076  0.80396233  1
  Se  Se189  1  0.24600545  0.57905656  0.30457607  1
  Se  Se190  1  0.24973731  0.58320680  0.79921431  1
  Se  Se191  1  0.25407568  0.92448978  0.30177604  1
  Se  Se192  1  0.24559198  0.91684399  0.80249740  1
  Se  Se193  1  0.58140528  0.25398214  0.30126033  1
  Se  Se194  1  0.59005215  0.24067791  0.79553461  1
  Se  Se195  1  0.58958885  0.58248650  0.30429717  1
  Se  Se196  1  0.58632417  0.58377272  0.80144731  1
  Se  Se197  1  0.58601607  0.91555702  0.29914689  1
  Se  Se198  1  0.57311290  0.91081069  0.81564999  1
  Se  Se199  1  0.91707118  0.25252913  0.29890301  1
  Se  Se200  1  0.92189783  0.25464687  0.80497559  1
  Se  Se201  1  0.91407720  0.57149757  0.31293591  1
  Se  Se202  1  0.91828474  0.58345630  0.80811690  1
  Se  Se203  1  0.92335717  0.91927923  0.29738499  1
  Se  Se204  1  0.90559158  0.90880451  0.80642268  1
  Se  Se205  1  0.08201764  0.08763979  0.30180196  1
  Se  Se206  1  0.09328733  0.09405262  0.81007232  1
  Se  Se207  1  0.07936010  0.41452756  0.30790015  1
  Se  Se208  1  0.08137441  0.41531675  0.80702565  1
  Se  Se209  1  0.09744643  0.75589439  0.31098762  1
  Se  Se210  1  0.07834211  0.74974432  0.80002317  1
  Se  Se211  1  0.41336101  0.08643193  0.30285239  1
  Se  Se212  1  0.42042571  0.08676839  0.79586588  1
  Se  Se213  1  0.41195981  0.42028549  0.30052976  1
  Se  Se214  1  0.42231964  0.41883169  0.80095891  1
  Se  Se215  1  0.42463124  0.75320402  0.31617041  1
  Se  Se216  1  0.41307492  0.74818692  0.80034126  1
  Se  Se217  1  0.74991298  0.08488211  0.29715678  1
  Se  Se218  1  0.76355347  0.08498638  0.80839332  1
  Se  Se219  1  0.74813872  0.41392464  0.30028670  1
  Se  Se220  1  0.75070916  0.41303468  0.80528391  1
  Se  Se221  1  0.76341734  0.75135564  0.30774865  1
  Se  Se222  1  0.74364247  0.74161047  0.80750455  1
  Se  Se223  1  0.25148125  0.08654924  0.19769212  1
  Se  Se224  1  0.25378645  0.07296024  0.70156882  1
  Se  Se225  1  0.25064861  0.41157773  0.19540589  1
  Se  Se226  1  0.24812725  0.41542178  0.69730918  1
  Se  Se227  1  0.24031622  0.75524479  0.18695144  1
  Se  Se228  1  0.24814035  0.74628771  0.69558054  1
  Se  Se229  1  0.58116054  0.08779327  0.19942668  1
  Se  Se230  1  0.58119618  0.08743620  0.68401399  1
  Se  Se231  1  0.58554161  0.41617746  0.19899406  1
  Se  Se232  1  0.58563033  0.42063447  0.68962186  1
  Se  Se233  1  0.57657165  0.75470941  0.20439937  1
  Se  Se234  1  0.58674686  0.75112142  0.69884431  1
  Se  Se235  1  0.92043488  0.08377927  0.19126469  1
  Se  Se236  1  0.91343096  0.08777406  0.68916944  1
  Se  Se237  1  0.91767874  0.41499820  0.19609903  1
  Se  Se238  1  0.91983723  0.41534567  0.69963421  1
  Se  Se239  1  0.91389171  0.75192461  0.18735152  1
  Se  Se240  1  0.91801975  0.74092754  0.70049482  1
  Se  Se241  1  0.08104206  0.25292538  0.19441009  1
  Se  Se242  1  0.08616908  0.24622594  0.70266079  1
  Se  Se243  1  0.08557777  0.57423741  0.19197126  1
  Se  Se244  1  0.07889348  0.58132357  0.69622430  1
  Se  Se245  1  0.08201512  0.92162415  0.19943174  1
  Se  Se246  1  0.08626329  0.91032518  0.68619501  1
  Se  Se247  1  0.41147566  0.25585875  0.19709053  1
  Se  Se248  1  0.42360339  0.24774185  0.70535086  1
  Se  Se249  1  0.42381354  0.57419845  0.18522480  1
  Se  Se250  1  0.41439491  0.58618106  0.69847040  1
  Se  Se251  1  0.41307811  0.90903435  0.20452053  1
  Se  Se252  1  0.41641275  0.91785223  0.69797013  1
  Se  Se253  1  0.75047452  0.25276138  0.19374528  1
  Se  Se254  1  0.75229567  0.25335881  0.69757446  1
  Se  Se255  1  0.74981307  0.58874756  0.19967942  1
  Se  Se256  1  0.74929839  0.58035234  0.70158173  1
  Se  Se257  1  0.75378020  0.92019748  0.19342232  1
  Se  Se258  1  0.75548120  0.90910305  0.69236205  1
