# generated using pymatgen
data_In86Cu29Se144
_symmetry_space_group_name_H-M   'P 1'
_cell_length_a   17.59042468
_cell_length_b   17.59034635
_cell_length_c   23.45456285
_cell_angle_alpha   90.02394801
_cell_angle_beta   90.01263237
_cell_angle_gamma   89.98477239
_symmetry_Int_Tables_number   1
_chemical_formula_structural   In86Cu29Se144
_chemical_formula_sum   'In86 Cu29 Se144'
_cell_volume   7257.34876862
_cell_formula_units_Z   1
loop_
 _symmetry_equiv_pos_site_id
 _symmetry_equiv_pos_as_xyz
  1  'x, y, z'
loop_
 _atom_site_type_symbol
 _atom_site_label
 _atom_site_symmetry_multiplicity
 _atom_site_fract_x
 _atom_site_fract_y
 _atom_site_fract_z
 _atom_site_occupancy
  In  In0  1  0.00267546  0.16832089  0.13420042  1
  In  In1  1  -0.00882144  0.15253518  0.62358516  1
  In  In2  1  -0.00977137  0.49128185  0.12045479  1
  In  In3  1  0.00572936  0.50325894  0.61440890  1
  In  In4  1  0.01257138  0.84810187  0.11361016  1
  In  In5  1  0.00416898  0.84117977  0.61891384  1
  In  In6  1  0.31858345  0.16530801  0.12562953  1
  In  In7  1  0.34156399  0.17598774  0.62721817  1
  In  In8  1  0.33539664  0.49461893  0.11037042  1
  In  In9  1  0.32175721  0.49778586  0.62418418  1
  In  In10  1  0.33685404  0.83832768  0.12624513  1
  In  In11  1  0.33235053  0.83563173  0.61032430  1
  In  In12  1  0.68584907  0.16712427  0.12144550  1
  In  In13  1  0.65537114  0.15828031  0.62913044  1
  In  In14  1  0.67366548  0.50157215  0.12304932  1
  In  In15  1  0.68103206  0.49838561  0.62704788  1
  In  In16  1  0.66457231  0.82217363  0.12155852  1
  In  In17  1  0.67127651  0.83281881  0.62901486  1
  In  In18  1  0.16601251  0.00261552  0.37661883  1
  In  In19  1  0.15101443  0.00076517  0.87632856  1
  In  In20  1  0.14744770  0.34039579  0.39164337  1
  In  In21  1  0.17431220  0.33344424  0.87819756  1
  In  In22  1  0.15855790  0.67383304  0.37831444  1
  In  In23  1  0.16453683  0.67017501  0.88026402  1
  In  In24  1  0.48044778  -0.00392199  0.37541144  1
  In  In25  1  0.49606396  -0.01742561  0.87665387  1
  In  In26  1  0.50152303  0.32108189  0.36793374  1
  In  In27  1  0.50400525  0.34378300  0.87798431  1
  In  In28  1  0.51470106  0.67545298  0.36985418  1
  In  In29  1  0.50969799  0.65801611  0.87819966  1
  In  In30  1  0.83171509  -0.01738403  0.37421488  1
  In  In31  1  0.83118587  0.00252464  0.87814762  1
  In  In32  1  0.84857133  0.34624218  0.36346997  1
  In  In33  1  0.81556021  0.33863874  0.89618012  1
  In  In34  1  0.82797992  0.67293249  0.37469199  1
  In  In35  1  0.82380442  0.67752562  0.88008950  1
  In  In36  1  0.01271615  0.17495553  0.36973218  1
  In  In37  1  -0.01327946  0.14924651  0.87320115  1
  In  In38  1  0.00006561  0.49380180  0.38152841  1
  In  In39  1  -0.00059456  0.49933030  0.88407052  1
  In  In40  1  -0.00398192  0.83917444  0.37310814  1
  In  In41  1  -0.01749926  0.85682033  0.89498162  1
  In  In42  1  0.32294879  0.14542986  0.37097805  1
  In  In43  1  0.32964318  0.17401038  0.86909832  1
  In  In44  1  0.32339609  0.48907675  0.37305491  1
  In  In45  1  0.34139688  0.49009927  0.88727490  1
  In  In46  1  0.30838280  0.86739721  0.40113024  1
  In  In47  1  0.33330636  0.83493816  0.88415179  1
  In  In48  1  0.65629272  0.17144970  0.36845372  1
  In  In49  1  0.68158977  0.17199116  0.87907016  1
  In  In50  1  0.67851020  0.50960352  0.36410167  1
  In  In51  1  0.65708188  0.50521089  0.88239496  1
  In  In52  1  0.67600621  0.82591671  0.38042239  1
  In  In53  1  0.66611133  0.83069091  0.87411539  1
  In  In54  1  0.16789385  -0.00469180  0.13616143  1
  In  In55  1  0.15765594  -0.01176132  0.61709530  1
  In  In56  1  0.15733692  0.32731171  0.12445477  1
  In  In57  1  0.17374819  0.34196052  0.61932740  1
  In  In58  1  0.17245680  0.66978754  0.12341701  1
  In  In59  1  0.16385133  0.66833735  0.61506205  1
  In  In60  1  0.50099746  -0.01589626  0.12237345  1
  In  In61  1  0.51281702  0.00528915  0.62821562  1
  In  In62  1  0.50510658  0.35417766  0.11467760  1
  In  In63  1  0.49154083  0.31491864  0.63045891  1
  In  In64  1  0.50974993  0.67235994  0.12181406  1
  In  In65  1  0.50265265  0.67932497  0.62671800  1
  In  In66  1  0.85361242  0.00701183  0.10955267  1
  In  In67  1  0.84076161  -0.00575325  0.63366905  1
  In  In68  1  0.83520086  0.33444548  0.12694891  1
  In  In69  1  0.83340966  0.34026970  0.61791098  1
  In  In70  1  0.82872907  0.65808440  0.11977704  1
  In  In71  1  0.82803099  0.66247582  0.62381634  1
  In  In72  1  0.33554296  0.00226388  0.74626379  1
  In  In73  1  0.16474146  0.17017664  0.00107888  1
  In  In74  1  0.33250732  0.66704390  0.74481894  1
  In  In75  1  -0.00529936  0.32701294  0.74814009  1
  In  In76  1  0.00250300  0.67339918  0.74728131  1
  In  In77  1  0.49511535  0.15997259  0.50207460  1
  In  In78  1  0.66338921  0.32951312  0.75317634  1
  In  In79  1  -0.00156598  0.67295793  0.25143967  1
  In  In80  1  0.50436147  0.16938406  -0.00625218  1
  In  In81  1  0.49925811  0.50311405  0.49563679  1
  In  In82  1  0.67087884  -0.00089689  0.24520534  1
  In  In83  1  0.33952259  0.67628211  0.24641793  1
  In  In84  1  0.33138230  0.32774863  0.24722754  1
  In  In85  1  0.83589865  0.17023455  0.49966772  1
  Cu  Cu86  1  0.16485850  0.16602692  0.75053665  1
  Cu  Cu87  1  0.67175176  0.34030226  0.49510425  1
  Cu  Cu88  1  0.16083380  0.49854838  0.25321983  1
  Cu  Cu89  1  0.50919205  0.50384000  0.24376304  1
  Cu  Cu90  1  0.50342364  0.17128477  0.24552088  1
  Cu  Cu91  1  0.33368489  0.66857262  0.00237550  1
  Cu  Cu92  1  0.66537550  -0.00836091  0.50296737  1
  Cu  Cu93  1  0.84072015  0.16475533  0.24470961  1
  Cu  Cu94  1  0.32668915  0.33025947  0.49983824  1
  Cu  Cu95  1  0.16609261  0.16247874  0.25418338  1
  Cu  Cu96  1  0.66637350  0.66474303  -0.00080307  1
  Cu  Cu97  1  0.66941169  -0.01263524  0.00063057  1
  Cu  Cu98  1  0.50041890  0.49701938  0.75729267  1
  Cu  Cu99  1  0.67064535  0.66994206  0.49915981  1
  Cu  Cu100  1  0.00471595  0.66434976  0.00458521  1
  Cu  Cu101  1  0.50614304  0.83007379  0.75128037  1
  Cu  Cu102  1  0.33160256  -0.00235455  0.00337937  1
  Cu  Cu103  1  0.83056496  0.16445057  0.75429662  1
  Cu  Cu104  1  0.83220859  0.49641030  0.24358569  1
  Cu  Cu105  1  -0.00328143  0.33054229  0.00486609  1
  Cu  Cu106  1  0.15805393  0.83933641  0.74860485  1
  Cu  Cu107  1  0.83008970  0.84008582  0.75718475  1
  Cu  Cu108  1  0.49764117  0.83782241  0.25066650  1
  Cu  Cu109  1  0.83138118  0.83035024  0.24657164  1
  Cu  Cu110  1  0.83074915  0.50844377  0.75223242  1
  Cu  Cu111  1  -0.00218433  -0.00164229  0.49764012  1
  Cu  Cu112  1  -0.00609751  0.66899184  0.49551349  1
  Cu  Cu113  1  0.33202990  0.66328063  0.49793738  1
  Cu  Cu114  1  0.17576136  0.49369104  0.75151396  1
  Se  Se115  1  0.08235472  0.07875472  0.06225550  1
  Se  Se116  1  0.07869345  0.08150712  0.55285150  1
  Se  Se117  1  0.08335805  0.41409905  0.05462079  1
  Se  Se118  1  0.08633336  0.41656530  0.55155302  1
  Se  Se119  1  0.08910226  0.74941205  0.05390691  1
  Se  Se120  1  0.07844150  0.75121641  0.55051161  1
  Se  Se121  1  0.41271091  0.08219155  0.05931548  1
  Se  Se122  1  0.40704324  0.06968067  0.56159633  1
  Se  Se123  1  0.42054979  0.42018197  0.04128557  1
  Se  Se124  1  0.41546179  0.40640100  0.55706227  1
  Se  Se125  1  0.41583812  0.75071008  0.05885452  1
  Se  Se126  1  0.41737808  0.74339459  0.55134386  1
  Se  Se127  1  0.75021102  0.07663882  0.04956848  1
  Se  Se128  1  0.74417869  0.07927212  0.55958280  1
  Se  Se129  1  0.76543901  0.42577014  0.05784648  1
  Se  Se130  1  0.75321274  0.42333581  0.54863535  1
  Se  Se131  1  0.75153189  0.74717614  0.05132083  1
  Se  Se132  1  0.75177003  0.75215863  0.55617843  1
  Se  Se133  1  0.25970665  0.26426500  0.05368152  1
  Se  Se134  1  0.25139095  0.24520735  0.55691028  1
  Se  Se135  1  0.24798955  0.58474967  0.05255768  1
  Se  Se136  1  0.24920496  0.58092342  0.55181638  1
  Se  Se137  1  0.24837691  0.92026623  0.06069881  1
  Se  Se138  1  0.24168578  0.91163822  0.54757839  1
  Se  Se139  1  0.59187730  0.25301800  0.05905681  1
  Se  Se140  1  0.59203540  0.25790067  0.55457807  1
  Se  Se141  1  0.58449979  0.58176221  0.05483772  1
  Se  Se142  1  0.59063267  0.58742255  0.55925466  1
  Se  Se143  1  0.58269606  0.90708372  0.05207884  1
  Se  Se144  1  0.58321389  0.91337910  0.56018385  1
  Se  Se145  1  0.92064867  0.24576277  0.06206331  1
  Se  Se146  1  0.92953081  0.25991358  0.55675905  1
  Se  Se147  1  0.91667443  0.58013990  0.05168907  1
  Se  Se148  1  0.91513218  0.58676447  0.55400729  1
  Se  Se149  1  0.90698903  0.89891000  0.04737114  1
  Se  Se150  1  0.91185944  0.92018814  0.55399759  1
  Se  Se151  1  0.08830939  0.23436529  0.45203807  1
  Se  Se152  1  0.06984142  0.25229133  0.93680359  1
  Se  Se153  1  0.08075195  0.58567852  0.44479802  1
  Se  Se154  1  0.08651331  0.58238477  0.94778055  1
  Se  Se155  1  0.08109408  0.91585373  0.44362728  1
  Se  Se156  1  0.09677387  0.91037672  0.95100956  1
  Se  Se157  1  0.40737369  0.25142974  0.43836122  1
  Se  Se158  1  0.40579628  0.25826691  0.94202860  1
  Se  Se159  1  0.40981293  0.58914630  0.43210195  1
  Se  Se160  1  0.41843733  0.58708593  0.94736148  1
  Se  Se161  1  0.43074300  0.90830973  0.45351654  1
  Se  Se162  1  0.41824217  0.91273657  0.95433060  1
  Se  Se163  1  0.74547124  0.25485352  0.43501553  1
  Se  Se164  1  0.75305536  0.23797329  0.95970829  1
  Se  Se165  1  0.74911219  0.58464508  0.44342605  1
  Se  Se166  1  0.75147939  0.58251113  0.94570374  1
  Se  Se167  1  0.75286692  0.91224774  0.45078182  1
  Se  Se168  1  0.75276702  0.90883872  0.94327261  1
  Se  Se169  1  0.25397567  0.07465842  0.44956048  1
  Se  Se170  1  0.25724138  0.07827440  0.93981929  1
  Se  Se171  1  0.24650978  0.42006744  0.45018491  1
  Se  Se172  1  0.23368358  0.42932705  0.94659597  1
  Se  Se173  1  0.24640276  0.74824538  0.44833597  1
  Se  Se174  1  0.24929910  0.75076101  0.94880022  1
  Se  Se175  1  0.59049165  0.07410207  0.44017581  1
  Se  Se176  1  0.59088612  0.07014459  0.93947303  1
  Se  Se177  1  0.58637240  0.41270484  0.43366772  1
  Se  Se178  1  0.59881679  0.40259651  0.94745078  1
  Se  Se179  1  0.58380884  0.75216313  0.44892346  1
  Se  Se180  1  0.58306821  0.74959256  0.94533250  1
  Se  Se181  1  0.91820168  0.07775826  0.43609006  1
  Se  Se182  1  0.91663163  0.07673391  0.95061346  1
  Se  Se183  1  0.91113430  0.41496940  0.44713674  1
  Se  Se184  1  0.91592191  0.41748535  0.95172354  1
  Se  Se185  1  0.91416141  0.75410434  0.44103690  1
  Se  Se186  1  0.92100433  0.74305117  0.94757834  1
  Se  Se187  1  0.24189381  0.24996384  0.31475551  1
  Se  Se188  1  0.24467122  0.25328516  0.80107785  1
  Se  Se189  1  0.24405916  0.58291441  0.30645473  1
  Se  Se190  1  0.24898793  0.58010985  0.81100455  1
  Se  Se191  1  0.25862180  0.92592310  0.30956716  1
  Se  Se192  1  0.24645170  0.91232302  0.80824461  1
  Se  Se193  1  0.58873609  0.25632828  0.29314239  1
  Se  Se194  1  0.57657699  0.24009733  0.81387147  1
  Se  Se195  1  0.58703754  0.58842215  0.29940665  1
  Se  Se196  1  0.58742897  0.58206154  0.80269759  1
  Se  Se197  1  0.58288046  0.91543946  0.31154368  1
  Se  Se198  1  0.58513694  0.91658694  0.80407436  1
  Se  Se199  1  0.92127015  0.24799368  0.30147547  1
  Se  Se200  1  0.90098521  0.25241171  0.81572437  1
  Se  Se201  1  0.91102840  0.57643888  0.30774606  1
  Se  Se202  1  0.91602121  0.58335433  0.81074215  1
  Se  Se203  1  0.91430718  0.91478976  0.29843016  1
  Se  Se204  1  0.91787536  0.92055169  0.80827169  1
  Se  Se205  1  0.08017821  0.07760714  0.30339159  1
  Se  Se206  1  0.07984600  0.08368302  0.80184661  1
  Se  Se207  1  0.08242824  0.41528870  0.30892197  1
  Se  Se208  1  0.08311229  0.42142388  0.80657671  1
  Se  Se209  1  0.09366397  0.76446478  0.30374673  1
  Se  Se210  1  0.08297491  0.76250337  0.81341933  1
  Se  Se211  1  0.42260674  0.08869963  0.30059088  1
  Se  Se212  1  0.42373736  0.08568264  0.81150981  1
  Se  Se213  1  0.42543909  0.42476392  0.30308206  1
  Se  Se214  1  0.41444758  0.41633877  0.80757438  1
  Se  Se215  1  0.41770336  0.76320091  0.31494524  1
  Se  Se216  1  0.41966748  0.75396204  0.80994408  1
  Se  Se217  1  0.75885672  0.08947268  0.30896974  1
  Se  Se218  1  0.74662367  0.08180901  0.80634341  1
  Se  Se219  1  0.74855568  0.41320210  0.29843599  1
  Se  Se220  1  0.75571562  0.42089622  0.81020368  1
  Se  Se221  1  0.74701255  0.75033024  0.30095617  1
  Se  Se222  1  0.74802651  0.74894228  0.80215483  1
  Se  Se223  1  0.25295931  0.08289795  0.20156002  1
  Se  Se224  1  0.24061124  0.08589592  0.68652634  1
  Se  Se225  1  0.24494151  0.42514531  0.19006222  1
  Se  Se226  1  0.25618309  0.40961109  0.69767558  1
  Se  Se227  1  0.23972404  0.76382980  0.19583917  1
  Se  Se228  1  0.23983362  0.76027809  0.68879175  1
  Se  Se229  1  0.57968623  0.08857842  0.18404502  1
  Se  Se230  1  0.57731909  0.08795201  0.70390841  1
  Se  Se231  1  0.58882822  0.41668597  0.19209300  1
  Se  Se232  1  0.57580569  0.41994808  0.68854112  1
  Se  Se233  1  0.58086357  0.75349736  0.19840797  1
  Se  Se234  1  0.58986229  0.74659496  0.69910050  1
  Se  Se235  1  0.91935942  0.07450096  0.19528099  1
  Se  Se236  1  0.91699141  0.08289725  0.70285699  1
  Se  Se237  1  0.92261887  0.41227834  0.19870691  1
  Se  Se238  1  0.91085788  0.42955434  0.69154413  1
  Se  Se239  1  0.91290550  0.75446456  0.18377094  1
  Se  Se240  1  0.90791547  0.76214712  0.69111313  1
  Se  Se241  1  0.08698598  0.25170190  0.20230651  1
  Se  Se242  1  0.08663184  0.24341917  0.68613571  1
  Se  Se243  1  0.08525563  0.57884109  0.19012557  1
  Se  Se244  1  0.09511317  0.57623247  0.69260467  1
  Se  Se245  1  0.07009955  0.92141031  0.19775149  1
  Se  Se246  1  0.07553440  0.92226282  0.69556189  1
  Se  Se247  1  0.42425733  0.24823958  0.18164120  1
  Se  Se248  1  0.41678689  0.24329995  0.70641911  1
  Se  Se249  1  0.41895685  0.57564782  0.18678656  1
  Se  Se250  1  0.42553444  0.57324922  0.68875453  1
  Se  Se251  1  0.41507281  0.92197349  0.19887985  1
  Se  Se252  1  0.42078683  0.90351202  0.68944702  1
  Se  Se253  1  0.75385896  0.24906467  0.19747195  1
  Se  Se254  1  0.75833255  0.24557363  0.68845711  1
  Se  Se255  1  0.74969502  0.58654034  0.19690571  1
  Se  Se256  1  0.74610430  0.58899878  0.69933010  1
  Se  Se257  1  0.75841028  0.91353662  0.18227189  1
  Se  Se258  1  0.74691831  0.92131041  0.69946378  1
