# generated using pymatgen
data_In86Cu29Se144
_symmetry_space_group_name_H-M   'P 1'
_cell_length_a   17.58160179
_cell_length_b   17.57932117
_cell_length_c   23.44449518
_cell_angle_alpha   89.97361045
_cell_angle_beta   89.99267029
_cell_angle_gamma   89.98018421
_symmetry_Int_Tables_number   1
_chemical_formula_structural   In86Cu29Se144
_chemical_formula_sum   'In86 Cu29 Se144'
_cell_volume   7246.05039716
_cell_formula_units_Z   1
loop_
 _symmetry_equiv_pos_site_id
 _symmetry_equiv_pos_as_xyz
  1  'x, y, z'
loop_
 _atom_site_type_symbol
 _atom_site_label
 _atom_site_symmetry_multiplicity
 _atom_site_fract_x
 _atom_site_fract_y
 _atom_site_fract_z
 _atom_site_occupancy
  In  In0  1  0.00353286  0.16361541  0.13718688  1
  In  In1  1  -0.01888631  0.15493229  0.61214468  1
  In  In2  1  0.01044193  0.49543693  0.13266874  1
  In  In3  1  0.00979244  0.50635712  0.62509500  1
  In  In4  1  0.00854982  0.82606735  0.13123187  1
  In  In5  1  0.00492240  0.83012545  0.62781813  1
  In  In6  1  0.34941032  0.15161460  0.13706130  1
  In  In7  1  0.33774951  0.16050801  0.61483753  1
  In  In8  1  0.33486192  0.50028714  0.12980532  1
  In  In9  1  0.34350834  0.50921827  0.61859178  1
  In  In10  1  0.31925630  0.84734786  0.12891570  1
  In  In11  1  0.32398761  0.82127718  0.61663190  1
  In  In12  1  0.66201488  0.17001283  0.13419825  1
  In  In13  1  0.66629386  0.16803005  0.61403048  1
  In  In14  1  0.65516717  0.50491045  0.13071063  1
  In  In15  1  0.66414651  0.51160178  0.62167361  1
  In  In16  1  0.65771520  0.83774908  0.13671170  1
  In  In17  1  0.65469827  0.83409899  0.62038453  1
  In  In18  1  0.15742186  -0.01426276  0.37290571  1
  In  In19  1  0.15943463  -0.00118733  0.87578050  1
  In  In20  1  0.17022552  0.33412779  0.36360154  1
  In  In21  1  0.18197284  0.33391546  0.87984979  1
  In  In22  1  0.17482931  0.67717504  0.37007510  1
  In  In23  1  0.16774735  0.66897619  0.88056760  1
  In  In24  1  0.49941008  -0.00116348  0.36993223  1
  In  In25  1  0.50711173  0.00771065  0.88433662  1
  In  In26  1  0.49711731  0.33056793  0.37681815  1
  In  In27  1  0.49926174  0.33641163  0.88680368  1
  In  In28  1  0.49434782  0.66473804  0.37336075  1
  In  In29  1  0.49122475  0.66049412  0.87026040  1
  In  In30  1  0.84537478  0.01381849  0.37406070  1
  In  In31  1  0.83297609  -0.00830879  0.87373494  1
  In  In32  1  0.83052717  0.32570079  0.37116404  1
  In  In33  1  0.84765286  0.33327062  0.87793681  1
  In  In34  1  0.83229335  0.66468954  0.36696648  1
  In  In35  1  0.84111836  0.67547899  0.86367086  1
  In  In36  1  -0.00458595  0.15790473  0.37619622  1
  In  In37  1  0.00568097  0.16008908  0.86935612  1
  In  In38  1  -0.00355415  0.49902240  0.36533864  1
  In  In39  1  0.00259270  0.51902633  0.87715910  1
  In  In40  1  0.01389918  0.84588264  0.37360532  1
  In  In41  1  0.01081924  0.83873192  0.86662782  1
  In  In42  1  0.34794170  0.17633545  0.36656223  1
  In  In43  1  0.34018331  0.17654797  0.87751962  1
  In  In44  1  0.33640496  0.50580282  0.37038380  1
  In  In45  1  0.32508076  0.50715946  0.88948654  1
  In  In46  1  0.33193196  0.83369892  0.37352782  1
  In  In47  1  0.33487856  0.81672691  0.87512380  1
  In  In48  1  0.66651181  0.16604486  0.37257122  1
  In  In49  1  0.65407172  0.15774938  0.87741992  1
  In  In50  1  0.65482252  0.48595473  0.36604062  1
  In  In51  1  0.65322328  0.50286080  0.87795053  1
  In  In52  1  0.65685104  0.82208665  0.36646741  1
  In  In53  1  0.67474209  0.83425027  0.87336026  1
  In  In54  1  0.17723407  -0.01261363  0.12983913  1
  In  In55  1  0.16709028  -0.02192580  0.62339936  1
  In  In56  1  0.16400364  0.33784005  0.13563896  1
  In  In57  1  0.16559021  0.33527981  0.62068195  1
  In  In58  1  0.17173738  0.66864325  0.12585367  1
  In  In59  1  0.15830654  0.68535834  0.64114131  1
  In  In60  1  0.49418376  0.00757250  0.12966698  1
  In  In61  1  0.50306088  -0.00034254  0.61022441  1
  In  In62  1  0.49986942  0.33375868  0.13205581  1
  In  In63  1  0.50007180  0.33970107  0.60657201  1
  In  In64  1  0.50606730  0.65726024  0.13088816  1
  In  In65  1  0.49624036  0.66715208  0.62244571  1
  In  In66  1  0.82970095  0.00414467  0.13508916  1
  In  In67  1  0.84079727  0.01467557  0.61852242  1
  In  In68  1  0.83735352  0.32796694  0.13667195  1
  In  In69  1  0.83853942  0.31179684  0.61796186  1
  In  In70  1  0.83014863  0.67292070  0.13340621  1
  In  In71  1  0.83168489  0.66716912  0.62981308  1
  In  In72  1  0.67410023  -0.00442341  0.75019171  1
  In  In73  1  0.00088706  0.33543387  0.74488511  1
  In  In74  1  0.82772610  0.50946798  0.01203389  1
  In  In75  1  0.17294458  0.16622543  0.49238972  1
  In  In76  1  0.16961561  0.50144781  0.49810247  1
  In  In77  1  0.33248912  -0.01274705  0.75333785  1
  In  In78  1  0.17455425  0.16697349  0.00318311  1
  In  In79  1  0.82468957  0.49312209  0.49113760  1
  In  In80  1  0.83173096  0.83572620  0.49925626  1
  In  In81  1  0.66896896  0.33967866  0.74027085  1
  In  In82  1  0.83092956  0.83719316  -0.00439606  1
  In  In83  1  0.49172175  0.83781959  0.00580928  1
  In  In84  1  0.33330105  0.33840611  0.74748598  1
  In  In85  1  0.82747417  0.17185706  0.00743883  1
  Cu  Cu86  1  0.49874920  0.49761735  0.25227679  1
  Cu  Cu87  1  0.83698250  0.83016753  0.74890912  1
  Cu  Cu88  1  0.83433813  0.83635056  0.25544196  1
  Cu  Cu89  1  0.15960575  0.15424543  0.74430158  1
  Cu  Cu90  1  0.50004831  0.82779500  0.74420241  1
  Cu  Cu91  1  0.83403458  0.50161266  0.24753727  1
  Cu  Cu92  1  0.82831201  0.49941638  0.74812831  1
  Cu  Cu93  1  0.16892285  0.50901056  0.75718576  1
  Cu  Cu94  1  0.01017872  0.34308840  0.00616656  1
  Cu  Cu95  1  0.33344010  0.67108887  0.49613737  1
  Cu  Cu96  1  0.49426276  0.82795843  0.25069977  1
  Cu  Cu97  1  0.49335406  0.51084844  0.75173018  1
  Cu  Cu98  1  0.50435603  0.16783770  0.25381906  1
  Cu  Cu99  1  0.33449180  0.66300117  0.00341330  1
  Cu  Cu100  1  0.00028465  -0.00320373  0.00111801  1
  Cu  Cu101  1  0.16995172  0.50794591  0.24891025  1
  Cu  Cu102  1  0.16729897  0.16274722  0.25459971  1
  Cu  Cu103  1  0.01438266  0.67099449  0.00328268  1
  Cu  Cu104  1  0.33920568  0.33393329  0.01077209  1
  Cu  Cu105  1  0.66214052  0.66797399  0.00005767  1
  Cu  Cu106  1  0.66541603  -0.00071189  0.49088384  1
  Cu  Cu107  1  0.66395963  0.32947330  0.49106157  1
  Cu  Cu108  1  0.00160374  0.66888126  0.50177444  1
  Cu  Cu109  1  0.65862635  0.33045147  0.00619610  1
  Cu  Cu110  1  0.83344562  0.16435134  0.25473405  1
  Cu  Cu111  1  0.16426453  0.83250251  0.25053757  1
  Cu  Cu112  1  0.64968358  0.66419955  0.49551151  1
  Cu  Cu113  1  0.50310230  0.16946925  0.74614552  1
  Cu  Cu114  1  0.33894011  -0.00094933  0.49298435  1
  Se  Se115  1  0.07833179  0.07967895  0.06040405  1
  Se  Se116  1  0.09047570  0.07781023  0.55895979  1
  Se  Se117  1  0.09439799  0.42212787  0.05903939  1
  Se  Se118  1  0.07098149  0.40947820  0.55259519  1
  Se  Se119  1  0.09281764  0.75782159  0.05615865  1
  Se  Se120  1  0.08531157  0.74778491  0.55655294  1
  Se  Se121  1  0.40931729  0.07572674  0.05488634  1
  Se  Se122  1  0.42149531  0.08589735  0.54384935  1
  Se  Se123  1  0.42237641  0.42006139  0.06115825  1
  Se  Se124  1  0.40520062  0.41753580  0.54827358  1
  Se  Se125  1  0.40995047  0.74370796  0.06716029  1
  Se  Se126  1  0.42032442  0.75240240  0.55022242  1
  Se  Se127  1  0.74051245  0.07675997  0.06142188  1
  Se  Se128  1  0.74704438  0.07992997  0.54857511  1
  Se  Se129  1  0.74543089  0.40601404  0.06459678  1
  Se  Se130  1  0.74037026  0.40499967  0.56014136  1
  Se  Se131  1  0.74059916  0.74948706  0.05921060  1
  Se  Se132  1  0.73980987  0.73787604  0.55367918  1
  Se  Se133  1  0.25819759  0.25265777  0.06948624  1
  Se  Se134  1  0.25982765  0.26146322  0.55407151  1
  Se  Se135  1  0.25140831  0.58040300  0.05836072  1
  Se  Se136  1  0.24782494  0.59850610  0.56021658  1
  Se  Se137  1  0.24742205  0.91820031  0.04933160  1
  Se  Se138  1  0.25637108  0.91736599  0.54831912  1
  Se  Se139  1  0.57992586  0.24727138  0.06178018  1
  Se  Se140  1  0.58034123  0.24613300  0.54614044  1
  Se  Se141  1  0.58271420  0.58219804  0.05305859  1
  Se  Se142  1  0.57312397  0.57820055  0.55148885  1
  Se  Se143  1  0.58889021  0.92368381  0.06067922  1
  Se  Se144  1  0.58449564  0.91310045  0.54394670  1
  Se  Se145  1  0.93030231  0.25771521  0.06079638  1
  Se  Se146  1  0.92085895  0.24985387  0.54199182  1
  Se  Se147  1  0.92731839  0.59702834  0.06364311  1
  Se  Se148  1  0.91625998  0.58528812  0.55444073  1
  Se  Se149  1  0.91767810  0.92156544  0.06229937  1
  Se  Se150  1  0.92603521  0.92096678  0.55654937  1
  Se  Se151  1  0.08233454  0.25760430  0.43598500  1
  Se  Se152  1  0.07756523  0.25587509  0.94157263  1
  Se  Se153  1  0.07694627  0.58882541  0.43763057  1
  Se  Se154  1  0.09079458  0.57946830  0.95184177  1
  Se  Se155  1  0.08642506  0.91445811  0.45319478  1
  Se  Se156  1  0.08123831  0.91448988  0.94626874  1
  Se  Se157  1  0.41830451  0.24584277  0.44661414  1
  Se  Se158  1  0.41763049  0.25026803  0.95293261  1
  Se  Se159  1  0.41390869  0.58287257  0.44593423  1
  Se  Se160  1  0.42317345  0.58402072  0.95018689  1
  Se  Se161  1  0.42093425  0.91316506  0.44082939  1
  Se  Se162  1  0.40635595  0.92248874  0.93817009  1
  Se  Se163  1  0.75153075  0.24610455  0.44384411  1
  Se  Se164  1  0.74236659  0.26122172  0.94023419  1
  Se  Se165  1  0.73580666  0.58863784  0.43631588  1
  Se  Se166  1  0.74950870  0.59559535  0.93897744  1
  Se  Se167  1  0.74488188  0.91746430  0.43186197  1
  Se  Se168  1  0.73365562  0.93338161  0.94639521  1
  Se  Se169  1  0.25941652  0.07694354  0.43040505  1
  Se  Se170  1  0.25884928  0.07873020  0.93823125  1
  Se  Se171  1  0.25574706  0.41084706  0.43814395  1
  Se  Se172  1  0.25182451  0.41275557  0.95568384  1
  Se  Se173  1  0.24712485  0.75536525  0.44658639  1
  Se  Se174  1  0.25253348  0.74846416  0.95123900  1
  Se  Se175  1  0.58062846  0.08339127  0.43997613  1
  Se  Se176  1  0.57516685  0.09500062  0.95507834  1
  Se  Se177  1  0.57944027  0.41841771  0.44600170  1
  Se  Se178  1  0.58291544  0.42102677  0.95291464  1
  Se  Se179  1  0.57401489  0.75324296  0.44256180  1
  Se  Se180  1  0.58409164  0.75079385  0.94026095  1
  Se  Se181  1  0.91858499  0.08415923  0.45285704  1
  Se  Se182  1  0.91949280  0.08086103  0.94430015  1
  Se  Se183  1  0.92491783  0.40926181  0.43900287  1
  Se  Se184  1  0.92324664  0.42083743  0.94966485  1
  Se  Se185  1  0.91996604  0.74416272  0.43899216  1
  Se  Se186  1  0.92511232  0.74395285  0.94338915  1
  Se  Se187  1  0.25498520  0.24953112  0.29867845  1
  Se  Se188  1  0.24104656  0.23808817  0.80200324  1
  Se  Se189  1  0.25363991  0.58989304  0.30283282  1
  Se  Se190  1  0.25508766  0.58553018  0.81205030  1
  Se  Se191  1  0.24944230  0.91624730  0.30272042  1
  Se  Se192  1  0.23931446  0.90137109  0.81073894  1
  Se  Se193  1  0.58542123  0.25444092  0.30619535  1
  Se  Se194  1  0.57743499  0.25377178  0.80663256  1
  Se  Se195  1  0.58149310  0.58436051  0.30403843  1
  Se  Se196  1  0.58606760  0.58689067  0.80276218  1
  Se  Se197  1  0.58036428  0.91353057  0.30019842  1
  Se  Se198  1  0.57264583  0.91172666  0.80784625  1
  Se  Se199  1  0.92075001  0.24686952  0.30527354  1
  Se  Se200  1  0.91023957  0.24176850  0.80344574  1
  Se  Se201  1  0.91831915  0.58666479  0.29824109  1
  Se  Se202  1  0.91656071  0.57976798  0.80017319  1
  Se  Se203  1  0.91867189  0.91889086  0.30792405  1
  Se  Se204  1  0.91556209  0.91663393  0.80334363  1
  Se  Se205  1  0.08261594  0.07990837  0.30700064  1
  Se  Se206  1  0.07918037  0.07316109  0.79997409  1
  Se  Se207  1  0.08591863  0.42097132  0.29937434  1
  Se  Se208  1  0.09142387  0.41931106  0.81237168  1
  Se  Se209  1  0.07949604  0.75002717  0.30424949  1
  Se  Se210  1  0.06931484  0.72835887  0.81080231  1
  Se  Se211  1  0.41646242  0.07999189  0.29917976  1
  Se  Se212  1  0.42383493  0.08917709  0.80600505  1
  Se  Se213  1  0.41571955  0.41431947  0.30586445  1
  Se  Se214  1  0.42025575  0.42409599  0.81301848  1
  Se  Se215  1  0.40997338  0.74610053  0.30403137  1
  Se  Se216  1  0.41680186  0.74723209  0.79941744  1
  Se  Se217  1  0.74887591  0.07923082  0.30511893  1
  Se  Se218  1  0.75592697  0.09367178  0.81025404  1
  Se  Se219  1  0.75464097  0.41634900  0.30346576  1
  Se  Se220  1  0.75591070  0.42091735  0.81315899  1
  Se  Se221  1  0.74855293  0.74682508  0.29969978  1
  Se  Se222  1  0.74618646  0.75134329  0.79964492  1
  Se  Se223  1  0.24851381  0.07994187  0.19829746  1
  Se  Se224  1  0.25147691  0.08354722  0.68824536  1
  Se  Se225  1  0.25317671  0.41822948  0.20091098  1
  Se  Se226  1  0.24019347  0.42953163  0.69021165  1
  Se  Se227  1  0.25125275  0.75213815  0.19736963  1
  Se  Se228  1  0.25878774  0.75508503  0.70089708  1
  Se  Se229  1  0.58382770  0.07983819  0.20046258  1
  Se  Se230  1  0.58092158  0.08472816  0.68902006  1
  Se  Se231  1  0.58623432  0.41422505  0.20128329  1
  Se  Se232  1  0.56734553  0.42628986  0.68943666  1
  Se  Se233  1  0.58275275  0.74462486  0.20064676  1
  Se  Se234  1  0.58566926  0.74606099  0.69197249  1
  Se  Se235  1  0.91853671  0.08020665  0.20227149  1
  Se  Se236  1  0.91883615  0.08309281  0.69551097  1
  Se  Se237  1  0.92100692  0.41638835  0.19874565  1
  Se  Se238  1  0.90458187  0.42147029  0.68394916  1
  Se  Se239  1  0.91661939  0.75342544  0.19926127  1
  Se  Se240  1  0.91934124  0.74610803  0.69503867  1
  Se  Se241  1  0.08405961  0.25021529  0.20263009  1
  Se  Se242  1  0.08621713  0.24023016  0.68469949  1
  Se  Se243  1  0.08438068  0.59074450  0.19656198  1
  Se  Se244  1  0.08103240  0.58462085  0.70040557  1
  Se  Se245  1  0.08131666  0.91948490  0.19816011  1
  Se  Se246  1  0.08761928  0.90914348  0.69837239  1
  Se  Se247  1  0.41773592  0.25045231  0.20147021  1
  Se  Se248  1  0.42342136  0.24820337  0.68600966  1
  Se  Se249  1  0.41633106  0.58378007  0.19997464  1
  Se  Se250  1  0.41065227  0.59028887  0.69555459  1
  Se  Se251  1  0.41671251  0.91542215  0.19547154  1
  Se  Se252  1  0.42578090  0.91315087  0.68447758  1
  Se  Se253  1  0.74958943  0.24882485  0.20212571  1
  Se  Se254  1  0.75520821  0.23553271  0.69333562  1
  Se  Se255  1  0.74736798  0.58318468  0.19545748  1
  Se  Se256  1  0.74540718  0.58390423  0.69586091  1
  Se  Se257  1  0.74859356  0.91702104  0.20085992  1
  Se  Se258  1  0.75961310  0.90867215  0.68400810  1
