# generated using pymatgen
data_In86Cu29Se144
_symmetry_space_group_name_H-M   'P 1'
_cell_length_a   17.57119350
_cell_length_b   17.57560494
_cell_length_c   23.42620996
_cell_angle_alpha   90.00228949
_cell_angle_beta   90.00340149
_cell_angle_gamma   89.98400556
_symmetry_Int_Tables_number   1
_chemical_formula_structural   In86Cu29Se144
_chemical_formula_sum   'In86 Cu29 Se144'
_cell_volume   7234.58388630
_cell_formula_units_Z   1
loop_
 _symmetry_equiv_pos_site_id
 _symmetry_equiv_pos_as_xyz
  1  'x, y, z'
loop_
 _atom_site_type_symbol
 _atom_site_label
 _atom_site_symmetry_multiplicity
 _atom_site_fract_x
 _atom_site_fract_y
 _atom_site_fract_z
 _atom_site_occupancy
  In  In0  1  0.00350896  0.15592031  0.12824300  1
  In  In1  1  0.01814872  0.16385981  0.61556624  1
  In  In2  1  0.00439828  0.50946470  0.12358311  1
  In  In3  1  0.00733919  0.50103283  0.60997826  1
  In  In4  1  -0.00024829  0.83737661  0.15162963  1
  In  In5  1  -0.01065674  0.84077147  0.61842509  1
  In  In6  1  0.33563892  0.16886976  0.12207632  1
  In  In7  1  0.33197829  0.16239313  0.62670643  1
  In  In8  1  0.32291525  0.49144084  0.11862927  1
  In  In9  1  0.32047496  0.50641735  0.63142728  1
  In  In10  1  0.35491557  0.83571119  0.12891677  1
  In  In11  1  0.33571348  0.82827849  0.63267744  1
  In  In12  1  0.65928084  0.17747621  0.13142365  1
  In  In13  1  0.64651062  0.16194215  0.61794874  1
  In  In14  1  0.66519407  0.49818198  0.12355098  1
  In  In15  1  0.66729812  0.49462530  0.61925109  1
  In  In16  1  0.64239797  0.85241395  0.15381456  1
  In  In17  1  0.67973906  0.83939383  0.62013431  1
  In  In18  1  0.17562964  0.00281215  0.36693603  1
  In  In19  1  0.18247251  0.00656125  0.87368333  1
  In  In20  1  0.17276629  0.32297994  0.38776021  1
  In  In21  1  0.18532762  0.31627614  0.88979815  1
  In  In22  1  0.15412227  0.67229238  0.37282202  1
  In  In23  1  0.16793596  0.65267817  0.87884188  1
  In  In24  1  0.50551166  0.00282247  0.36383491  1
  In  In25  1  0.50153979  0.00156173  0.88196527  1
  In  In26  1  0.48743574  0.32509652  0.36554277  1
  In  In27  1  0.49251577  0.34370256  0.88333810  1
  In  In28  1  0.50429803  0.65775279  0.36868006  1
  In  In29  1  0.49708837  0.67554489  0.88456464  1
  In  In30  1  0.82745446  -0.01212671  0.36370685  1
  In  In31  1  0.83000964  0.00897853  0.87137809  1
  In  In32  1  0.83693850  0.34828010  0.37614451  1
  In  In33  1  0.84421549  0.33933012  0.87735054  1
  In  In34  1  0.83170228  0.66834999  0.37027247  1
  In  In35  1  0.82126158  0.66906542  0.87864831  1
  In  In36  1  0.02035257  0.16964221  0.37986988  1
  In  In37  1  0.00216816  0.17669820  0.87713787  1
  In  In38  1  -0.01034745  0.50291828  0.38464688  1
  In  In39  1  0.00195571  0.50327344  0.88426506  1
  In  In40  1  -0.01707705  0.81502171  0.34840406  1
  In  In41  1  0.00100810  0.84877602  0.87686980  1
  In  In42  1  0.33270428  0.16737229  0.37777230  1
  In  In43  1  0.33451898  0.17078253  0.87599420  1
  In  In44  1  0.33930824  0.48906189  0.37539727  1
  In  In45  1  0.33353588  0.49788513  0.87687504  1
  In  In46  1  0.31813806  0.84043434  0.36673966  1
  In  In47  1  0.34612556  0.84475220  0.87087262  1
  In  In48  1  0.65252124  0.15529882  0.36481081  1
  In  In49  1  0.66452576  0.15035211  0.87573790  1
  In  In50  1  0.67670658  0.51188692  0.36302745  1
  In  In51  1  0.66754365  0.50381005  0.88675083  1
  In  In52  1  0.67937207  0.84635906  0.35197662  1
  In  In53  1  0.65695892  0.83331138  0.87891941  1
  In  In54  1  0.16179732  0.00849906  0.13240400  1
  In  In55  1  0.17371340  0.00847329  0.62207898  1
  In  In56  1  0.17524719  0.33990835  0.12125769  1
  In  In57  1  0.17484962  0.33887029  0.62094276  1
  In  In58  1  0.16539962  0.65538526  0.12832799  1
  In  In59  1  0.17857072  0.65879984  0.62181785  1
  In  In60  1  0.49504104  0.00360410  0.12683490  1
  In  In61  1  0.48566126  0.00467930  0.63163847  1
  In  In62  1  0.49800639  0.33207123  0.12143368  1
  In  In63  1  0.49908935  0.31515803  0.62317670  1
  In  In64  1  0.50857739  0.67435489  0.11852626  1
  In  In65  1  0.49147231  0.65862415  0.62700219  1
  In  In66  1  0.82879159  -0.00824617  0.14027503  1
  In  In67  1  0.82827895  -0.01347614  0.61884570  1
  In  In68  1  0.81816796  0.33542709  0.12962740  1
  In  In69  1  0.82729173  0.34599595  0.61861991  1
  In  In70  1  0.83780372  0.66920629  0.13687351  1
  In  In71  1  0.83525428  0.66910594  0.61447317  1
  In  In72  1  0.00339009  0.67106126  0.73896532  1
  In  In73  1  0.49880782  0.83092317  0.49757424  1
  In  In74  1  0.17694585  0.82594029  0.01438955  1
  In  In75  1  0.83648033  0.17234800  0.49508788  1
  In  In76  1  0.50121712  0.49721318  0.49393188  1
  In  In77  1  0.00718691  0.33513267  0.74086199  1
  In  In78  1  0.15984205  0.83342238  0.49248259  1
  In  In79  1  0.00116333  0.33191218  0.26196208  1
  In  In80  1  0.83396879  0.16816374  0.00277068  1
  In  In81  1  0.00215377  0.00099092  0.74717993  1
  In  In82  1  0.66168530  0.33048947  0.74687238  1
  In  In83  1  0.33571168  0.66909640  0.24620608  1
  In  In84  1  0.83000547  0.82789662  0.01513256  1
  In  In85  1  0.65604515  0.67523918  0.75522296  1
  Cu  Cu86  1  0.49478448  0.16073221  0.75270774  1
  Cu  Cu87  1  0.48618766  0.49824140  0.75371233  1
  Cu  Cu88  1  0.33490492  0.33225746  0.00027789  1
  Cu  Cu89  1  0.83657183  0.50185527  0.25125860  1
  Cu  Cu90  1  0.82941825  0.16084188  0.74348165  1
  Cu  Cu91  1  0.33565200  0.66281789  0.00152087  1
  Cu  Cu92  1  0.33754969  0.33006511  0.50067266  1
  Cu  Cu93  1  -0.00153107  -0.00761152  0.49227807  1
  Cu  Cu94  1  -0.00671218  0.66591337  0.00655921  1
  Cu  Cu95  1  0.17785809  0.17266635  0.25246449  1
  Cu  Cu96  1  0.66382929  -0.00343203  0.48737921  1
  Cu  Cu97  1  0.01022592  -0.00202509  0.00898983  1
  Cu  Cu98  1  0.49944814  0.83888035  0.75613603  1
  Cu  Cu99  1  0.66443951  -0.00398476  0.00735229  1
  Cu  Cu100  1  -0.00576222  0.66809234  0.49198352  1
  Cu  Cu101  1  0.67429663  0.66998504  0.48978006  1
  Cu  Cu102  1  0.49381116  0.16851517  0.24597470  1
  Cu  Cu103  1  0.66441825  0.33329675  0.00458741  1
  Cu  Cu104  1  0.82949625  0.51046391  0.75144763  1
  Cu  Cu105  1  0.66803501  0.33728297  0.49460521  1
  Cu  Cu106  1  0.00149587  0.34109675  0.00360107  1
  Cu  Cu107  1  0.17451297  0.48844128  0.75583506  1
  Cu  Cu108  1  0.16537254  0.49904082  0.24856393  1
  Cu  Cu109  1  0.33386397  0.00682809  0.49842433  1
  Cu  Cu110  1  0.17061725  0.82750264  0.75180216  1
  Cu  Cu111  1  0.82870419  0.16189634  0.25087950  1
  Cu  Cu112  1  0.34003364  0.00510128  -0.00235810  1
  Cu  Cu113  1  0.50011274  0.49303152  0.24306866  1
  Cu  Cu114  1  0.66948671  0.66320470  0.00743737  1
  Se  Se115  1  0.09152043  0.08901980  0.05445331  1
  Se  Se116  1  0.08538559  0.07134699  0.54585171  1
  Se  Se117  1  0.08614004  0.42288927  0.05712630  1
  Se  Se118  1  0.08323595  0.40630038  0.55069523  1
  Se  Se119  1  0.06931533  0.74872678  0.06742617  1
  Se  Se120  1  0.07429319  0.74170499  0.55960846  1
  Se  Se121  1  0.42228863  0.08848273  0.05303500  1
  Se  Se122  1  0.41891826  0.08564735  0.55390527  1
  Se  Se123  1  0.41705364  0.41812402  0.05245397  1
  Se  Se124  1  0.41567557  0.41307788  0.56158562  1
  Se  Se125  1  0.41761236  0.75102405  0.05104896  1
  Se  Se126  1  0.40651643  0.74023942  0.55555706  1
  Se  Se127  1  0.74842293  0.07644162  0.06492085  1
  Se  Se128  1  0.74214971  0.07899704  0.55102318  1
  Se  Se129  1  0.75183017  0.41684567  0.05279286  1
  Se  Se130  1  0.74973311  0.42420615  0.54453770  1
  Se  Se131  1  0.73479752  0.74740105  0.07404054  1
  Se  Se132  1  0.75194704  0.75394784  0.54798269  1
  Se  Se133  1  0.24899100  0.24981551  0.05274822  1
  Se  Se134  1  0.25394937  0.24720168  0.55560890  1
  Se  Se135  1  0.24579362  0.58461164  0.05232991  1
  Se  Se136  1  0.24701705  0.57238419  0.55058205  1
  Se  Se137  1  0.26298305  0.92797701  0.06402814  1
  Se  Se138  1  0.25852905  0.91534893  0.55526604  1
  Se  Se139  1  0.58166166  0.24584442  0.05269935  1
  Se  Se140  1  0.58301767  0.25264299  0.54480170  1
  Se  Se141  1  0.58015970  0.57794805  0.05301934  1
  Se  Se142  1  0.59131691  0.59509555  0.55334264  1
  Se  Se143  1  0.58381874  0.91405269  0.06339671  1
  Se  Se144  1  0.58472748  0.92547628  0.55702253  1
  Se  Se145  1  0.92310195  0.25858988  0.06505237  1
  Se  Se146  1  0.92240298  0.25728196  0.56149297  1
  Se  Se147  1  0.90836894  0.58568319  0.06013040  1
  Se  Se148  1  0.91488220  0.58243684  0.54844828  1
  Se  Se149  1  0.92773892  0.92059474  0.06715631  1
  Se  Se150  1  0.90976596  0.91363661  0.54353972  1
  Se  Se151  1  0.08019656  0.25354126  0.45660640  1
  Se  Se152  1  0.07951529  0.25096481  0.95171071  1
  Se  Se153  1  0.08411880  0.58583552  0.44547458  1
  Se  Se154  1  0.08203713  0.58700246  0.95388075  1
  Se  Se155  1  0.07469896  0.91658851  0.42668070  1
  Se  Se156  1  0.09155823  0.92010415  0.94827938  1
  Se  Se157  1  0.42123762  0.24828881  0.44614614  1
  Se  Se158  1  0.41937615  0.24840698  0.94779383  1
  Se  Se159  1  0.40920620  0.59270258  0.44194136  1
  Se  Se160  1  0.41844257  0.58065018  0.94594996  1
  Se  Se161  1  0.40863543  0.92209774  0.43770932  1
  Se  Se162  1  0.42160480  0.91335081  0.95069036  1
  Se  Se163  1  0.74044165  0.25170416  0.43240457  1
  Se  Se164  1  0.74377357  0.25629674  0.93877480  1
  Se  Se165  1  0.75520456  0.57951250  0.44210843  1
  Se  Se166  1  0.75589215  0.58394325  0.95324467  1
  Se  Se167  1  0.74736450  0.91124979  0.43793345  1
  Se  Se168  1  0.75138897  0.92299030  0.94678002  1
  Se  Se169  1  0.24525739  0.08376403  0.44461907  1
  Se  Se170  1  0.25213658  0.08765653  0.94857899  1
  Se  Se171  1  0.25611136  0.41665295  0.44889857  1
  Se  Se172  1  0.24986701  0.42097106  0.95015267  1
  Se  Se173  1  0.25680048  0.74305565  0.43977907  1
  Se  Se174  1  0.25784900  0.74710588  0.93975957  1
  Se  Se175  1  0.57614146  0.08149513  0.44247890  1
  Se  Se176  1  0.58544887  0.08290709  0.95322425  1
  Se  Se177  1  0.58903108  0.41312859  0.42907499  1
  Se  Se178  1  0.58307738  0.41903015  0.95054656  1
  Se  Se179  1  0.59016902  0.74898472  0.43327539  1
  Se  Se180  1  0.58855458  0.74948666  0.95286404  1
  Se  Se181  1  0.91863651  0.07717576  0.43426421  1
  Se  Se182  1  0.92754827  0.07337740  0.94518492  1
  Se  Se183  1  0.92204950  0.40779252  0.45213435  1
  Se  Se184  1  0.91461719  0.42175264  0.95104666  1
  Se  Se185  1  0.91766491  0.75436366  0.43653173  1
  Se  Se186  1  0.92298016  0.75025367  0.94281731  1
  Se  Se187  1  0.25415150  0.25783402  0.30912231  1
  Se  Se188  1  0.24734196  0.24824225  0.80667071  1
  Se  Se189  1  0.24805368  0.57879828  0.30973610  1
  Se  Se190  1  0.25146399  0.58176138  0.80559135  1
  Se  Se191  1  0.24989570  0.92159724  0.29251814  1
  Se  Se192  1  0.25029689  0.91491215  0.80401187  1
  Se  Se193  1  0.58060267  0.25068798  0.29904476  1
  Se  Se194  1  0.57665620  0.24360881  0.81181303  1
  Se  Se195  1  0.58097829  0.57963058  0.29485968  1
  Se  Se196  1  0.57494580  0.57376799  0.81147692  1
  Se  Se197  1  0.57255736  0.91101671  0.29419433  1
  Se  Se198  1  0.58416273  0.92028520  0.80906747  1
  Se  Se199  1  0.90808973  0.23726196  0.31575225  1
  Se  Se200  1  0.90794682  0.24421773  0.80140457  1
  Se  Se201  1  0.92131361  0.58153594  0.30626275  1
  Se  Se202  1  0.91458900  0.58644160  0.80926635  1
  Se  Se203  1  0.93191758  0.93423768  0.29770000  1
  Se  Se204  1  0.90656298  0.91124861  0.80405013  1
  Se  Se205  1  0.08915561  0.09123401  0.30254691  1
  Se  Se206  1  0.08778643  0.09158844  0.80900566  1
  Se  Se207  1  0.09256544  0.42311362  0.31767265  1
  Se  Se208  1  0.08536585  0.41747252  0.81470528  1
  Se  Se209  1  0.09640771  0.75510095  0.29466461  1
  Se  Se210  1  0.08601867  0.75511594  0.81294481  1
  Se  Se211  1  0.41279002  0.08750958  0.30457473  1
  Se  Se212  1  0.41625723  0.07915084  0.81146336  1
  Se  Se213  1  0.41257089  0.41572462  0.29708473  1
  Se  Se214  1  0.40983383  0.40899480  0.80594074  1
  Se  Se215  1  0.42164709  0.75713286  0.30985030  1
  Se  Se216  1  0.42004966  0.74758816  0.80641302  1
  Se  Se217  1  0.74270825  0.07579198  0.29988870  1
  Se  Se218  1  0.74630083  0.08155347  0.79852515  1
  Se  Se219  1  0.75266320  0.41448971  0.30012411  1
  Se  Se220  1  0.75311910  0.42333490  0.80805584  1
  Se  Se221  1  0.73184205  0.72756220  0.30182110  1
  Se  Se222  1  0.75580258  0.76338281  0.80719807  1
  Se  Se223  1  0.25515004  0.08838349  0.19494244  1
  Se  Se224  1  0.25677289  0.07354576  0.69622807  1
  Se  Se225  1  0.25058069  0.41616429  0.19816541  1
  Se  Se226  1  0.25562975  0.40771350  0.69889574  1
  Se  Se227  1  0.24651374  0.75758378  0.18484028  1
  Se  Se228  1  0.24867374  0.74254501  0.69634072  1
  Se  Se229  1  0.58198738  0.08579403  0.19565163  1
  Se  Se230  1  0.58060243  0.08239691  0.69618188  1
  Se  Se231  1  0.58589912  0.40990966  0.19142334  1
  Se  Se232  1  0.57012403  0.42564972  0.69014905  1
  Se  Se233  1  0.57808375  0.73736242  0.20230892  1
  Se  Se234  1  0.57237899  0.76168144  0.68672196  1
  Se  Se235  1  0.91665311  0.08337431  0.19846596  1
  Se  Se236  1  0.91446242  0.08920569  0.68126811  1
  Se  Se237  1  0.91706246  0.41777955  0.19299014  1
  Se  Se238  1  0.91033593  0.43194896  0.69028836  1
  Se  Se239  1  0.91288141  0.75027256  0.20976210  1
  Se  Se240  1  0.90251765  0.76089068  0.69133331  1
  Se  Se241  1  0.08920319  0.24963942  0.19377488  1
  Se  Se242  1  0.09842375  0.23816809  0.69187563  1
  Se  Se243  1  0.07926039  0.58466639  0.20170911  1
  Se  Se244  1  0.09259399  0.56699812  0.69320516  1
  Se  Se245  1  0.09408915  0.92170917  0.20550266  1
  Se  Se246  1  0.09091237  0.90502844  0.68827985  1
  Se  Se247  1  0.41299141  0.25480867  0.19295021  1
  Se  Se248  1  0.41629758  0.24622277  0.69731783  1
  Se  Se249  1  0.41918731  0.57585562  0.18347579  1
  Se  Se250  1  0.40916212  0.58593965  0.69967833  1
  Se  Se251  1  0.42369258  0.91930682  0.20187342  1
  Se  Se252  1  0.41131018  0.91625616  0.70089927  1
  Se  Se253  1  0.74764619  0.25112663  0.20231158  1
  Se  Se254  1  0.75266313  0.24341598  0.68304881  1
  Se  Se255  1  0.74953136  0.57748904  0.19493828  1
  Se  Se256  1  0.74724598  0.58587551  0.69032613  1
  Se  Se257  1  0.76304019  0.89655191  0.20644131  1
  Se  Se258  1  0.74346812  0.92481656  0.69482310  1
