# generated using pymatgen
data_In86Cu29Se144
_symmetry_space_group_name_H-M   'P 1'
_cell_length_a   17.56961582
_cell_length_b   17.57258440
_cell_length_c   23.42914485
_cell_angle_alpha   90.02100036
_cell_angle_beta   90.01044565
_cell_angle_gamma   90.01132295
_symmetry_Int_Tables_number   1
_chemical_formula_structural   In86Cu29Se144
_chemical_formula_sum   'In86 Cu29 Se144'
_cell_volume   7233.59676612
_cell_formula_units_Z   1
loop_
 _symmetry_equiv_pos_site_id
 _symmetry_equiv_pos_as_xyz
  1  'x, y, z'
loop_
 _atom_site_type_symbol
 _atom_site_label
 _atom_site_symmetry_multiplicity
 _atom_site_fract_x
 _atom_site_fract_y
 _atom_site_fract_z
 _atom_site_occupancy
  In  In0  1  0.00531156  0.15457356  0.11778456  1
  In  In1  1  -0.00675672  0.14767529  0.63962603  1
  In  In2  1  -0.00071373  0.49883618  0.11563481  1
  In  In3  1  0.01407925  0.51343401  0.62033163  1
  In  In4  1  -0.01115707  0.84538219  0.12088848  1
  In  In5  1  -0.00475981  0.83585272  0.62298493  1
  In  In6  1  0.32283651  0.17403009  0.14005670  1
  In  In7  1  0.34787972  0.15446630  0.62391585  1
  In  In8  1  0.31861856  0.49944740  0.12188019  1
  In  In9  1  0.33363394  0.49973070  0.62722453  1
  In  In10  1  0.35164533  0.83530896  0.12322730  1
  In  In11  1  0.33000803  0.83543255  0.61637792  1
  In  In12  1  0.65518523  0.16191286  0.12332975  1
  In  In13  1  0.66290080  0.16980287  0.63465529  1
  In  In14  1  0.67233792  0.49406686  0.11749890  1
  In  In15  1  0.66672112  0.49517629  0.62675154  1
  In  In16  1  0.66892028  0.84657313  0.11222111  1
  In  In17  1  0.66249382  0.83340250  0.62029963  1
  In  In18  1  0.16444984  -0.00719187  0.37956693  1
  In  In19  1  0.16496185  0.01695915  0.87052368  1
  In  In20  1  0.18343675  0.32612916  0.37916558  1
  In  In21  1  0.17800647  0.32373427  0.87577645  1
  In  In22  1  0.16752751  0.67186335  0.38518282  1
  In  In23  1  0.15600106  0.65713483  0.86479123  1
  In  In24  1  0.49818806  0.00645858  0.38609248  1
  In  In25  1  0.50748789  -0.01255618  0.87757362  1
  In  In26  1  0.49087295  0.34218952  0.38383947  1
  In  In27  1  0.50054079  0.33200360  0.86271141  1
  In  In28  1  0.49220208  0.66823934  0.38630839  1
  In  In29  1  0.51258548  0.67700939  0.85924787  1
  In  In30  1  0.82337860  0.00152803  0.38433531  1
  In  In31  1  0.81832159  -0.01951075  0.85625884  1
  In  In32  1  0.83900304  0.33744947  0.38149890  1
  In  In33  1  0.83578399  0.34856245  0.87315610  1
  In  In34  1  0.82324081  0.67632808  0.38934031  1
  In  In35  1  0.83302005  0.66876753  0.87023466  1
  In  In36  1  0.00638866  0.16059593  0.37481984  1
  In  In37  1  0.01622656  0.16204326  0.86895483  1
  In  In38  1  -0.00485861  0.50695840  0.38857505  1
  In  In39  1  -0.00808852  0.50802549  0.87673425  1
  In  In40  1  -0.00574871  0.85239994  0.39908611  1
  In  In41  1  -0.01089170  0.82014106  0.86370519  1
  In  In42  1  0.33739178  0.18256077  0.37146823  1
  In  In43  1  0.31923798  0.17079609  0.86915624  1
  In  In44  1  0.33807294  0.49221857  0.38418757  1
  In  In45  1  0.32646633  0.49008954  0.86753128  1
  In  In46  1  0.32473520  0.85226269  0.40060346  1
  In  In47  1  0.34899733  0.83623788  0.87312128  1
  In  In48  1  0.66373875  0.14314280  0.37911384  1
  In  In49  1  0.66692898  0.15464263  0.85724088  1
  In  In50  1  0.66271401  0.50550463  0.39102315  1
  In  In51  1  0.67758188  0.51453876  0.86033957  1
  In  In52  1  0.64654596  0.86558653  0.40831322  1
  In  In53  1  0.67069675  0.83561446  0.87034635  1
  In  In54  1  0.16650369  0.01093797  0.12182239  1
  In  In55  1  0.17125352  -0.01003920  0.61924032  1
  In  In56  1  0.16855060  0.33494399  0.12178409  1
  In  In57  1  0.16006110  0.34850202  0.62828016  1
  In  In58  1  0.17855298  0.65548612  0.11780776  1
  In  In59  1  0.17097319  0.66991056  0.63177532  1
  In  In60  1  0.50312191  -0.00259267  0.13317701  1
  In  In61  1  0.51091915  0.01550291  0.59862919  1
  In  In62  1  0.49647388  0.31664689  0.12624481  1
  In  In63  1  0.49724994  0.33254038  0.62602506  1
  In  In64  1  0.49090009  0.68027336  0.12298162  1
  In  In65  1  0.50245170  0.66287776  0.62675917  1
  In  In66  1  0.83104628  -0.01354685  0.11954824  1
  In  In67  1  0.83611388  -0.00686768  0.63080995  1
  In  In68  1  0.82309440  0.34167509  0.11698437  1
  In  In69  1  0.81784930  0.32645090  0.63127857  1
  In  In70  1  0.82921440  0.67071861  0.11321051  1
  In  In71  1  0.83484088  0.66793651  0.62781741  1
  In  In72  1  0.16079405  0.82782834  -0.00231792  1
  In  In73  1  0.49960836  0.15753966  -0.00915499  1
  In  In74  1  0.33445936  0.67245422  0.25183945  1
  In  In75  1  0.50278756  0.50793530  -0.00260647  1
  In  In76  1  0.66239301  0.67302042  0.26054738  1
  In  In77  1  0.00846320  0.00101141  0.25970848  1
  In  In78  1  0.66344793  0.32365679  0.24648920  1
  In  In79  1  0.82700929  0.16709691  0.50805691  1
  In  In80  1  0.00615032  0.33073206  0.24788175  1
  In  In81  1  0.84034294  0.16872882  -0.00590584  1
  In  In82  1  0.33772176  -0.00208712  0.74668140  1
  In  In83  1  0.16378609  0.16845144  0.50793611  1
  In  In84  1  0.00214587  0.66897142  0.25253394  1
  In  In85  1  0.00312599  0.33643026  0.74877813  1
  Cu  Cu86  1  0.17121228  0.49055202  0.25315086  1
  Cu  Cu87  1  -0.00426558  0.66396750  -0.00741468  1
  Cu  Cu88  1  0.83468272  0.50194299  0.74727914  1
  Cu  Cu89  1  0.67538849  0.65550238  0.51172098  1
  Cu  Cu90  1  0.33427758  0.66405468  -0.00781532  1
  Cu  Cu91  1  -0.00064096  -0.00222418  -0.00745166  1
  Cu  Cu92  1  0.50412330  0.83753939  0.74277518  1
  Cu  Cu93  1  0.16559620  0.83706879  0.74372250  1
  Cu  Cu94  1  0.33432867  0.33700540  0.50382485  1
  Cu  Cu95  1  0.49022984  0.49115611  0.25513117  1
  Cu  Cu96  1  0.49965583  0.15806231  0.25533744  1
  Cu  Cu97  1  0.32845533  0.33447676  0.00084637  1
  Cu  Cu98  1  0.17098561  0.50440027  0.74946012  1
  Cu  Cu99  1  0.33301194  0.00695555  -0.00081687  1
  Cu  Cu100  1  0.67202940  0.34171991  -0.01132362  1
  Cu  Cu101  1  0.00612008  0.66789225  0.50947784  1
  Cu  Cu102  1  -0.00641222  0.33846017  0.50752029  1
  Cu  Cu103  1  0.17091704  0.83400906  0.25931612  1
  Cu  Cu104  1  0.66011879  0.32873265  0.50750943  1
  Cu  Cu105  1  0.50503522  0.84388581  0.26144715  1
  Cu  Cu106  1  0.83164674  0.15427745  0.25408136  1
  Cu  Cu107  1  0.83053263  0.82967986  0.74468237  1
  Cu  Cu108  1  0.49994918  0.16317077  0.74418429  1
  Cu  Cu109  1  0.82112020  0.83814093  0.24981844  1
  Cu  Cu110  1  0.66936090  0.67506026  -0.01230115  1
  Cu  Cu111  1  0.49913859  0.49777114  0.74395562  1
  Cu  Cu112  1  0.00930032  0.33769754  -0.00774507  1
  Cu  Cu113  1  0.32973244  0.65892044  0.50813882  1
  Cu  Cu114  1  0.82562327  0.50174580  0.25367860  1
  Se  Se115  1  0.08522491  0.07974720  0.04422418  1
  Se  Se116  1  0.06867902  0.07518688  0.55919828  1
  Se  Se117  1  0.08893478  0.41889295  0.05218793  1
  Se  Se118  1  0.08556437  0.42130562  0.55043904  1
  Se  Se119  1  0.07109462  0.73825710  0.06279709  1
  Se  Se120  1  0.08864850  0.75228241  0.56125956  1
  Se  Se121  1  0.41231879  0.08409522  0.06281237  1
  Se  Se122  1  0.40432579  0.08045316  0.54043433  1
  Se  Se123  1  0.41625911  0.41087679  0.05813621  1
  Se  Se124  1  0.41876804  0.41978846  0.55728041  1
  Se  Se125  1  0.41441209  0.75023811  0.04475912  1
  Se  Se126  1  0.41666596  0.74315399  0.55676132  1
  Se  Se127  1  0.74674553  0.08288338  0.05653140  1
  Se  Se128  1  0.73936492  0.07521593  0.56390550  1
  Se  Se129  1  0.75524144  0.42557963  0.04162059  1
  Se  Se130  1  0.74966463  0.41033714  0.55614074  1
  Se  Se131  1  0.74955028  0.75725619  0.04746140  1
  Se  Se132  1  0.75348881  0.74972748  0.55698352  1
  Se  Se133  1  0.25422295  0.24721038  0.05810867  1
  Se  Se134  1  0.25476000  0.25901701  0.56630708  1
  Se  Se135  1  0.25158841  0.57770695  0.04216489  1
  Se  Se136  1  0.24351119  0.57902523  0.56058185  1
  Se  Se137  1  0.25437812  0.91732083  0.05633142  1
  Se  Se138  1  0.26374722  0.93049955  0.54740983  1
  Se  Se139  1  0.59176445  0.25952223  0.04819708  1
  Se  Se140  1  0.58024851  0.24359186  0.56006223  1
  Se  Se141  1  0.59402595  0.60011223  0.05788583  1
  Se  Se142  1  0.58257370  0.57622239  0.55707278  1
  Se  Se143  1  0.56433365  0.91369420  0.05504635  1
  Se  Se144  1  0.56609097  0.89609255  0.54798394  1
  Se  Se145  1  0.92841785  0.26211143  0.05842684  1
  Se  Se146  1  0.92414602  0.25126741  0.56818479  1
  Se  Se147  1  0.91301812  0.58187210  0.05106878  1
  Se  Se148  1  0.91632108  0.58428991  0.55648640  1
  Se  Se149  1  0.91267784  0.91507640  0.04310933  1
  Se  Se150  1  0.90994938  0.91642012  0.55448381  1
  Se  Se151  1  0.07232114  0.26011442  0.44427871  1
  Se  Se152  1  0.08684142  0.24696311  0.94320160  1
  Se  Se153  1  0.08718595  0.58470777  0.45179066  1
  Se  Se154  1  0.08495770  0.58290481  0.94460006  1
  Se  Se155  1  0.09724824  0.91745911  0.45878346  1
  Se  Se156  1  0.07877405  0.91617871  0.93190416  1
  Se  Se157  1  0.41597463  0.25077474  0.45114431  1
  Se  Se158  1  0.41120613  0.25854633  0.93931529  1
  Se  Se159  1  0.41608869  0.57868241  0.45264872  1
  Se  Se160  1  0.41724905  0.58922831  0.92968618  1
  Se  Se161  1  0.44834243  0.89365574  0.45117828  1
  Se  Se162  1  0.41560230  0.92090986  0.94893656  1
  Se  Se163  1  0.73915905  0.25416405  0.44046730  1
  Se  Se164  1  0.74304988  0.25139171  0.93206112  1
  Se  Se165  1  0.76040959  0.57443712  0.45472629  1
  Se  Se166  1  0.75079213  0.58441231  0.94090933  1
  Se  Se167  1  0.77102710  0.90770123  0.45838353  1
  Se  Se168  1  0.75216166  0.91765098  0.94075374  1
  Se  Se169  1  0.25025045  0.09144611  0.43807703  1
  Se  Se170  1  0.25027660  0.08721077  0.94482031  1
  Se  Se171  1  0.24639594  0.41723624  0.45198730  1
  Se  Se172  1  0.24849945  0.41781208  0.94527575  1
  Se  Se173  1  0.24954265  0.74929087  0.45644548  1
  Se  Se174  1  0.25190597  0.74552852  0.93350178  1
  Se  Se175  1  0.58668429  0.08015071  0.45788100  1
  Se  Se176  1  0.60223028  0.07283275  0.94087221  1
  Se  Se177  1  0.58012658  0.41620093  0.45294845  1
  Se  Se178  1  0.58712280  0.41948603  0.93123896  1
  Se  Se179  1  0.60430347  0.73021283  0.44109050  1
  Se  Se180  1  0.58036854  0.75479648  0.93844102  1
  Se  Se181  1  0.92402858  0.08212655  0.44623124  1
  Se  Se182  1  0.91974082  0.07610055  0.93043859  1
  Se  Se183  1  0.90969843  0.42128894  0.45407916  1
  Se  Se184  1  0.91749659  0.41960109  0.94779161  1
  Se  Se185  1  0.92076413  0.74788509  0.45341934  1
  Se  Se186  1  0.91394443  0.75042565  0.94314770  1
  Se  Se187  1  0.24948581  0.25403578  0.29970156  1
  Se  Se188  1  0.25174845  0.25576128  0.79616258  1
  Se  Se189  1  0.24485029  0.58036078  0.31142394  1
  Se  Se190  1  0.25638007  0.58782174  0.80174264  1
  Se  Se191  1  0.25546776  0.91419205  0.31327251  1
  Se  Se192  1  0.24478853  0.91110811  0.81041005  1
  Se  Se193  1  0.57891179  0.24326781  0.31590234  1
  Se  Se194  1  0.58435946  0.24738246  0.79742510  1
  Se  Se195  1  0.57189849  0.57180965  0.31227278  1
  Se  Se196  1  0.58506011  0.58450817  0.79257554  1
  Se  Se197  1  0.58817267  0.92476954  0.31656891  1
  Se  Se198  1  0.58599936  0.91856751  0.80001090  1
  Se  Se199  1  0.90892667  0.24061724  0.30861895  1
  Se  Se200  1  0.91596635  0.25022870  0.81286513  1
  Se  Se201  1  0.90612577  0.58246653  0.31278790  1
  Se  Se202  1  0.91775431  0.58544484  0.80123905  1
  Se  Se203  1  0.91119307  0.90941242  0.31160765  1
  Se  Se204  1  0.92070527  0.91338757  0.79442477  1
  Se  Se205  1  0.10510498  0.09633612  0.30589896  1
  Se  Se206  1  0.08336047  0.07941731  0.79318970  1
  Se  Se207  1  0.08344317  0.42248784  0.31602187  1
  Se  Se208  1  0.09043013  0.42475818  0.81246356  1
  Se  Se209  1  0.08172549  0.76228417  0.31775007  1
  Se  Se210  1  0.08482382  0.75006381  0.79736787  1
  Se  Se211  1  0.41518084  0.08191873  0.31291970  1
  Se  Se212  1  0.42531018  0.08745287  0.81353882  1
  Se  Se213  1  0.40677268  0.40954762  0.30663726  1
  Se  Se214  1  0.41480880  0.41469911  0.79809894  1
  Se  Se215  1  0.41855272  0.76076939  0.31613460  1
  Se  Se216  1  0.41777815  0.75633402  0.79626479  1
  Se  Se217  1  0.74760747  0.07174376  0.30465605  1
  Se  Se218  1  0.76226631  0.08620330  0.79112089  1
  Se  Se219  1  0.74719928  0.41746494  0.31105375  1
  Se  Se220  1  0.75125275  0.41549056  0.79783342  1
  Se  Se221  1  0.74778729  0.76661259  0.31893092  1
  Se  Se222  1  0.74834440  0.74805906  0.80095744  1
  Se  Se223  1  0.25936005  0.06429145  0.19498141  1
  Se  Se224  1  0.24458391  0.08699040  0.69028352  1
  Se  Se225  1  0.25241097  0.41169863  0.19555469  1
  Se  Se226  1  0.25108926  0.41660461  0.69841734  1
  Se  Se227  1  0.24129199  0.75830946  0.18827901  1
  Se  Se228  1  0.25761577  0.75819176  0.69492634  1
  Se  Se229  1  0.58714840  0.08257090  0.20042828  1
  Se  Se230  1  0.57420551  0.07280130  0.68934369  1
  Se  Se231  1  0.57468931  0.42296642  0.18857341  1
  Se  Se232  1  0.58415799  0.41119851  0.69554159  1
  Se  Se233  1  0.57547782  0.75980968  0.19596385  1
  Se  Se234  1  0.58664076  0.74855026  0.69359922  1
  Se  Se235  1  0.91395418  0.08078998  0.19075863  1
  Se  Se236  1  0.88840169  0.09429490  0.70434842  1
  Se  Se237  1  0.90755633  0.42342556  0.19240221  1
  Se  Se238  1  0.91588441  0.42486470  0.68468314  1
  Se  Se239  1  0.90445397  0.75714401  0.19236677  1
  Se  Se240  1  0.92087352  0.74926672  0.69556032  1
  Se  Se241  1  0.08977465  0.23568129  0.18941453  1
  Se  Se242  1  0.08999005  0.24163918  0.69041251  1
  Se  Se243  1  0.09199806  0.57402168  0.19250374  1
  Se  Se244  1  0.08362120  0.58769862  0.70017302  1
  Se  Se245  1  0.08871738  0.90686835  0.19262920  1
  Se  Se246  1  0.08298369  0.91969751  0.69097794  1
  Se  Se247  1  0.42030491  0.24824462  0.20405648  1
  Se  Se248  1  0.41408186  0.24678636  0.69489761  1
  Se  Se249  1  0.42068519  0.57630520  0.18993730  1
  Se  Se250  1  0.41447725  0.58499095  0.69624972  1
  Se  Se251  1  0.41680132  0.91586390  0.20153632  1
  Se  Se252  1  0.42740482  0.91947881  0.68095740  1
  Se  Se253  1  0.76229082  0.23735034  0.18744816  1
  Se  Se254  1  0.75090236  0.24330758  0.70507665  1
  Se  Se255  1  0.74895171  0.58274710  0.19165111  1
  Se  Se256  1  0.74914267  0.58245341  0.69366343  1
  Se  Se257  1  0.74201524  0.91966153  0.19295246  1
  Se  Se258  1  0.74369683  0.91249100  0.69385049  1
