# generated using pymatgen
data_In86Cu29Se144
_symmetry_space_group_name_H-M   'P 1'
_cell_length_a   17.57619970
_cell_length_b   17.57608659
_cell_length_c   23.43372945
_cell_angle_alpha   89.99622167
_cell_angle_beta   89.98727430
_cell_angle_gamma   90.02015530
_symmetry_Int_Tables_number   1
_chemical_formula_structural   In86Cu29Se144
_chemical_formula_sum   'In86 Cu29 Se144'
_cell_volume   7239.16599059
_cell_formula_units_Z   1
loop_
 _symmetry_equiv_pos_site_id
 _symmetry_equiv_pos_as_xyz
  1  'x, y, z'
loop_
 _atom_site_type_symbol
 _atom_site_label
 _atom_site_symmetry_multiplicity
 _atom_site_fract_x
 _atom_site_fract_y
 _atom_site_fract_z
 _atom_site_occupancy
  In  In0  1  0.00948398  0.17450011  0.12022286  1
  In  In1  1  0.01277264  0.17472462  0.61573600  1
  In  In2  1  0.00108794  0.48692767  0.13667122  1
  In  In3  1  -0.01547757  0.50163327  0.62220046  1
  In  In4  1  -0.00581835  0.82902425  0.12037042  1
  In  In5  1  0.00508664  0.82243178  0.62335094  1
  In  In6  1  0.32870528  0.17193684  0.12847698  1
  In  In7  1  0.31681959  0.17532177  0.63081039  1
  In  In8  1  0.33126192  0.49766781  0.11772210  1
  In  In9  1  0.32233229  0.48654705  0.62339139  1
  In  In10  1  0.33735996  0.84101830  0.12384139  1
  In  In11  1  0.33210248  0.84741446  0.62915272  1
  In  In12  1  0.66413476  0.15175358  0.12267801  1
  In  In13  1  0.68158935  0.17192477  0.62325302  1
  In  In14  1  0.67106432  0.53522023  0.11970556  1
  In  In15  1  0.67233300  0.49196425  0.63249552  1
  In  In16  1  0.66926661  0.82584045  0.12366913  1
  In  In17  1  0.66134736  0.83290404  0.63283896  1
  In  In18  1  0.16782048  -0.00669434  0.38230952  1
  In  In19  1  0.17723833  -0.00579092  0.88504057  1
  In  In20  1  0.16300003  0.32509787  0.37239938  1
  In  In21  1  0.16475033  0.32781117  0.87445362  1
  In  In22  1  0.16037066  0.68546288  0.36966226  1
  In  In23  1  0.16496577  0.66422819  0.88804437  1
  In  In24  1  0.49397344  -0.00880520  0.35707362  1
  In  In25  1  0.48721791  0.00061601  0.87608373  1
  In  In26  1  0.49641806  0.34339211  0.36980021  1
  In  In27  1  0.50563883  0.34118562  0.86855575  1
  In  In28  1  0.50483184  0.65970502  0.36567602  1
  In  In29  1  0.51505977  0.65264449  0.89249412  1
  In  In30  1  0.84095436  0.01181195  0.37161958  1
  In  In31  1  0.83776210  -0.00429128  0.88353249  1
  In  In32  1  0.84502260  0.32669833  0.38201786  1
  In  In33  1  0.82829830  0.32844513  0.87083982  1
  In  In34  1  0.83076450  0.65728386  0.36353654  1
  In  In35  1  0.82309535  0.67930384  0.87965687  1
  In  In36  1  -0.00937540  0.16860286  0.38640934  1
  In  In37  1  -0.00876245  0.17485296  0.88070480  1
  In  In38  1  -0.01353820  0.48445465  0.35751253  1
  In  In39  1  0.01206582  0.49788973  0.87644200  1
  In  In40  1  0.02563308  0.83292629  0.36712872  1
  In  In41  1  -0.00024592  0.83505566  0.88485529  1
  In  In42  1  0.32429595  0.15817047  0.37024842  1
  In  In43  1  0.32581017  0.15693141  0.87039009  1
  In  In44  1  0.33892160  0.49329254  0.36740713  1
  In  In45  1  0.33857764  0.49089063  0.87998214  1
  In  In46  1  0.31476134  0.83806789  0.36573484  1
  In  In47  1  0.33275610  0.83607581  0.88585994  1
  In  In48  1  0.68427596  0.16639768  0.37336636  1
  In  In49  1  0.66817540  0.17980648  0.87754312  1
  In  In50  1  0.66852696  0.51348323  0.37046345  1
  In  In51  1  0.66523309  0.49739299  0.87401590  1
  In  In52  1  0.66215783  0.83068643  0.35865695  1
  In  In53  1  0.67862368  0.81542507  0.89099892  1
  In  In54  1  0.17091370  0.00763716  0.12236544  1
  In  In55  1  0.16899669  0.01200264  0.61729108  1
  In  In56  1  0.16820954  0.33424016  0.12588334  1
  In  In57  1  0.17532110  0.31573732  0.63219675  1
  In  In58  1  0.15969107  0.66128331  0.12115062  1
  In  In59  1  0.15433759  0.66992412  0.62022488  1
  In  In60  1  0.51245145  -0.02298368  0.14669714  1
  In  In61  1  0.49219884  -0.01164768  0.63063513  1
  In  In62  1  0.48626933  0.33441631  0.12177705  1
  In  In63  1  0.49608723  0.33619990  0.63260101  1
  In  In64  1  0.52353628  0.68746379  0.10212364  1
  In  In65  1  0.50450761  0.67966158  0.63007573  1
  In  In66  1  0.82661774  -0.01102924  0.11687645  1
  In  In67  1  0.82455924  0.00814494  0.62145586  1
  In  In68  1  0.85032362  0.34224955  0.12713777  1
  In  In69  1  0.83443616  0.33575726  0.62830342  1
  In  In70  1  0.81779374  0.67461519  0.13936206  1
  In  In71  1  0.83694783  0.65651782  0.62600275  1
  In  In72  1  0.49725603  0.83572407  0.49817221  1
  In  In73  1  0.66293039  0.00270298  0.74888697  1
  In  In74  1  0.83598902  0.50276963  0.00611648  1
  In  In75  1  0.84127223  0.84251567  0.49595321  1
  In  In76  1  0.50335920  0.49801203  0.50854196  1
  In  In77  1  0.49350997  0.16311832  0.00123842  1
  In  In78  1  0.33855376  0.66188786  0.75442268  1
  In  In79  1  -0.00528381  0.66208324  0.75290140  1
  In  In80  1  0.49861549  0.16653899  0.49652927  1
  In  In81  1  0.00006460  -0.00049437  0.75397169  1
  In  In82  1  0.33964519  0.66823430  0.24219655  1
  In  In83  1  0.00189791  0.00215460  0.24927619  1
  In  In84  1  0.66794201  0.33473093  0.24680362  1
  In  In85  1  0.16073545  0.49727735  0.49012324  1
  Cu  Cu86  1  0.32554982  0.33063689  -0.00162105  1
  Cu  Cu87  1  0.00064284  0.67233456  0.49467212  1
  Cu  Cu88  1  0.33638257  0.00313233  0.00649773  1
  Cu  Cu89  1  0.50300192  0.83015084  0.75857875  1
  Cu  Cu90  1  0.00607712  0.33203043  0.00352233  1
  Cu  Cu91  1  0.83553139  0.17175758  0.75014164  1
  Cu  Cu92  1  0.32558254  0.00411247  0.50113660  1
  Cu  Cu93  1  -0.00266354  0.33913208  0.50193033  1
  Cu  Cu94  1  0.83709977  0.16560069  0.25028412  1
  Cu  Cu95  1  0.32698700  0.66916414  0.49077278  1
  Cu  Cu96  1  0.00328121  0.00235695  0.00347828  1
  Cu  Cu97  1  0.67838335  0.33770637  0.50221945  1
  Cu  Cu98  1  0.66747056  -0.00379795  0.00497661  1
  Cu  Cu99  1  0.16655850  0.48738669  0.75243532  1
  Cu  Cu100  1  0.82694420  0.49790175  0.75017014  1
  Cu  Cu101  1  0.67765082  0.66775089  0.49667725  1
  Cu  Cu102  1  0.50089999  0.50188725  0.24121434  1
  Cu  Cu103  1  0.17265867  0.83675880  0.75642527  1
  Cu  Cu104  1  0.66892885  0.33697029  -0.00371687  1
  Cu  Cu105  1  0.16632508  0.16357931  0.75005121  1
  Cu  Cu106  1  0.50000019  0.50043983  0.75598685  1
  Cu  Cu107  1  0.67032292  0.00701316  0.49386049  1
  Cu  Cu108  1  0.49675759  0.16669977  0.24601385  1
  Cu  Cu109  1  0.49691087  0.16920534  0.75393544  1
  Cu  Cu110  1  0.17270083  0.49778012  0.24510372  1
  Cu  Cu111  1  -0.00129328  0.66344175  0.00426123  1
  Cu  Cu112  1  0.32702494  0.66830762  0.00447216  1
  Cu  Cu113  1  0.16335729  0.17334872  0.24920378  1
  Cu  Cu114  1  0.83205268  0.82960908  0.24423554  1
  Se  Se115  1  0.08785977  0.08805272  0.05198227  1
  Se  Se116  1  0.07876067  0.08022301  0.54894467  1
  Se  Se117  1  0.08273605  0.41893325  0.05855843  1
  Se  Se118  1  0.08142450  0.41447822  0.56352580  1
  Se  Se119  1  0.08352899  0.75092276  0.05232432  1
  Se  Se120  1  0.08648894  0.75417419  0.54579187  1
  Se  Se121  1  0.41964420  0.07404659  0.07098239  1
  Se  Se122  1  0.41199608  0.07720068  0.56171896  1
  Se  Se123  1  0.41347900  0.41425331  0.04682306  1
  Se  Se124  1  0.40627035  0.40165208  0.55342581  1
  Se  Se125  1  0.41184724  0.75584731  0.05151987  1
  Se  Se126  1  0.40548532  0.74382220  0.55787577  1
  Se  Se127  1  0.75304227  0.08486985  0.05030234  1
  Se  Se128  1  0.75153218  0.09015620  0.54727346  1
  Se  Se129  1  0.74226284  0.41295594  0.06453163  1
  Se  Se130  1  0.75608742  0.42366911  0.55726524  1
  Se  Se131  1  0.74914545  0.73858514  0.05627788  1
  Se  Se132  1  0.74851137  0.75334191  0.55915796  1
  Se  Se133  1  0.24693686  0.24756634  0.05491910  1
  Se  Se134  1  0.24468169  0.24578558  0.55141086  1
  Se  Se135  1  0.24410508  0.58004809  0.05229220  1
  Se  Se136  1  0.25310022  0.58840757  0.55520416  1
  Se  Se137  1  0.24880561  0.91838786  0.05461225  1
  Se  Se138  1  0.24806408  0.91467388  0.55515106  1
  Se  Se139  1  0.58855901  0.25506769  0.05759530  1
  Se  Se140  1  0.58880701  0.25968417  0.55773735  1
  Se  Se141  1  0.56872999  0.56856058  0.04682509  1
  Se  Se142  1  0.59337654  0.59630678  0.56100671  1
  Se  Se143  1  0.58307851  0.91735498  0.06038173  1
  Se  Se144  1  0.59301636  0.92705137  0.55658678  1
  Se  Se145  1  0.91629939  0.25253772  0.05442263  1
  Se  Se146  1  0.91550030  0.25487963  0.55693076  1
  Se  Se147  1  0.92320251  0.58775548  0.06991482  1
  Se  Se148  1  0.91745066  0.58934505  0.54842425  1
  Se  Se149  1  0.91713353  0.91399111  0.04953358  1
  Se  Se150  1  0.92599067  0.92555080  0.56389011  1
  Se  Se151  1  0.07997849  0.25558995  0.44784008  1
  Se  Se152  1  0.08524783  0.24676376  0.94765632  1
  Se  Se153  1  0.07491318  0.58982265  0.43162438  1
  Se  Se154  1  0.08196193  0.57722780  0.95307851  1
  Se  Se155  1  0.06684555  0.92594191  0.44473453  1
  Se  Se156  1  0.08603157  0.91625365  0.95033903  1
  Se  Se157  1  0.41147161  0.25551748  0.43564267  1
  Se  Se158  1  0.41157494  0.25463390  0.93681263  1
  Se  Se159  1  0.41424940  0.58717115  0.44115645  1
  Se  Se160  1  0.40749119  0.58446838  0.94826743  1
  Se  Se161  1  0.40716202  0.92546921  0.43934508  1
  Se  Se162  1  0.41933192  0.91956501  0.95279955  1
  Se  Se163  1  0.75407148  0.24846865  0.44861884  1
  Se  Se164  1  0.75507784  0.25109737  0.94936280  1
  Se  Se165  1  0.75620447  0.58266236  0.44326862  1
  Se  Se166  1  0.74159698  0.58809199  0.94702985  1
  Se  Se167  1  0.74040475  0.91883148  0.43360954  1
  Se  Se168  1  0.75321347  0.91470566  0.95127304  1
  Se  Se169  1  0.24441241  0.08796982  0.44745351  1
  Se  Se170  1  0.25426262  0.08648635  0.95154655  1
  Se  Se171  1  0.26010530  0.40937104  0.43939978  1
  Se  Se172  1  0.24377219  0.41524425  0.94377919  1
  Se  Se173  1  0.24591642  0.75729531  0.44309629  1
  Se  Se174  1  0.24493354  0.75421575  0.95135199  1
  Se  Se175  1  0.58326933  0.07601705  0.43209237  1
  Se  Se176  1  0.59080633  0.07714656  0.94123980  1
  Se  Se177  1  0.59358159  0.41319403  0.44186662  1
  Se  Se178  1  0.58201085  0.41690351  0.94483524  1
  Se  Se179  1  0.59001608  0.74326792  0.43988985  1
  Se  Se180  1  0.56885541  0.76344592  0.95202129  1
  Se  Se181  1  0.91064569  0.08028738  0.45175689  1
  Se  Se182  1  0.91757302  0.08364770  0.94887390  1
  Se  Se183  1  0.91917666  0.42440834  0.44571561  1
  Se  Se184  1  0.92148363  0.41068543  0.94285595  1
  Se  Se185  1  0.92031531  0.74952787  0.43174884  1
  Se  Se186  1  0.91736694  0.74592185  0.94838846  1
  Se  Se187  1  0.25283685  0.25257016  0.30223805  1
  Se  Se188  1  0.24989522  0.24805576  0.80375629  1
  Se  Se189  1  0.24719545  0.58168143  0.30795844  1
  Se  Se190  1  0.23957903  0.57698748  0.81084292  1
  Se  Se191  1  0.24305261  0.92964932  0.30044247  1
  Se  Se192  1  0.25641687  0.91673186  0.81041395  1
  Se  Se193  1  0.57886516  0.24257889  0.30985207  1
  Se  Se194  1  0.58533649  0.24994002  0.80322124  1
  Se  Se195  1  0.58654220  0.58321553  0.29415978  1
  Se  Se196  1  0.58231151  0.58522082  0.80745558  1
  Se  Se197  1  0.58285324  0.91489600  0.29250532  1
  Se  Se198  1  0.58318364  0.91418067  0.81596172  1
  Se  Se199  1  0.91878154  0.24537686  0.30707826  1
  Se  Se200  1  0.92042639  0.25373752  0.80314418  1
  Se  Se201  1  0.93584979  0.59833362  0.30071086  1
  Se  Se202  1  0.90545192  0.57420505  0.81560664  1
  Se  Se203  1  0.91160081  0.90729058  0.30797557  1
  Se  Se204  1  0.90924079  0.90517264  0.80895894  1
  Se  Se205  1  0.08507742  0.09376746  0.31246605  1
  Se  Se206  1  0.09008611  0.08603810  0.81577719  1
  Se  Se207  1  0.09130287  0.41395998  0.30108360  1
  Se  Se208  1  0.07825850  0.40878751  0.80411798  1
  Se  Se209  1  0.08600484  0.74979417  0.28892538  1
  Se  Se210  1  0.08967209  0.75327808  0.81117889  1
  Se  Se211  1  0.41109150  0.08460937  0.29870528  1
  Se  Se212  1  0.41460453  0.08048387  0.80103367  1
  Se  Se213  1  0.41868315  0.41714658  0.29347477  1
  Se  Se214  1  0.41171342  0.41522151  0.80174860  1
  Se  Se215  1  0.42217932  0.75890674  0.30929115  1
  Se  Se216  1  0.42344769  0.74849327  0.81861680  1
  Se  Se217  1  0.75137600  0.07984354  0.29881715  1
  Se  Se218  1  0.75789588  0.08854314  0.81052235  1
  Se  Se219  1  0.75471591  0.41492442  0.31436435  1
  Se  Se220  1  0.74491405  0.41337458  0.80461345  1
  Se  Se221  1  0.74827026  0.74388294  0.29708081  1
  Se  Se222  1  0.74259859  0.74983124  0.80530084  1
  Se  Se223  1  0.24578616  0.08816404  0.19708417  1
  Se  Se224  1  0.24827472  0.07710574  0.69740207  1
  Se  Se225  1  0.25724160  0.41592879  0.19267416  1
  Se  Se226  1  0.25257423  0.40776504  0.69940447  1
  Se  Se227  1  0.24320325  0.75371170  0.18744034  1
  Se  Se228  1  0.24378045  0.75009438  0.69318685  1
  Se  Se229  1  0.58720358  0.08340993  0.20093889  1
  Se  Se230  1  0.57488415  0.09420963  0.68622906  1
  Se  Se231  1  0.58322129  0.42187786  0.18134600  1
  Se  Se232  1  0.58189812  0.41653833  0.69931173  1
  Se  Se233  1  0.58502543  0.74221460  0.19175428  1
  Se  Se234  1  0.58708560  0.74854360  0.70509750  1
  Se  Se235  1  0.91201959  0.08634557  0.18435287  1
  Se  Se236  1  0.91368532  0.08981792  0.69058398  1
  Se  Se237  1  0.91485120  0.41372784  0.20824189  1
  Se  Se238  1  0.91683795  0.41962707  0.69852910  1
  Se  Se239  1  0.92185982  0.74846662  0.19637527  1
  Se  Se240  1  0.90849648  0.75695150  0.69436460  1
  Se  Se241  1  0.07977242  0.25600625  0.19617251  1
  Se  Se242  1  0.07906585  0.24633972  0.69920244  1
  Se  Se243  1  0.08611191  0.58062908  0.19628573  1
  Se  Se244  1  0.08981316  0.57280986  0.69257276  1
  Se  Se245  1  0.08670476  0.91351722  0.18672898  1
  Se  Se246  1  0.09024689  0.90984449  0.69268187  1
  Se  Se247  1  0.41473229  0.25372302  0.19682487  1
  Se  Se248  1  0.41326875  0.24812089  0.69600615  1
  Se  Se249  1  0.42795600  0.58484225  0.17802329  1
  Se  Se250  1  0.42255776  0.57263919  0.68625075  1
  Se  Se251  1  0.40079307  0.92131242  0.20351631  1
  Se  Se252  1  0.41658453  0.91179758  0.70611805  1
  Se  Se253  1  0.75615918  0.24192788  0.18679072  1
  Se  Se254  1  0.74865912  0.25450762  0.69887462  1
  Se  Se255  1  0.76664934  0.56105721  0.19891436  1
  Se  Se256  1  0.74860196  0.58639945  0.69727676  1
  Se  Se257  1  0.74943695  0.91535153  0.19291199  1
  Se  Se258  1  0.76003251  0.91273259  0.69432135  1
