# generated using pymatgen
data_In86Cu29Se144
_symmetry_space_group_name_H-M   'P 1'
_cell_length_a   17.58952572
_cell_length_b   17.58607937
_cell_length_c   23.44792092
_cell_angle_alpha   89.99189278
_cell_angle_beta   90.00954187
_cell_angle_gamma   90.00902015
_symmetry_Int_Tables_number   1
_chemical_formula_structural   In86Cu29Se144
_chemical_formula_sum   'In86 Cu29 Se144'
_cell_volume   7253.16376890
_cell_formula_units_Z   1
loop_
 _symmetry_equiv_pos_site_id
 _symmetry_equiv_pos_as_xyz
  1  'x, y, z'
loop_
 _atom_site_type_symbol
 _atom_site_label
 _atom_site_symmetry_multiplicity
 _atom_site_fract_x
 _atom_site_fract_y
 _atom_site_fract_z
 _atom_site_occupancy
  In  In0  1  0.00226737  0.16180797  0.12275938  1
  In  In1  1  0.01326179  0.18191410  0.61464805  1
  In  In2  1  0.00605976  0.48776311  0.12174989  1
  In  In3  1  -0.01332763  0.49103178  0.61370299  1
  In  In4  1  -0.00629063  0.84687474  0.12336148  1
  In  In5  1  -0.00593554  0.83897942  0.61942258  1
  In  In6  1  0.33472808  0.17964809  0.12463558  1
  In  In7  1  0.35853575  0.19024210  0.60591876  1
  In  In8  1  0.33241081  0.50010477  0.12319655  1
  In  In9  1  0.33410114  0.49666035  0.62605311  1
  In  In10  1  0.32905060  0.82147584  0.12823101  1
  In  In11  1  0.33703176  0.82182476  0.62495719  1
  In  In12  1  0.65766754  0.17246165  0.13912599  1
  In  In13  1  0.66082619  0.16593980  0.62589608  1
  In  In14  1  0.65817974  0.50123904  0.13272236  1
  In  In15  1  0.65313282  0.48491736  0.61344864  1
  In  In16  1  0.66785313  0.82810535  0.13137452  1
  In  In17  1  0.67197737  0.84552244  0.61976162  1
  In  In18  1  0.17514310  0.02005238  0.37786363  1
  In  In19  1  0.18325718  0.01331702  0.87698040  1
  In  In20  1  0.18262227  0.32432014  0.37896915  1
  In  In21  1  0.17136390  0.33436383  0.87166877  1
  In  In22  1  0.16807335  0.64853667  0.37588257  1
  In  In23  1  0.17673106  0.64645394  0.88319028  1
  In  In24  1  0.50265759  -0.00975535  0.38596643  1
  In  In25  1  0.50601498  -0.00608634  0.87090258  1
  In  In26  1  0.49955911  0.33402401  0.37817137  1
  In  In27  1  0.51330687  0.34800464  0.86748854  1
  In  In28  1  0.49946729  0.66297307  0.37435296  1
  In  In29  1  0.48375140  0.65970119  0.87157635  1
  In  In30  1  0.82309478  0.00986083  0.38451074  1
  In  In31  1  0.81953839  0.00100176  0.87314160  1
  In  In32  1  0.82300717  0.34432832  0.38546246  1
  In  In33  1  0.82567998  0.32440165  0.86331677  1
  In  In34  1  0.82191548  0.67956915  0.38802019  1
  In  In35  1  0.84526588  0.66755933  0.87988924  1
  In  In36  1  0.00314256  0.16458948  0.38245623  1
  In  In37  1  0.00538520  0.18159926  0.86660327  1
  In  In38  1  0.00630848  0.50157403  0.39017204  1
  In  In39  1  0.01117911  0.49977980  0.87239609  1
  In  In40  1  -0.00885278  0.82086590  0.38286638  1
  In  In41  1  -0.00267493  0.81951212  0.87724226  1
  In  In42  1  0.32239149  0.18145135  0.38680194  1
  In  In43  1  0.32081876  0.16506038  0.87808586  1
  In  In44  1  0.33600558  0.49649930  0.37557158  1
  In  In45  1  0.33942487  0.49879571  0.87442061  1
  In  In46  1  0.35448223  0.83826898  0.37663007  1
  In  In47  1  0.34518736  0.83312104  0.87204393  1
  In  In48  1  0.66424293  0.16754402  0.37848890  1
  In  In49  1  0.66433034  0.17228556  0.86405607  1
  In  In50  1  0.66088842  0.49939834  0.37682131  1
  In  In51  1  0.65925658  0.48310306  0.87433670  1
  In  In52  1  0.66338599  0.83232019  0.37560152  1
  In  In53  1  0.66426744  0.84552256  0.87486143  1
  In  In54  1  0.16758283  0.00494842  0.11874244  1
  In  In55  1  0.16265030  0.00565094  0.62135154  1
  In  In56  1  0.17260638  0.34515886  0.11679497  1
  In  In57  1  0.17047443  0.33672056  0.62616599  1
  In  In58  1  0.18565865  0.65489708  0.13174100  1
  In  In59  1  0.18464966  0.66332717  0.62650796  1
  In  In60  1  0.50454032  0.01404787  0.13066356  1
  In  In61  1  0.51521433  0.02217928  0.60451645  1
  In  In62  1  0.49184136  0.33742032  0.13111485  1
  In  In63  1  0.49807948  0.33012427  0.62899860  1
  In  In64  1  0.50338819  0.65765148  0.13121107  1
  In  In65  1  0.48856199  0.65267011  0.61572305  1
  In  In66  1  0.83203465  -0.00943099  0.12695724  1
  In  In67  1  0.82179469  -0.00489497  0.61802767  1
  In  In68  1  0.82895046  0.32591290  0.12927674  1
  In  In69  1  0.83103358  0.33029055  0.62048561  1
  In  In70  1  0.81130586  0.66701790  0.13006812  1
  In  In71  1  0.83184973  0.66391406  0.60995006  1
  In  In72  1  0.00581553  0.66007041  0.74396732  1
  In  In73  1  0.16493810  0.83335733  0.00055023  1
  In  In74  1  -0.00009975  0.33222247  0.25010546  1
  In  In75  1  0.49755616  0.17378141  0.00274035  1
  In  In76  1  -0.00397239  0.00102972  0.73918465  1
  In  In77  1  0.66849615  0.66564790  0.73926657  1
  In  In78  1  0.34553990  0.01169442  0.74143038  1
  In  In79  1  -0.00291650  0.00096494  0.25948312  1
  In  In80  1  0.83515706  0.50196332  0.00321734  1
  In  In81  1  0.33952270  0.00323592  0.25097464  1
  In  In82  1  -0.00680678  0.66372044  0.25892679  1
  In  In83  1  0.49899807  0.82996177  -0.00219021  1
  In  In84  1  0.16135461  0.82833528  0.49604216  1
  In  In85  1  0.83138873  0.16834802  -0.00885550  1
  Cu  Cu86  1  0.67205167  0.00146954  0.00134802  1
  Cu  Cu87  1  0.82517690  0.16855444  0.25852658  1
  Cu  Cu88  1  0.17427981  0.49204380  0.25146619  1
  Cu  Cu89  1  0.17306995  0.49204948  0.75162488  1
  Cu  Cu90  1  0.66397299  0.33078867  0.50100527  1
  Cu  Cu91  1  0.17039658  0.17523175  0.74578520  1
  Cu  Cu92  1  0.33569921  0.66054230  0.49820037  1
  Cu  Cu93  1  0.82283832  0.50213851  0.25863027  1
  Cu  Cu94  1  0.00658054  0.33470168  -0.00820955  1
  Cu  Cu95  1  0.17680463  0.82580106  0.75166836  1
  Cu  Cu96  1  -0.00596746  0.00268291  0.50179315  1
  Cu  Cu97  1  0.50597309  0.82926305  0.25561820  1
  Cu  Cu98  1  0.33214547  0.33894670  -0.00154180  1
  Cu  Cu99  1  0.00096159  0.00216891  -0.00012466  1
  Cu  Cu100  1  -0.00163920  0.67423422  0.00423015  1
  Cu  Cu101  1  0.50456291  0.83563175  0.74673484  1
  Cu  Cu102  1  0.83068171  0.16857644  0.74326633  1
  Cu  Cu103  1  0.33497041  0.34254679  0.50167390  1
  Cu  Cu104  1  0.82784880  0.83500165  0.74665738  1
  Cu  Cu105  1  0.66001237  0.66876537  0.49753874  1
  Cu  Cu106  1  0.49765139  0.49474885  0.25378116  1
  Cu  Cu107  1  0.50317605  0.16621271  0.25868925  1
  Cu  Cu108  1  0.83149714  0.48911591  0.74269559  1
  Cu  Cu109  1  0.17408831  0.83227376  0.24987463  1
  Cu  Cu110  1  0.82140104  0.83150021  0.25293677  1
  Cu  Cu111  1  0.49616581  0.49842244  0.74420213  1
  Cu  Cu112  1  0.66535904  0.00006124  0.49747121  1
  Cu  Cu113  1  0.00322225  0.32977841  0.50094462  1
  Cu  Cu114  1  0.66629393  0.66786256  0.00611659  1
  Se  Se115  1  0.08395389  0.08634799  0.05032055  1
  Se  Se116  1  0.08409668  0.08436448  0.54937415  1
  Se  Se117  1  0.08616048  0.42114093  0.04498954  1
  Se  Se118  1  0.08540495  0.41449097  0.55446076  1
  Se  Se119  1  0.08087218  0.74601725  0.06883918  1
  Se  Se120  1  0.08085614  0.74104897  0.56435758  1
  Se  Se121  1  0.40941866  0.07732069  0.05922778  1
  Se  Se122  1  0.39568707  0.06877994  0.55070134  1
  Se  Se123  1  0.41757431  0.41546976  0.05557646  1
  Se  Se124  1  0.42203979  0.41846084  0.55787848  1
  Se  Se125  1  0.41251219  0.73906975  0.05817515  1
  Se  Se126  1  0.41679342  0.74835240  0.54929366  1
  Se  Se127  1  0.74582585  0.08639854  0.06264712  1
  Se  Se128  1  0.74456945  0.08592071  0.55314960  1
  Se  Se129  1  0.74584347  0.41231292  0.06181011  1
  Se  Se130  1  0.75231805  0.41615913  0.54965502  1
  Se  Se131  1  0.74885378  0.75522337  0.05469830  1
  Se  Se132  1  0.74370777  0.75219674  0.55159566  1
  Se  Se133  1  0.25087362  0.25268485  0.05167465  1
  Se  Se134  1  0.24842983  0.25618394  0.55174550  1
  Se  Se135  1  0.24280518  0.57462497  0.05318067  1
  Se  Se136  1  0.25294500  0.57838364  0.55256030  1
  Se  Se137  1  0.26191353  0.91967425  0.05846384  1
  Se  Se138  1  0.24882429  0.91260805  0.56078194  1
  Se  Se139  1  0.59093463  0.25844818  0.06230687  1
  Se  Se140  1  0.57948224  0.25003870  0.55594439  1
  Se  Se141  1  0.58516505  0.58214747  0.05702571  1
  Se  Se142  1  0.58003902  0.57974498  0.54861062  1
  Se  Se143  1  0.58623938  0.92435580  0.05972380  1
  Se  Se144  1  0.58117599  0.91317327  0.54808332  1
  Se  Se145  1  0.92402106  0.25861540  0.05387860  1
  Se  Se146  1  0.91336740  0.24753830  0.54978133  1
  Se  Se147  1  0.92145455  0.59415467  0.06778479  1
  Se  Se148  1  0.92359321  0.58896009  0.54690678  1
  Se  Se149  1  0.91324528  0.92139514  0.04976556  1
  Se  Se150  1  0.91059742  0.91564368  0.55011925  1
  Se  Se151  1  0.08846505  0.24987413  0.44577181  1
  Se  Se152  1  0.08909752  0.24791212  0.94180333  1
  Se  Se153  1  0.08487625  0.59172347  0.45394135  1
  Se  Se154  1  0.07393166  0.58669880  0.94894352  1
  Se  Se155  1  0.07559455  0.92750568  0.43659538  1
  Se  Se156  1  0.07905308  0.92424262  0.93505910  1
  Se  Se157  1  0.41824033  0.25432768  0.45111944  1
  Se  Se158  1  0.41245993  0.25965956  0.93741834  1
  Se  Se159  1  0.42014994  0.57799972  0.44474539  1
  Se  Se160  1  0.41580899  0.58216875  0.94697553  1
  Se  Se161  1  0.41057138  0.92052386  0.45539185  1
  Se  Se162  1  0.40985854  0.92960669  0.94403682  1
  Se  Se163  1  0.74919267  0.24760331  0.44869771  1
  Se  Se164  1  0.73598401  0.26100330  0.94169176  1
  Se  Se165  1  0.74416389  0.58185406  0.44735773  1
  Se  Se166  1  0.74340047  0.58863892  0.93986888  1
  Se  Se167  1  0.74825307  0.91286458  0.44637820  1
  Se  Se168  1  0.75188977  0.91519512  0.94802170  1
  Se  Se169  1  0.25923820  0.08057355  0.45363817  1
  Se  Se170  1  0.25107626  0.08645747  0.95533554  1
  Se  Se171  1  0.24802806  0.42088220  0.44696392  1
  Se  Se172  1  0.24866257  0.41950380  0.94199945  1
  Se  Se173  1  0.25865608  0.74428900  0.43662041  1
  Se  Se174  1  0.25937872  0.74763078  0.94183162  1
  Se  Se175  1  0.58057573  0.08627653  0.44820284  1
  Se  Se176  1  0.59067407  0.08093399  0.94212914  1
  Se  Se177  1  0.58149979  0.41652892  0.44824637  1
  Se  Se178  1  0.57560209  0.42176669  0.95049973  1
  Se  Se179  1  0.57691545  0.75170367  0.44354931  1
  Se  Se180  1  0.59012429  0.74060281  0.93641353  1
  Se  Se181  1  0.91290359  0.08905939  0.44939456  1
  Se  Se182  1  0.92588393  0.07918647  0.93260289  1
  Se  Se183  1  0.91826400  0.41559088  0.45110003  1
  Se  Se184  1  0.91641205  0.40992872  0.93557662  1
  Se  Se185  1  0.91710825  0.74562899  0.45680071  1
  Se  Se186  1  0.91194522  0.75565278  0.95373082  1
  Se  Se187  1  0.25432320  0.24675876  0.30309165  1
  Se  Se188  1  0.25511988  0.25106638  0.80297222  1
  Se  Se189  1  0.25423404  0.57983475  0.30330489  1
  Se  Se190  1  0.25280618  0.58091826  0.80377863  1
  Se  Se191  1  0.24647299  0.91474928  0.31304367  1
  Se  Se192  1  0.25190403  0.91739682  0.80501113  1
  Se  Se193  1  0.58564685  0.25322750  0.30875710  1
  Se  Se194  1  0.58270383  0.25544601  0.79940915  1
  Se  Se195  1  0.58161783  0.58093819  0.30436651  1
  Se  Se196  1  0.58012552  0.57929528  0.80389543  1
  Se  Se197  1  0.58159613  0.91944677  0.30792793  1
  Se  Se198  1  0.58858054  0.91917269  0.79798995  1
  Se  Se199  1  0.91058868  0.24700636  0.31447997  1
  Se  Se200  1  0.91678223  0.25060051  0.79570647  1
  Se  Se201  1  0.90636218  0.57469056  0.32007648  1
  Se  Se202  1  0.90792753  0.57296213  0.80362274  1
  Se  Se203  1  0.90547760  0.90736934  0.31324920  1
  Se  Se204  1  0.91449893  0.90941080  0.80703361  1
  Se  Se205  1  0.09264570  0.09889656  0.30300759  1
  Se  Se206  1  0.09205110  0.08546587  0.80138112  1
  Se  Se207  1  0.08736335  0.42113247  0.31280642  1
  Se  Se208  1  0.08244938  0.41317876  0.80192399  1
  Se  Se209  1  0.09075387  0.75686814  0.31111234  1
  Se  Se210  1  0.09469576  0.74716709  0.81042788  1
  Se  Se211  1  0.42125424  0.08819881  0.31873727  1
  Se  Se212  1  0.42616182  0.09451200  0.81290263  1
  Se  Se213  1  0.41415420  0.41045288  0.30599885  1
  Se  Se214  1  0.41533771  0.41609201  0.80121977  1
  Se  Se215  1  0.41690806  0.74747791  0.30363591  1
  Se  Se216  1  0.42060724  0.75278327  0.79908474  1
  Se  Se217  1  0.74417896  0.08015376  0.30776070  1
  Se  Se218  1  0.75081986  0.08563043  0.80032522  1
  Se  Se219  1  0.74290843  0.41226068  0.30779160  1
  Se  Se220  1  0.74507137  0.41525014  0.79999958  1
  Se  Se221  1  0.74446137  0.74418780  0.30700330  1
  Se  Se222  1  0.75550924  0.75033389  0.80914769  1
  Se  Se223  1  0.24532823  0.08931319  0.19119801  1
  Se  Se224  1  0.24777142  0.09519641  0.68448842  1
  Se  Se225  1  0.25418572  0.41173173  0.19397477  1
  Se  Se226  1  0.25774000  0.41068960  0.69758883  1
  Se  Se227  1  0.25602849  0.74283583  0.20385723  1
  Se  Se228  1  0.26054222  0.74322391  0.70027930  1
  Se  Se229  1  0.58610629  0.07988433  0.20735379  1
  Se  Se230  1  0.57715608  0.08024541  0.69210262  1
  Se  Se231  1  0.58226463  0.41160821  0.20028361  1
  Se  Se232  1  0.58468770  0.41580413  0.69592717  1
  Se  Se233  1  0.58437388  0.74542692  0.19776430  1
  Se  Se234  1  0.57610471  0.75358715  0.68146784  1
  Se  Se235  1  0.90709632  0.09217325  0.19572639  1
  Se  Se236  1  0.91094186  0.09304836  0.67982319  1
  Se  Se237  1  0.90540734  0.42834094  0.19518938  1
  Se  Se238  1  0.91891342  0.41003230  0.69077195  1
  Se  Se239  1  0.91022898  0.75784324  0.19370363  1
  Se  Se240  1  0.90872256  0.75282278  0.69017203  1
  Se  Se241  1  0.08926508  0.24887834  0.18630258  1
  Se  Se242  1  0.08214974  0.25527929  0.69500697  1
  Se  Se243  1  0.08449072  0.57313011  0.19710373  1
  Se  Se244  1  0.09334111  0.56831914  0.68644775  1
  Se  Se245  1  0.09171157  0.91408552  0.19477532  1
  Se  Se246  1  0.09426952  0.90311007  0.69224532  1
  Se  Se247  1  0.42035485  0.24410291  0.20007430  1
  Se  Se248  1  0.41802057  0.24252857  0.69627412  1
  Se  Se249  1  0.41539928  0.57714162  0.19684518  1
  Se  Se250  1  0.41268799  0.58562008  0.69600961  1
  Se  Se251  1  0.42694378  0.90718434  0.19036430  1
  Se  Se252  1  0.42808771  0.91528010  0.68302803  1
  Se  Se253  1  0.74720400  0.25474303  0.20318687  1
  Se  Se254  1  0.74637971  0.25273929  0.69161499  1
  Se  Se255  1  0.74105263  0.58406607  0.20302079  1
  Se  Se256  1  0.75604503  0.57189529  0.68163675  1
  Se  Se257  1  0.74510450  0.91993796  0.19821114  1
  Se  Se258  1  0.74664506  0.92195042  0.69713465  1
