# generated using pymatgen
data_In86Cu29Se144
_symmetry_space_group_name_H-M   'P 1'
_cell_length_a   17.57303302
_cell_length_b   17.57549894
_cell_length_c   23.43942222
_cell_angle_alpha   90.00337591
_cell_angle_beta   90.00013496
_cell_angle_gamma   90.02633299
_symmetry_Int_Tables_number   1
_chemical_formula_structural   In86Cu29Se144
_chemical_formula_sum   'In86 Cu29 Se144'
_cell_volume   7239.37782946
_cell_formula_units_Z   1
loop_
 _symmetry_equiv_pos_site_id
 _symmetry_equiv_pos_as_xyz
  1  'x, y, z'
loop_
 _atom_site_type_symbol
 _atom_site_label
 _atom_site_symmetry_multiplicity
 _atom_site_fract_x
 _atom_site_fract_y
 _atom_site_fract_z
 _atom_site_occupancy
  In  In0  1  -0.01275722  0.16711891  0.12342258  1
  In  In1  1  -0.00955387  0.15650818  0.62072051  1
  In  In2  1  0.00138862  0.51127989  0.12052252  1
  In  In3  1  -0.01959452  0.54494337  0.64582204  1
  In  In4  1  -0.00748340  0.83318971  0.13140076  1
  In  In5  1  -0.00386214  0.83061732  0.62095665  1
  In  In6  1  0.33916915  0.15540146  0.12369270  1
  In  In7  1  0.32504168  0.15946968  0.61794192  1
  In  In8  1  0.33870827  0.51138679  0.11756343  1
  In  In9  1  0.32655558  0.49469272  0.62696215  1
  In  In10  1  0.33034443  0.82105308  0.12152556  1
  In  In11  1  0.33457281  0.84638667  0.62391278  1
  In  In12  1  0.66920086  0.17089261  0.11488461  1
  In  In13  1  0.67088997  0.17207648  0.62405137  1
  In  In14  1  0.67463043  0.51172388  0.12204341  1
  In  In15  1  0.68773400  0.48943763  0.64765250  1
  In  In16  1  0.65819573  0.82477276  0.11498799  1
  In  In17  1  0.67983594  0.81578621  0.63395769  1
  In  In18  1  0.15637376  0.00706675  0.38439042  1
  In  In19  1  0.16281385  -0.00810084  0.86258189  1
  In  In20  1  0.15752473  0.33305259  0.37998016  1
  In  In21  1  0.17400114  0.33863072  0.87783256  1
  In  In22  1  0.17110115  0.67293629  0.36799013  1
  In  In23  1  0.15363278  0.66321280  0.87580826  1
  In  In24  1  0.51308039  0.00463374  0.37817694  1
  In  In25  1  0.49881176  0.00849081  0.87685107  1
  In  In26  1  0.49563936  0.33224714  0.37653263  1
  In  In27  1  0.51310805  0.32639428  0.87713538  1
  In  In28  1  0.49870117  0.66351521  0.35929170  1
  In  In29  1  0.51652796  0.65355482  0.89012592  1
  In  In30  1  0.84198863  -0.01300029  0.38621561  1
  In  In31  1  0.84088731  -0.00903538  0.87784420  1
  In  In32  1  0.83333270  0.33340006  0.38539757  1
  In  In33  1  0.81628252  0.34891859  0.87720780  1
  In  In34  1  0.83994550  0.66464534  0.37220658  1
  In  In35  1  0.83312179  0.66400629  0.87253496  1
  In  In36  1  0.00349206  0.16046638  0.38701470  1
  In  In37  1  -0.00436460  0.14871086  0.86978180  1
  In  In38  1  -0.00891357  0.50183920  0.37134571  1
  In  In39  1  -0.01382040  0.51086357  0.88343974  1
  In  In40  1  -0.00513934  0.83466809  0.37550828  1
  In  In41  1  -0.02401037  0.81240810  0.85506502  1
  In  In42  1  0.33636350  0.16274149  0.38187153  1
  In  In43  1  0.35196564  0.16365669  0.86641752  1
  In  In44  1  0.32740165  0.50680650  0.36583255  1
  In  In45  1  0.33210210  0.50513147  0.88924822  1
  In  In46  1  0.33211599  0.81775209  0.37473481  1
  In  In47  1  0.33387153  0.84769499  0.87324947  1
  In  In48  1  0.66912994  0.16880737  0.38834810  1
  In  In49  1  0.65688307  0.18059750  0.87385609  1
  In  In50  1  0.67826721  0.51587918  0.36477229  1
  In  In51  1  0.67203494  0.49981569  0.87162495  1
  In  In52  1  0.67599139  0.82492259  0.37878299  1
  In  In53  1  0.68334367  0.81917574  0.88186205  1
  In  In54  1  0.16168405  -0.01466392  0.12765946  1
  In  In55  1  0.16241316  -0.00323959  0.62123709  1
  In  In56  1  0.15352951  0.34144438  0.12209506  1
  In  In57  1  0.17065565  0.33491991  0.62205887  1
  In  In58  1  0.16950525  0.65351692  0.14033660  1
  In  In59  1  0.12866834  0.67101224  0.62866818  1
  In  In60  1  0.50872123  0.00814284  0.11076259  1
  In  In61  1  0.48677162  0.00208064  0.63249317  1
  In  In62  1  0.50786522  0.34176943  0.11349796  1
  In  In63  1  0.51413820  0.33299453  0.63019467  1
  In  In64  1  0.50003306  0.66229956  0.12312275  1
  In  In65  1  0.50991838  0.67325921  0.62635354  1
  In  In66  1  0.83794707  0.00148906  0.11946973  1
  In  In67  1  0.83611006  0.00042878  0.62666680  1
  In  In68  1  0.83391718  0.33105417  0.11516615  1
  In  In69  1  0.83291404  0.33237241  0.62450650  1
  In  In70  1  0.82861938  0.66355921  0.12764789  1
  In  In71  1  0.83193596  0.66637667  0.61658901  1
  In  In72  1  0.67550744  -0.00724432  0.74739422  1
  In  In73  1  0.33784965  0.33011470  0.74882522  1
  In  In74  1  0.50883507  0.50089792  0.49338864  1
  In  In75  1  0.16342422  0.83018324  -0.00168209  1
  In  In76  1  0.15977629  0.49519501  0.50341448  1
  In  In77  1  0.33095548  -0.00825438  0.24734476  1
  In  In78  1  0.33445211  0.67250915  0.75385765  1
  In  In79  1  0.33339501  0.34314042  0.24503475  1
  In  In80  1  0.67112399  0.34182347  0.24140572  1
  In  In81  1  0.67403560  -0.00773972  0.25631555  1
  In  In82  1  -0.00158823  0.34255449  0.25224096  1
  In  In83  1  0.16702254  0.17155324  -0.00211307  1
  In  In84  1  -0.00304229  0.33898990  0.75223939  1
  In  In85  1  0.50441083  0.83903793  0.50145873  1
  Cu  Cu86  1  0.33598416  0.33534540  -0.00374692  1
  Cu  Cu87  1  0.15987369  0.16595431  0.26088340  1
  Cu  Cu88  1  0.66335307  0.00274632  0.50903612  1
  Cu  Cu89  1  0.67236175  0.66542600  0.00035111  1
  Cu  Cu90  1  0.66314746  0.33481068  -0.00416139  1
  Cu  Cu91  1  0.32941105  0.00147860  0.50188077  1
  Cu  Cu92  1  -0.00742645  0.67281278  0.49777096  1
  Cu  Cu93  1  0.00108417  0.33278280  0.50599825  1
  Cu  Cu94  1  0.67248640  0.00192273  -0.00755898  1
  Cu  Cu95  1  0.84194166  0.15751676  0.25155348  1
  Cu  Cu96  1  0.50717875  0.16913374  0.24785281  1
  Cu  Cu97  1  0.33554349  0.67050641  0.00684162  1
  Cu  Cu98  1  0.16638632  0.15953020  0.74275578  1
  Cu  Cu99  1  0.32199172  0.66600662  0.49851523  1
  Cu  Cu100  1  -0.00556120  0.66922711  0.00047832  1
  Cu  Cu101  1  0.82797818  0.17037630  0.74830762  1
  Cu  Cu102  1  0.49942430  0.82555912  0.23993537  1
  Cu  Cu103  1  0.67234987  0.33649900  0.50770586  1
  Cu  Cu104  1  0.83156815  0.82643085  0.25247911  1
  Cu  Cu105  1  0.50438041  0.83375867  0.75622795  1
  Cu  Cu106  1  0.33972170  0.32606541  0.50133354  1
  Cu  Cu107  1  0.50166215  0.50439037  0.75862505  1
  Cu  Cu108  1  0.16549824  0.83529927  0.74268756  1
  Cu  Cu109  1  -0.00114002  -0.00625729  -0.00303718  1
  Cu  Cu110  1  0.67493460  0.66065119  0.49976655  1
  Cu  Cu111  1  0.33954669  0.00753420  -0.00751074  1
  Cu  Cu112  1  -0.00666378  0.33561837  -0.00146139  1
  Cu  Cu113  1  0.15566719  0.83271441  0.25228543  1
  Cu  Cu114  1  -0.00297118  -0.00266238  0.50384614  1
  Se  Se115  1  0.08087789  0.07412327  0.05681991  1
  Se  Se116  1  0.08277537  0.08403905  0.55287520  1
  Se  Se117  1  0.07659191  0.42022148  0.05018099  1
  Se  Se118  1  0.06750115  0.41886448  0.57007799  1
  Se  Se119  1  0.07922505  0.74313639  0.06323030  1
  Se  Se120  1  0.08211770  0.75477754  0.54639548  1
  Se  Se121  1  0.42117414  0.09216882  0.04612749  1
  Se  Se122  1  0.41884531  0.08041699  0.55334504  1
  Se  Se123  1  0.41598160  0.42084644  0.05086545  1
  Se  Se124  1  0.41592106  0.41363387  0.55817880  1
  Se  Se125  1  0.42391558  0.75483255  0.05305268  1
  Se  Se126  1  0.41036695  0.74276838  0.55681024  1
  Se  Se127  1  0.75297529  0.08337216  0.05194264  1
  Se  Se128  1  0.75227645  0.08398337  0.55882683  1
  Se  Se129  1  0.74396933  0.41473791  0.05430386  1
  Se  Se130  1  0.75117471  0.42446280  0.56009415  1
  Se  Se131  1  0.75565143  0.74984503  0.05354939  1
  Se  Se132  1  0.75095769  0.75519374  0.54847272  1
  Se  Se133  1  0.25808691  0.25793542  0.06209436  1
  Se  Se134  1  0.24715412  0.25091927  0.55196041  1
  Se  Se135  1  0.24284844  0.59140310  0.05557453  1
  Se  Se136  1  0.24684196  0.59027660  0.56389913  1
  Se  Se137  1  0.25957469  0.92624795  0.05327493  1
  Se  Se138  1  0.24738232  0.91393766  0.55111148  1
  Se  Se139  1  0.58013936  0.24757122  0.04809800  1
  Se  Se140  1  0.58382045  0.25232352  0.55416565  1
  Se  Se141  1  0.58441259  0.58341152  0.05187401  1
  Se  Se142  1  0.59407587  0.58300402  0.56156623  1
  Se  Se143  1  0.58806091  0.91935898  0.04719660  1
  Se  Se144  1  0.59076157  0.91863954  0.57134017  1
  Se  Se145  1  0.91421311  0.24419085  0.04759891  1
  Se  Se146  1  0.91376212  0.24905682  0.55559923  1
  Se  Se147  1  0.90972381  0.58441202  0.05285292  1
  Se  Se148  1  0.91661350  0.57964542  0.54942843  1
  Se  Se149  1  0.91883411  0.91166945  0.05441797  1
  Se  Se150  1  0.91040370  0.91448853  0.55448025  1
  Se  Se151  1  0.08550197  0.25031082  0.45234197  1
  Se  Se152  1  0.07156658  0.25467441  0.93633059  1
  Se  Se153  1  0.07826358  0.59011370  0.44060186  1
  Se  Se154  1  0.08111731  0.58431291  0.95133367  1
  Se  Se155  1  0.07849917  0.91460519  0.44748465  1
  Se  Se156  1  0.07516693  0.91440317  0.93452896  1
  Se  Se157  1  0.42416713  0.24529170  0.44715154  1
  Se  Se158  1  0.41560220  0.25103110  0.94150054  1
  Se  Se159  1  0.40858684  0.59100677  0.44067020  1
  Se  Se160  1  0.41926676  0.58388383  0.95563380  1
  Se  Se161  1  0.40937494  0.92374731  0.43796538  1
  Se  Se162  1  0.42141525  0.91719940  0.94530940  1
  Se  Se163  1  0.75495138  0.24936915  0.45492103  1
  Se  Se164  1  0.74830460  0.25120107  0.94403471  1
  Se  Se165  1  0.75780240  0.58004887  0.44389690  1
  Se  Se166  1  0.75224696  0.58166536  0.94357320  1
  Se  Se167  1  0.73875843  0.91973588  0.44864148  1
  Se  Se168  1  0.75765445  0.91296320  0.94837663  1
  Se  Se169  1  0.24729384  0.08714069  0.44872354  1
  Se  Se170  1  0.25007004  0.07944438  0.93424181  1
  Se  Se171  1  0.26161248  0.41186557  0.44213469  1
  Se  Se172  1  0.24483837  0.41937233  0.95316836  1
  Se  Se173  1  0.24181253  0.75239576  0.44689281  1
  Se  Se174  1  0.25839773  0.74382389  0.93834247  1
  Se  Se175  1  0.58149473  0.08572577  0.45373941  1
  Se  Se176  1  0.58637360  0.08749176  0.94391843  1
  Se  Se177  1  0.60072116  0.41001398  0.43564801  1
  Se  Se178  1  0.58359833  0.42215010  0.94243093  1
  Se  Se179  1  0.58271860  0.73511156  0.44268354  1
  Se  Se180  1  0.58739815  0.75385244  0.95171278  1
  Se  Se181  1  0.91188211  0.08336543  0.45239927  1
  Se  Se182  1  0.91603066  0.08219850  0.94800922  1
  Se  Se183  1  0.92431826  0.41635591  0.44685393  1
  Se  Se184  1  0.90750399  0.41932629  0.94793558  1
  Se  Se185  1  0.90791124  0.75552117  0.44479275  1
  Se  Se186  1  0.91424522  0.75136910  0.94348999  1
  Se  Se187  1  0.24883995  0.24722810  0.31023540  1
  Se  Se188  1  0.24122658  0.23918126  0.80729310  1
  Se  Se189  1  0.25133792  0.59066638  0.29861977  1
  Se  Se190  1  0.24840906  0.57799993  0.81195215  1
  Se  Se191  1  0.24014124  0.91149888  0.31275518  1
  Se  Se192  1  0.25274892  0.91466635  0.79570538  1
  Se  Se193  1  0.58688217  0.24709364  0.30809109  1
  Se  Se194  1  0.57371158  0.24611951  0.79760288  1
  Se  Se195  1  0.58341761  0.57918903  0.29751667  1
  Se  Se196  1  0.58698456  0.58960017  0.80632105  1
  Se  Se197  1  0.57339805  0.90167267  0.30836825  1
  Se  Se198  1  0.58770601  0.91085491  0.81566403  1
  Se  Se199  1  0.91463445  0.24424044  0.31222339  1
  Se  Se200  1  0.90816511  0.24732844  0.81248272  1
  Se  Se201  1  0.92010326  0.58548114  0.29954943  1
  Se  Se202  1  0.92589640  0.59028518  0.80435513  1
  Se  Se203  1  0.91063339  0.91652545  0.30436651  1
  Se  Se204  1  0.92989466  0.93185737  0.80230988  1
  Se  Se205  1  0.07568436  0.08138805  0.30937610  1
  Se  Se206  1  0.08103100  0.07897726  0.79656194  1
  Se  Se207  1  0.09773279  0.42858875  0.30741665  1
  Se  Se208  1  0.08454174  0.42436274  0.81618163  1
  Se  Se209  1  0.07440602  0.74915005  0.30615120  1
  Se  Se210  1  0.08987856  0.75085745  0.80117196  1
  Se  Se211  1  0.42527091  0.08624920  0.30477192  1
  Se  Se212  1  0.41461820  0.06938769  0.79829202  1
  Se  Se213  1  0.42995552  0.42699044  0.30508462  1
  Se  Se214  1  0.41716374  0.42439585  0.81443388  1
  Se  Se215  1  0.41193867  0.75082622  0.29699085  1
  Se  Se216  1  0.42794182  0.75094785  0.81844014  1
  Se  Se217  1  0.75739293  0.08846834  0.31568864  1
  Se  Se218  1  0.75377821  0.08825303  0.81248236  1
  Se  Se219  1  0.76641370  0.41877564  0.30577860  1
  Se  Se220  1  0.74573274  0.41743786  0.79719851  1
  Se  Se221  1  0.74678808  0.74384332  0.30471804  1
  Se  Se222  1  0.75521122  0.75091797  0.80236030  1
  Se  Se223  1  0.23764637  0.09035464  0.19396886  1
  Se  Se224  1  0.25047828  0.07658551  0.69067645  1
  Se  Se225  1  0.24010930  0.42772108  0.18679442  1
  Se  Se226  1  0.23835059  0.42271608  0.70039070  1
  Se  Se227  1  0.24433764  0.75810262  0.19656486  1
  Se  Se228  1  0.24526495  0.75131386  0.68434368  1
  Se  Se229  1  0.58781109  0.08552796  0.19182059  1
  Se  Se230  1  0.58305122  0.08580351  0.69299693  1
  Se  Se231  1  0.57336025  0.42903229  0.18934120  1
  Se  Se232  1  0.58151729  0.41842988  0.70389866  1
  Se  Se233  1  0.58822564  0.74468180  0.19151877  1
  Se  Se234  1  0.58425745  0.74880394  0.70263507  1
  Se  Se235  1  0.92100275  0.07600556  0.19499992  1
  Se  Se236  1  0.91296257  0.08541850  0.69844881  1
  Se  Se237  1  0.90824262  0.42074464  0.18625900  1
  Se  Se238  1  0.90554020  0.42966155  0.69546728  1
  Se  Se239  1  0.91470762  0.74455736  0.19773136  1
  Se  Se240  1  0.94331153  0.71720799  0.68213009  1
  Se  Se241  1  0.08617964  0.24317317  0.19369110  1
  Se  Se242  1  0.08500838  0.24575458  0.68953113  1
  Se  Se243  1  0.06830541  0.58547964  0.20150817  1
  Se  Se244  1  0.10413405  0.56697297  0.70228680  1
  Se  Se245  1  0.07527232  0.91918347  0.20044052  1
  Se  Se246  1  0.07824569  0.91529122  0.69007186  1
  Se  Se247  1  0.42520682  0.24634091  0.18879552  1
  Se  Se248  1  0.42077461  0.23963808  0.68691383  1
  Se  Se249  1  0.40525252  0.59518355  0.19246799  1
  Se  Se250  1  0.42288272  0.57687776  0.69122041  1
  Se  Se251  1  0.42803293  0.91594028  0.18274277  1
  Se  Se252  1  0.41694425  0.91078457  0.70228325  1
  Se  Se253  1  0.76133844  0.23808477  0.19226106  1
  Se  Se254  1  0.74777327  0.25564372  0.69603813  1
  Se  Se255  1  0.74902644  0.58196454  0.19927038  1
  Se  Se256  1  0.73539288  0.61306124  0.69177319  1
  Se  Se257  1  0.75490250  0.90684292  0.18828914  1
  Se  Se258  1  0.77223965  0.89847007  0.69864716  1
