# generated using pymatgen
data_In86Cu29Se144
_symmetry_space_group_name_H-M   'P 1'
_cell_length_a   17.57688937
_cell_length_b   17.57828825
_cell_length_c   23.44027012
_cell_angle_alpha   89.96921905
_cell_angle_beta   89.99418261
_cell_angle_gamma   90.01678966
_symmetry_Int_Tables_number   1
_chemical_formula_structural   In86Cu29Se144
_chemical_formula_sum   'In86 Cu29 Se144'
_cell_volume   7242.37702322
_cell_formula_units_Z   1
loop_
 _symmetry_equiv_pos_site_id
 _symmetry_equiv_pos_as_xyz
  1  'x, y, z'
loop_
 _atom_site_type_symbol
 _atom_site_label
 _atom_site_symmetry_multiplicity
 _atom_site_fract_x
 _atom_site_fract_y
 _atom_site_fract_z
 _atom_site_occupancy
  In  In0  1  -0.01038370  0.16446657  0.13155146  1
  In  In1  1  -0.01036283  0.17212113  0.62037467  1
  In  In2  1  0.00470085  0.51589268  0.11844411  1
  In  In3  1  0.00199527  0.50761997  0.61851379  1
  In  In4  1  0.00104769  0.82359954  0.14205974  1
  In  In5  1  -0.01063157  0.81750180  0.61706335  1
  In  In6  1  0.33462013  0.15342560  0.12615535  1
  In  In7  1  0.35027530  0.15502322  0.63757973  1
  In  In8  1  0.34026039  0.50785940  0.11884340  1
  In  In9  1  0.32625587  0.49440474  0.62397867  1
  In  In10  1  0.33853528  0.82898666  0.13231826  1
  In  In11  1  0.33002515  0.85133459  0.62036681  1
  In  In12  1  0.66330396  0.17809170  0.12804110  1
  In  In13  1  0.66688626  0.16919157  0.61888492  1
  In  In14  1  0.66270232  0.49836672  0.12566562  1
  In  In15  1  0.65770039  0.49434453  0.61531189  1
  In  In16  1  0.65037894  0.83845612  0.12990919  1
  In  In17  1  0.67782204  0.82349304  0.62043145  1
  In  In18  1  0.16255191  -0.01187299  0.37378183  1
  In  In19  1  0.18910032  -0.01070306  0.87305862  1
  In  In20  1  0.17896954  0.33905727  0.37979643  1
  In  In21  1  0.18146587  0.33375047  0.87279117  1
  In  In22  1  0.16633310  0.66897470  0.37575716  1
  In  In23  1  0.14839217  0.67156123  0.87135157  1
  In  In24  1  0.50484133  0.01035241  0.37915005  1
  In  In25  1  0.49292801  0.01059408  0.88226541  1
  In  In26  1  0.51086461  0.32561690  0.37829349  1
  In  In27  1  0.50598425  0.33822643  0.87183400  1
  In  In28  1  0.49487773  0.65775290  0.36870068  1
  In  In29  1  0.50291095  0.66366406  0.88837540  1
  In  In30  1  0.84290289  -0.01793255  0.39781607  1
  In  In31  1  0.84636665  0.00275463  0.87582331  1
  In  In32  1  0.81889320  0.34664806  0.38230471  1
  In  In33  1  0.82877100  0.35835884  0.86787806  1
  In  In34  1  0.83180683  0.66578100  0.36680805  1
  In  In35  1  0.83194226  0.65157398  0.86734800  1
  In  In36  1  -0.00088382  0.14970778  0.37679128  1
  In  In37  1  -0.00451447  0.16983206  0.87528320  1
  In  In38  1  -0.01014885  0.51199211  0.38099630  1
  In  In39  1  -0.01257243  0.51472933  0.88010538  1
  In  In40  1  -0.00596840  0.83286954  0.37103173  1
  In  In41  1  0.01273622  0.82122168  0.86687484  1
  In  In42  1  0.34987912  0.16090697  0.37916825  1
  In  In43  1  0.36923594  0.19223241  0.84563227  1
  In  In44  1  0.32555602  0.50724885  0.38347892  1
  In  In45  1  0.34316324  0.49517380  0.88256992  1
  In  In46  1  0.33049074  0.82676442  0.37373886  1
  In  In47  1  0.33102409  0.84909293  0.86994124  1
  In  In48  1  0.65580507  0.16801967  0.38486551  1
  In  In49  1  0.64888432  0.16909395  0.86863151  1
  In  In50  1  0.66590042  0.49959125  0.37044979  1
  In  In51  1  0.67452933  0.49307607  0.87800389  1
  In  In52  1  0.69678180  0.82946687  0.37577546  1
  In  In53  1  0.66419776  0.81927610  0.87804858  1
  In  In54  1  0.17340719  -0.01187442  0.13625363  1
  In  In55  1  0.18703205  -0.00685194  0.61656669  1
  In  In56  1  0.15933271  0.34437995  0.12241196  1
  In  In57  1  0.16847747  0.34629994  0.62575709  1
  In  In58  1  0.17089959  0.66564891  0.13149121  1
  In  In59  1  0.15511192  0.65945867  0.61630764  1
  In  In60  1  0.49113174  -0.00711755  0.11914236  1
  In  In61  1  0.48581091  0.00817838  0.62220049  1
  In  In62  1  0.50847301  0.34243932  0.11709110  1
  In  In63  1  0.49673359  0.33332314  0.62827671  1
  In  In64  1  0.49741038  0.66602515  0.12878855  1
  In  In65  1  0.51343922  0.66167445  0.61978156  1
  In  In66  1  0.83815116  -0.00122705  0.13710340  1
  In  In67  1  0.82528485  -0.00387344  0.61154741  1
  In  In68  1  0.81361261  0.33843252  0.13017851  1
  In  In69  1  0.82086684  0.33095889  0.61858310  1
  In  In70  1  0.84163699  0.65944858  0.13697294  1
  In  In71  1  0.84645588  0.67460675  0.61496329  1
  In  In72  1  0.66373176  -0.00026940  0.73915645  1
  In  In73  1  0.32833918  0.67038457  0.74878475  1
  In  In74  1  0.82776839  0.83090268  0.00424401  1
  In  In75  1  0.66997942  -0.00370206  0.26024362  1
  In  In76  1  0.00751477  -0.00654380  0.74556079  1
  In  In77  1  -0.00028107  0.33226041  0.25273967  1
  In  In78  1  0.17172732  0.16702482  -0.00379475  1
  In  In79  1  0.17156655  0.82873461  -0.00362652  1
  In  In80  1  0.33880519  0.33167808  0.25199609  1
  In  In81  1  0.67461139  0.66088887  0.74840780  1
  In  In82  1  0.82243781  0.17868616  0.01033954  1
  In  In83  1  0.16767788  0.17132929  0.50057312  1
  In  In84  1  0.00120532  0.33732593  0.74331984  1
  In  In85  1  0.50665130  0.83409188  0.49865601  1
  Cu  Cu86  1  0.65986302  -0.00085642  0.00099981  1
  Cu  Cu87  1  0.33217994  0.66652399  0.49895281  1
  Cu  Cu88  1  0.50414854  0.16385375  0.25432056  1
  Cu  Cu89  1  0.17292183  0.15775761  0.74927489  1
  Cu  Cu90  1  0.00055270  0.66557064  0.49119758  1
  Cu  Cu91  1  0.49837302  0.83946790  0.75168023  1
  Cu  Cu92  1  0.16587166  0.83193942  0.25659674  1
  Cu  Cu93  1  0.33269403  0.66613361  0.00675120  1
  Cu  Cu94  1  -0.00474810  0.33657336  0.50332517  1
  Cu  Cu95  1  0.16595417  0.50103849  0.74942958  1
  Cu  Cu96  1  -0.00158821  0.34957204  0.00000395  1
  Cu  Cu97  1  0.66188118  0.66353664  0.00562545  1
  Cu  Cu98  1  0.34243333  0.00546683  -0.00389885  1
  Cu  Cu99  1  0.67398103  0.66136854  0.49405098  1
  Cu  Cu100  1  0.82520220  0.16799601  0.74391492  1
  Cu  Cu101  1  0.00665167  -0.00104215  0.00734707  1
  Cu  Cu102  1  0.66237034  0.33604092  -0.00199856  1
  Cu  Cu103  1  0.83141935  0.49809577  0.25249641  1
  Cu  Cu104  1  -0.00533222  0.66332950  0.00032500  1
  Cu  Cu105  1  0.16945278  0.15376798  0.25277173  1
  Cu  Cu106  1  0.16698821  0.50869074  0.25289482  1
  Cu  Cu107  1  0.49990870  0.49941503  0.24553841  1
  Cu  Cu108  1  0.49869205  0.82909343  0.25279036  1
  Cu  Cu109  1  0.50052635  0.49477620  0.74953404  1
  Cu  Cu110  1  0.83330953  0.16078345  0.25659261  1
  Cu  Cu111  1  0.33857361  0.33790754  0.50394868  1
  Cu  Cu112  1  0.00103228  -0.00664852  0.49869778  1
  Cu  Cu113  1  0.33806222  0.33092001  -0.00641011  1
  Cu  Cu114  1  0.66198886  0.33669634  0.50029129  1
  Se  Se115  1  0.08515889  0.08109176  0.06524526  1
  Se  Se116  1  0.07769320  0.07688870  0.56030638  1
  Se  Se117  1  0.08641413  0.42865106  0.05138217  1
  Se  Se118  1  0.08357344  0.41722136  0.55310048  1
  Se  Se119  1  0.07479490  0.74762508  0.05859114  1
  Se  Se120  1  0.08213713  0.74916909  0.54639365  1
  Se  Se121  1  0.42227498  0.08975213  0.05138921  1
  Se  Se122  1  0.40972789  0.08869699  0.55034200  1
  Se  Se123  1  0.41483406  0.41601833  0.05223984  1
  Se  Se124  1  0.42058124  0.42278738  0.55733572  1
  Se  Se125  1  0.41561069  0.75103677  0.05817438  1
  Se  Se126  1  0.41342583  0.74498940  0.56087401  1
  Se  Se127  1  0.74240008  0.07211175  0.06501047  1
  Se  Se128  1  0.75416093  0.09271318  0.55077621  1
  Se  Se129  1  0.74634505  0.41795433  0.05278493  1
  Se  Se130  1  0.75085586  0.42130288  0.54737168  1
  Se  Se131  1  0.74097290  0.74365931  0.06719225  1
  Se  Se132  1  0.75495245  0.74920088  0.54533518  1
  Se  Se133  1  0.25807804  0.25830090  0.06109160  1
  Se  Se134  1  0.25743777  0.25571486  0.56375125  1
  Se  Se135  1  0.24381796  0.58492227  0.05619384  1
  Se  Se136  1  0.25071546  0.58149676  0.55416007  1
  Se  Se137  1  0.25880131  0.92441085  0.05518928  1
  Se  Se138  1  0.25204487  0.91243212  0.53931134  1
  Se  Se139  1  0.58361748  0.24773360  0.05110481  1
  Se  Se140  1  0.57905925  0.25461951  0.55552572  1
  Se  Se141  1  0.57707619  0.58100230  0.05838343  1
  Se  Se142  1  0.58297846  0.58242484  0.54374928  1
  Se  Se143  1  0.57807518  0.91248972  0.05144949  1
  Se  Se144  1  0.58890234  0.92137502  0.56629813  1
  Se  Se145  1  0.92425192  0.26704179  0.06329458  1
  Se  Se146  1  0.90953932  0.25083076  0.55040900  1
  Se  Se147  1  0.90591365  0.58511202  0.05333325  1
  Se  Se148  1  0.91737372  0.58215771  0.54575652  1
  Se  Se149  1  0.92486683  0.91784006  0.06366829  1
  Se  Se150  1  0.91403749  0.91091267  0.55033071  1
  Se  Se151  1  0.07422635  0.25884828  0.43873848  1
  Se  Se152  1  0.07399601  0.26198939  0.94257064  1
  Se  Se153  1  0.08959821  0.57948161  0.44526127  1
  Se  Se154  1  0.08345492  0.58560842  0.94719352  1
  Se  Se155  1  0.08043900  0.90932919  0.44418059  1
  Se  Se156  1  0.07919007  0.92455584  0.93954782  1
  Se  Se157  1  0.41713926  0.25454970  0.44696839  1
  Se  Se158  1  0.42139216  0.24969797  0.93910939  1
  Se  Se159  1  0.41906904  0.58484681  0.44771562  1
  Se  Se160  1  0.41710235  0.58154497  0.95384219  1
  Se  Se161  1  0.41268640  0.91986780  0.44076042  1
  Se  Se162  1  0.41828236  0.91200593  0.94548627  1
  Se  Se163  1  0.74613810  0.25236637  0.44790825  1
  Se  Se164  1  0.74548071  0.25843501  0.93519890  1
  Se  Se165  1  0.75504645  0.57828733  0.43807880  1
  Se  Se166  1  0.74582302  0.58987253  0.94436662  1
  Se  Se167  1  0.72867738  0.92741859  0.45283535  1
  Se  Se168  1  0.74485340  0.92651868  0.94007828  1
  Se  Se169  1  0.25139833  0.07920435  0.43952919  1
  Se  Se170  1  0.26592723  0.08715460  0.93451940  1
  Se  Se171  1  0.24987051  0.41946439  0.45427846  1
  Se  Se172  1  0.24963128  0.41648645  0.94800209  1
  Se  Se173  1  0.24902463  0.75040300  0.44702392  1
  Se  Se174  1  0.26033052  0.73952573  0.93517176  1
  Se  Se175  1  0.57388554  0.08824222  0.45516420  1
  Se  Se176  1  0.58422172  0.08865750  0.94777146  1
  Se  Se177  1  0.58236307  0.42113230  0.44345479  1
  Se  Se178  1  0.58052204  0.42221950  0.94550265  1
  Se  Se179  1  0.59052487  0.74288067  0.43530591  1
  Se  Se180  1  0.58230112  0.75297818  0.95454338  1
  Se  Se181  1  0.91741228  0.08615893  0.45489649  1
  Se  Se182  1  0.92216429  0.08451786  0.95453571  1
  Se  Se183  1  0.91460813  0.41970443  0.44671555  1
  Se  Se184  1  0.90901409  0.42394786  0.94632125  1
  Se  Se185  1  0.91280536  0.74654615  0.43941342  1
  Se  Se186  1  0.91973909  0.74816315  0.93941989  1
  Se  Se187  1  0.24626718  0.23908656  0.31066957  1
  Se  Se188  1  0.24953015  0.25113026  0.79773148  1
  Se  Se189  1  0.25386373  0.58666042  0.30702014  1
  Se  Se190  1  0.24598428  0.57773025  0.81312520  1
  Se  Se191  1  0.25375803  0.91604628  0.30439094  1
  Se  Se192  1  0.23677551  0.89970433  0.79494990  1
  Se  Se193  1  0.58886649  0.24754531  0.30412260  1
  Se  Se194  1  0.58014102  0.25458102  0.79852846  1
  Se  Se195  1  0.58367995  0.58196327  0.29996413  1
  Se  Se196  1  0.57549521  0.58097199  0.80954361  1
  Se  Se197  1  0.57857696  0.90405453  0.31743962  1
  Se  Se198  1  0.58332306  0.91403511  0.81221620  1
  Se  Se199  1  0.91086324  0.24651203  0.31607476  1
  Se  Se200  1  0.90736646  0.24666714  0.80526819  1
  Se  Se201  1  0.91982029  0.58169792  0.29963429  1
  Se  Se202  1  0.92332178  0.58560478  0.79797677  1
  Se  Se203  1  0.90573936  0.92169026  0.31097993  1
  Se  Se204  1  0.91316549  0.90750637  0.80695442  1
  Se  Se205  1  0.08186207  0.07556365  0.30510379  1
  Se  Se206  1  0.08976403  0.08724005  0.81292093  1
  Se  Se207  1  0.09042824  0.42283079  0.31155047  1
  Se  Se208  1  0.08561421  0.42134217  0.81230553  1
  Se  Se209  1  0.08071182  0.74700185  0.30566439  1
  Se  Se210  1  0.09736949  0.75779284  0.79210100  1
  Se  Se211  1  0.41934397  0.07889290  0.30289293  1
  Se  Se212  1  0.40698520  0.06378170  0.80286886  1
  Se  Se213  1  0.42251330  0.42365064  0.31325757  1
  Se  Se214  1  0.41355290  0.41785373  0.80489441  1
  Se  Se215  1  0.41237782  0.74550535  0.30344786  1
  Se  Se216  1  0.42649846  0.75127242  0.81155781  1
  Se  Se217  1  0.75597937  0.08577489  0.32169374  1
  Se  Se218  1  0.75497942  0.08536641  0.80960212  1
  Se  Se219  1  0.74604326  0.41219861  0.29990106  1
  Se  Se220  1  0.74593105  0.42792792  0.79552296  1
  Se  Se221  1  0.73714456  0.73609109  0.29894628  1
  Se  Se222  1  0.76047303  0.75922752  0.80579792  1
  Se  Se223  1  0.25750333  0.07612107  0.19983300  1
  Se  Se224  1  0.25243297  0.07365897  0.69531924  1
  Se  Se225  1  0.24533951  0.42323892  0.19421985  1
  Se  Se226  1  0.25151335  0.41671372  0.70101142  1
  Se  Se227  1  0.24938261  0.75180907  0.19895989  1
  Se  Se228  1  0.24632560  0.75157906  0.67974269  1
  Se  Se229  1  0.58155380  0.08079400  0.19182764  1
  Se  Se230  1  0.57108051  0.09555855  0.69143344  1
  Se  Se231  1  0.58323050  0.41161546  0.19664336  1
  Se  Se232  1  0.58595401  0.41803507  0.69368883  1
  Se  Se233  1  0.58185497  0.74663487  0.19929886  1
  Se  Se234  1  0.57885107  0.75781211  0.69386128  1
  Se  Se235  1  0.92113668  0.08016213  0.20584729  1
  Se  Se236  1  0.90880963  0.08425549  0.69086975  1
  Se  Se237  1  0.91499054  0.42218259  0.18887252  1
  Se  Se238  1  0.90931360  0.42191604  0.68443836  1
  Se  Se239  1  0.90924551  0.75094944  0.20601633  1
  Se  Se240  1  0.91837882  0.74331326  0.69568365  1
  Se  Se241  1  0.09510855  0.24079623  0.19298439  1
  Se  Se242  1  0.09172222  0.23794273  0.68943919  1
  Se  Se243  1  0.08046554  0.58614487  0.19749069  1
  Se  Se244  1  0.08316900  0.58077155  0.69420990  1
  Se  Se245  1  0.08158554  0.91664694  0.20316088  1
  Se  Se246  1  0.08662065  0.91045258  0.67627103  1
  Se  Se247  1  0.42676648  0.24309443  0.18949387  1
  Se  Se248  1  0.40507314  0.26299555  0.69824481  1
  Se  Se249  1  0.41153775  0.58283768  0.19751910  1
  Se  Se250  1  0.42447882  0.58153991  0.69129064  1
  Se  Se251  1  0.42018499  0.91707014  0.19815237  1
  Se  Se252  1  0.41698829  0.91843115  0.69501373  1
  Se  Se253  1  0.75179374  0.24387698  0.20167435  1
  Se  Se254  1  0.74342564  0.25199721  0.69287596  1
  Se  Se255  1  0.74656099  0.57780385  0.19636365  1
  Se  Se256  1  0.75393562  0.58079209  0.67747478  1
  Se  Se257  1  0.75508474  0.90417869  0.19687379  1
  Se  Se258  1  0.76281950  0.90701738  0.69194670  1
