# generated using pymatgen
data_In86Cu29Se144
_symmetry_space_group_name_H-M   'P 1'
_cell_length_a   17.58499870
_cell_length_b   17.58656043
_cell_length_c   23.44755992
_cell_angle_alpha   89.97136549
_cell_angle_beta   90.00002513
_cell_angle_gamma   89.99452739
_symmetry_Int_Tables_number   1
_chemical_formula_structural   In86Cu29Se144
_chemical_formula_sum   'In86 Cu29 Se144'
_cell_volume   7251.38305472
_cell_formula_units_Z   1
loop_
 _symmetry_equiv_pos_site_id
 _symmetry_equiv_pos_as_xyz
  1  'x, y, z'
loop_
 _atom_site_type_symbol
 _atom_site_label
 _atom_site_symmetry_multiplicity
 _atom_site_fract_x
 _atom_site_fract_y
 _atom_site_fract_z
 _atom_site_occupancy
  In  In0  1  -0.00932758  0.15768244  0.11606325  1
  In  In1  1  0.00627683  0.16246877  0.63207165  1
  In  In2  1  -0.00786105  0.50859259  0.12175032  1
  In  In3  1  -0.01693047  0.49589350  0.62816080  1
  In  In4  1  -0.00413990  0.83542150  0.12856085  1
  In  In5  1  0.00961287  0.84045517  0.62652161  1
  In  In6  1  0.33671891  0.16737081  0.12084395  1
  In  In7  1  0.33800269  0.16185386  0.62323632  1
  In  In8  1  0.33547664  0.48500465  0.12637256  1
  In  In9  1  0.33627021  0.49190686  0.63388786  1
  In  In10  1  0.34480793  0.84343728  0.12966776  1
  In  In11  1  0.35476754  0.84113676  0.61848276  1
  In  In12  1  0.66556877  0.17689057  0.12479076  1
  In  In13  1  0.65384746  0.17641011  0.63084409  1
  In  In14  1  0.64918933  0.47997787  0.10921005  1
  In  In15  1  0.68276867  0.47433821  0.65427461  1
  In  In16  1  0.67730487  0.83787886  0.12494854  1
  In  In17  1  0.65853264  0.84777891  0.63282640  1
  In  In18  1  0.18317390  0.01754036  0.36533015  1
  In  In19  1  0.17669266  0.01227546  0.87136217  1
  In  In20  1  0.16922658  0.31503477  0.37820015  1
  In  In21  1  0.15585203  0.31941002  0.86943975  1
  In  In22  1  0.16248380  0.67530855  0.36980020  1
  In  In23  1  0.17066635  0.66391977  0.87551299  1
  In  In24  1  0.49655217  0.00445540  0.37684401  1
  In  In25  1  0.51122669  0.01281833  0.86931245  1
  In  In26  1  0.48448693  0.32241739  0.35884877  1
  In  In27  1  0.49898209  0.33081075  0.86864448  1
  In  In28  1  0.51314382  0.66965929  0.37835273  1
  In  In29  1  0.50295093  0.63223087  0.87420299  1
  In  In30  1  0.83289744  0.00711974  0.36057177  1
  In  In31  1  0.84101746  0.00635451  0.86972639  1
  In  In32  1  0.83205187  0.34049543  0.37402913  1
  In  In33  1  0.82972169  0.33490250  0.87457554  1
  In  In34  1  0.82213723  0.64817766  0.37206680  1
  In  In35  1  0.82326456  0.66186045  0.87486597  1
  In  In36  1  0.01333488  0.17048496  0.37453363  1
  In  In37  1  -0.00118121  0.16483628  0.87894047  1
  In  In38  1  -0.02076572  0.49282765  0.37107944  1
  In  In39  1  -0.00075914  0.48933701  0.87574471  1
  In  In40  1  0.00486282  0.83677339  0.36809727  1
  In  In41  1  -0.01092327  0.83666782  0.87393332  1
  In  In42  1  0.33334737  0.16429469  0.37651174  1
  In  In43  1  0.33570567  0.16845276  0.87470242  1
  In  In44  1  0.33951824  0.47944105  0.37178076  1
  In  In45  1  0.37007043  0.48196080  0.88402971  1
  In  In46  1  0.33402124  0.85273532  0.37813398  1
  In  In47  1  0.32642601  0.83699596  0.87447679  1
  In  In48  1  0.65499717  0.15544856  0.36364544  1
  In  In49  1  0.66630127  0.16934864  0.87521771  1
  In  In50  1  0.66920843  0.50041569  0.37430806  1
  In  In51  1  0.66716194  0.49081177  0.86566702  1
  In  In52  1  0.65330893  0.83992086  0.38025848  1
  In  In53  1  0.66714536  0.83504826  0.86776191  1
  In  In54  1  0.15984774  0.00905992  0.13042912  1
  In  In55  1  0.16589917  0.01054224  0.62648768  1
  In  In56  1  0.18298205  0.33060032  0.12385699  1
  In  In57  1  0.17961740  0.31637846  0.63546875  1
  In  In58  1  0.15447995  0.65567453  0.12627531  1
  In  In59  1  0.16667483  0.67356981  0.62732407  1
  In  In60  1  0.48838302  0.01151415  0.13311406  1
  In  In61  1  0.49863998  0.00509494  0.62509035  1
  In  In62  1  0.50450367  0.33371626  0.12290809  1
  In  In63  1  0.50796183  0.32441580  0.63466045  1
  In  In64  1  0.50736978  0.66238882  0.11965405  1
  In  In65  1  0.50683582  0.67376584  0.62520301  1
  In  In66  1  0.81764712  0.02401364  0.14323295  1
  In  In67  1  0.83123057  0.00965105  0.63326119  1
  In  In68  1  0.81417386  0.31611631  0.11206593  1
  In  In69  1  0.82994086  0.33932164  0.63695524  1
  In  In70  1  0.84340129  0.66072460  0.11994902  1
  In  In71  1  0.82887449  0.64576796  0.62718520  1
  In  In72  1  0.33564260  0.66973126  0.75326047  1
  In  In73  1  -0.00291476  0.32944843  0.24821491  1
  In  In74  1  0.82869085  0.17319427  0.49828093  1
  In  In75  1  0.16898288  0.49449999  -0.00064822  1
  In  In76  1  0.83462050  0.83279524  -0.00366207  1
  In  In77  1  0.32942206  0.66698852  0.24514425  1
  In  In78  1  0.50229886  0.83131384  0.00443984  1
  In  In79  1  0.50625767  0.50120398  0.50214719  1
  In  In80  1  0.83057094  0.83154198  0.50061080  1
  In  In81  1  0.17040924  0.84079832  0.50710685  1
  In  In82  1  0.16317233  0.83479430  0.00521754  1
  In  In83  1  0.66753887  0.66631776  0.24814096  1
  In  In84  1  -0.00097279  0.66802252  0.75420307  1
  In  In85  1  0.16134984  0.50336269  0.51181482  1
  Cu  Cu86  1  0.16301111  0.49572562  0.24600349  1
  Cu  Cu87  1  -0.00170377  0.33437837  0.49952551  1
  Cu  Cu88  1  0.16670209  0.16696206  0.75251700  1
  Cu  Cu89  1  0.67038986  0.65946258  0.50387963  1
  Cu  Cu90  1  0.16980466  0.49541798  0.75458847  1
  Cu  Cu91  1  0.50029359  0.17181671  0.24710573  1
  Cu  Cu92  1  0.49817420  0.83741858  0.75089301  1
  Cu  Cu93  1  0.66424360  0.33743809  0.50683099  1
  Cu  Cu94  1  0.15912700  0.83537188  0.25154137  1
  Cu  Cu95  1  0.17226137  0.16512670  0.24922897  1
  Cu  Cu96  1  0.83683852  0.83887792  0.74883297  1
  Cu  Cu97  1  0.33948274  0.32743304  -0.00110724  1
  Cu  Cu98  1  0.66370084  0.65376135  -0.00772423  1
  Cu  Cu99  1  0.34247701  0.67198767  0.50072113  1
  Cu  Cu100  1  0.66291322  0.33274071  -0.00840126  1
  Cu  Cu101  1  0.49552481  0.16209464  0.75032828  1
  Cu  Cu102  1  0.00538818  0.00681709  0.50044428  1
  Cu  Cu103  1  -0.00074134  0.32898658  -0.00445803  1
  Cu  Cu104  1  0.83014147  0.49880234  0.24497208  1
  Cu  Cu105  1  0.83338337  0.16939471  0.75569836  1
  Cu  Cu106  1  0.33893053  0.00755948  -0.00217934  1
  Cu  Cu107  1  -0.00451779  0.00101544  0.00167340  1
  Cu  Cu108  1  0.49864148  0.84258670  0.25608046  1
  Cu  Cu109  1  0.33340409  0.32426149  0.50154749  1
  Cu  Cu110  1  0.66734676  0.01262768  0.00229859  1
  Cu  Cu111  1  0.65718028  0.00246383  0.49981986  1
  Cu  Cu112  1  0.83509429  0.83541144  0.24799819  1
  Cu  Cu113  1  -0.00985227  0.65783005  0.49368547  1
  Cu  Cu114  1  0.17063662  0.85052137  0.74893003  1
  Se  Se115  1  0.08596549  0.08170483  0.05132442  1
  Se  Se116  1  0.08497985  0.09046136  0.55465706  1
  Se  Se117  1  0.07746113  0.40622122  0.06103630  1
  Se  Se118  1  0.07785268  0.40552237  0.56743212  1
  Se  Se119  1  0.06930379  0.74043637  0.05659150  1
  Se  Se120  1  0.07078145  0.73948930  0.55271859  1
  Se  Se121  1  0.42456701  0.08767894  0.05147179  1
  Se  Se122  1  0.43110236  0.09512663  0.55334712  1
  Se  Se123  1  0.41858435  0.41536436  0.05173127  1
  Se  Se124  1  0.41244507  0.40931932  0.55908351  1
  Se  Se125  1  0.40507240  0.74287657  0.06006113  1
  Se  Se126  1  0.42937642  0.75232509  0.55057492  1
  Se  Se127  1  0.75273830  0.09007263  0.05772913  1
  Se  Se128  1  0.74100224  0.08112195  0.55900197  1
  Se  Se129  1  0.74984760  0.41514227  0.04482921  1
  Se  Se130  1  0.74643721  0.41627075  0.56388996  1
  Se  Se131  1  0.73898406  0.73923215  0.05295919  1
  Se  Se132  1  0.74468876  0.74533814  0.56512862  1
  Se  Se133  1  0.25116254  0.24668200  0.04938477  1
  Se  Se134  1  0.24847538  0.24404219  0.55490908  1
  Se  Se135  1  0.25520919  0.58526992  0.06218156  1
  Se  Se136  1  0.26451493  0.59435479  0.56261383  1
  Se  Se137  1  0.25954079  0.92637916  0.05869825  1
  Se  Se138  1  0.26396675  0.93248079  0.55828173  1
  Se  Se139  1  0.58279005  0.25084378  0.05047746  1
  Se  Se140  1  0.57854757  0.25145523  0.55383138  1
  Se  Se141  1  0.57488999  0.57734496  0.04575836  1
  Se  Se142  1  0.59712502  0.57848742  0.56836859  1
  Se  Se143  1  0.58994134  0.92755892  0.06159629  1
  Se  Se144  1  0.57998882  0.91678578  0.55527048  1
  Se  Se145  1  0.91462996  0.24648095  0.04898600  1
  Se  Se146  1  0.91874845  0.25546805  0.56327794  1
  Se  Se147  1  0.91140257  0.57695064  0.04635400  1
  Se  Se148  1  0.91243824  0.57654019  0.55159622  1
  Se  Se149  1  0.91186623  0.92548292  0.06225267  1
  Se  Se150  1  0.92192267  0.92679603  0.55794509  1
  Se  Se151  1  0.08342671  0.24788182  0.45274045  1
  Se  Se152  1  0.08646921  0.24413428  0.94891370  1
  Se  Se153  1  0.07804403  0.58247122  0.43690134  1
  Se  Se154  1  0.07769676  0.58779998  0.94184424  1
  Se  Se155  1  0.08133076  0.92278421  0.44108149  1
  Se  Se156  1  0.07700722  0.92332182  0.94042970  1
  Se  Se157  1  0.41865729  0.25238468  0.44200076  1
  Se  Se158  1  0.42320865  0.24736207  0.94284871  1
  Se  Se159  1  0.41014162  0.58535365  0.43762748  1
  Se  Se160  1  0.40352949  0.59486114  0.94834316  1
  Se  Se161  1  0.42875978  0.91066174  0.44691273  1
  Se  Se162  1  0.41671579  0.92210697  0.94084306  1
  Se  Se163  1  0.73573084  0.25798818  0.43863398  1
  Se  Se164  1  0.75165680  0.24799359  0.94513027  1
  Se  Se165  1  0.75000108  0.57401060  0.45023267  1
  Se  Se166  1  0.74831891  0.57168553  0.94096286  1
  Se  Se167  1  0.74825726  0.93055312  0.44157236  1
  Se  Se168  1  0.74150436  0.92625114  0.94198052  1
  Se  Se169  1  0.24834478  0.08594550  0.44654898  1
  Se  Se170  1  0.25125305  0.08863054  0.94717782  1
  Se  Se171  1  0.25033749  0.41217551  0.44864308  1
  Se  Se172  1  0.25630218  0.40565874  0.93646388  1
  Se  Se173  1  0.25441950  0.74523759  0.44276405  1
  Se  Se174  1  0.25639875  0.74390216  0.94687470  1
  Se  Se175  1  0.58083350  0.08993731  0.44519931  1
  Se  Se176  1  0.58095362  0.08984566  0.94744125  1
  Se  Se177  1  0.58345234  0.40687992  0.43771688  1
  Se  Se178  1  0.58001621  0.41647732  0.93806939  1
  Se  Se179  1  0.58960713  0.74681858  0.45254743  1
  Se  Se180  1  0.58659992  0.74419624  0.93758697  1
  Se  Se181  1  0.91969090  0.08003503  0.43990398  1
  Se  Se182  1  0.91143653  0.08344844  0.94776996  1
  Se  Se183  1  0.91099548  0.41579545  0.44997776  1
  Se  Se184  1  0.91511565  0.41433983  0.94673010  1
  Se  Se185  1  0.91670595  0.74413274  0.43497116  1
  Se  Se186  1  0.92481535  0.73720566  0.94162092  1
  Se  Se187  1  0.25382573  0.24960713  0.30365718  1
  Se  Se188  1  0.25287925  0.25040019  0.80389247  1
  Se  Se189  1  0.24396922  0.57384804  0.31016838  1
  Se  Se190  1  0.25330471  0.57186025  0.81353651  1
  Se  Se191  1  0.24865883  0.91527923  0.30146545  1
  Se  Se192  1  0.25815516  0.92596665  0.80366408  1
  Se  Se193  1  0.58763703  0.25477151  0.29801014  1
  Se  Se194  1  0.58226252  0.24437066  0.80206708  1
  Se  Se195  1  0.57348237  0.57537649  0.30430774  1
  Se  Se196  1  0.60355002  0.59713369  0.80170790  1
  Se  Se197  1  0.58549130  0.92448849  0.30646566  1
  Se  Se198  1  0.58503200  0.92062073  0.80214197  1
  Se  Se199  1  0.90956343  0.24116264  0.31066709  1
  Se  Se200  1  0.91861804  0.24961314  0.80985917  1
  Se  Se201  1  0.91226493  0.58304410  0.29871390  1
  Se  Se202  1  0.90952513  0.57382797  0.80707203  1
  Se  Se203  1  0.91948735  0.91760145  0.30112743  1
  Se  Se204  1  0.92215822  0.92145538  0.79995746  1
  Se  Se205  1  0.08299523  0.08487872  0.30083156  1
  Se  Se206  1  0.08165312  0.08429352  0.80636629  1
  Se  Se207  1  0.08797330  0.41704925  0.31300559  1
  Se  Se208  1  0.08138690  0.41392738  0.80387650  1
  Se  Se209  1  0.07659244  0.74540280  0.29793305  1
  Se  Se210  1  0.09549061  0.76303172  0.80802896  1
  Se  Se211  1  0.41956722  0.08851568  0.30491637  1
  Se  Se212  1  0.41175870  0.07981879  0.80439111  1
  Se  Se213  1  0.41845270  0.42044641  0.29305716  1
  Se  Se214  1  0.42237926  0.41625951  0.79579964  1
  Se  Se215  1  0.42043699  0.75304308  0.31082710  1
  Se  Se216  1  0.42805589  0.75420026  0.81624864  1
  Se  Se217  1  0.75129155  0.09049866  0.29609719  1
  Se  Se218  1  0.74836146  0.08348496  0.80598040  1
  Se  Se219  1  0.74944946  0.41929186  0.30312214  1
  Se  Se220  1  0.74389103  0.40114794  0.79899928  1
  Se  Se221  1  0.75305360  0.75903122  0.31198985  1
  Se  Se222  1  0.75799921  0.75487185  0.80437306  1
  Se  Se223  1  0.25612633  0.08400627  0.19325138  1
  Se  Se224  1  0.25112324  0.08676395  0.69652421  1
  Se  Se225  1  0.25160956  0.41273635  0.20020027  1
  Se  Se226  1  0.25252472  0.41211844  0.70093531  1
  Se  Se227  1  0.23754894  0.75912302  0.18605993  1
  Se  Se228  1  0.24927106  0.76559942  0.69036287  1
  Se  Se229  1  0.58425191  0.08839628  0.19377496  1
  Se  Se230  1  0.58390302  0.08107184  0.69756614  1
  Se  Se231  1  0.58873949  0.41293725  0.19354304  1
  Se  Se232  1  0.56499918  0.42251696  0.70487218  1
  Se  Se233  1  0.57399661  0.76212218  0.19170032  1
  Se  Se234  1  0.58299390  0.75451728  0.69842831  1
  Se  Se235  1  0.93309696  0.07748953  0.19710854  1
  Se  Se236  1  0.91781795  0.08626394  0.70083869  1
  Se  Se237  1  0.90744740  0.41461736  0.18497422  1
  Se  Se238  1  0.91844802  0.41624723  0.70453632  1
  Se  Se239  1  0.91130978  0.74811360  0.19324744  1
  Se  Se240  1  0.91273330  0.75551873  0.68653160  1
  Se  Se241  1  0.09043426  0.24366724  0.18765144  1
  Se  Se242  1  0.08016674  0.25163627  0.70171643  1
  Se  Se243  1  0.07513907  0.57824644  0.19875373  1
  Se  Se244  1  0.09230569  0.57745731  0.69283566  1
  Se  Se245  1  0.07973886  0.91873881  0.19487570  1
  Se  Se246  1  0.08204914  0.92703314  0.69588041  1
  Se  Se247  1  0.41665212  0.25181712  0.19032322  1
  Se  Se248  1  0.41298840  0.24646973  0.69636658  1
  Se  Se249  1  0.42411664  0.57866850  0.19026917  1
  Se  Se250  1  0.42646910  0.58127985  0.69381540  1
  Se  Se251  1  0.41283461  0.92513191  0.20485984  1
  Se  Se252  1  0.41681489  0.92132301  0.69738774  1
  Se  Se253  1  0.75346714  0.24904535  0.19673570  1
  Se  Se254  1  0.74853661  0.24655886  0.69818459  1
  Se  Se255  1  0.74866468  0.57664235  0.18303237  1
  Se  Se256  1  0.74413107  0.58980999  0.70497150  1
  Se  Se257  1  0.74582370  0.91830589  0.20073203  1
  Se  Se258  1  0.75064912  0.92263165  0.69877778  1
