# generated using pymatgen
data_In86Cu29Se144
_symmetry_space_group_name_H-M   'P 1'
_cell_length_a   17.58333076
_cell_length_b   17.58822415
_cell_length_c   23.44550413
_cell_angle_alpha   90.02333495
_cell_angle_beta   90.01742098
_cell_angle_gamma   89.99288814
_symmetry_Int_Tables_number   1
_chemical_formula_structural   In86Cu29Se144
_chemical_formula_sum   'In86 Cu29 Se144'
_cell_volume   7250.74536047
_cell_formula_units_Z   1
loop_
 _symmetry_equiv_pos_site_id
 _symmetry_equiv_pos_as_xyz
  1  'x, y, z'
loop_
 _atom_site_type_symbol
 _atom_site_label
 _atom_site_symmetry_multiplicity
 _atom_site_fract_x
 _atom_site_fract_y
 _atom_site_fract_z
 _atom_site_occupancy
  In  In0  1  0.01931347  0.15472228  0.13495292  1
  In  In1  1  0.00187704  0.16884114  0.63274597  1
  In  In2  1  -0.00031822  0.49917164  0.12405013  1
  In  In3  1  0.00756888  0.48709827  0.63593523  1
  In  In4  1  0.00514990  0.82189840  0.12804413  1
  In  In5  1  0.01576630  0.83205231  0.62350780  1
  In  In6  1  0.33740894  0.17336396  0.11688430  1
  In  In7  1  0.32430992  0.16339639  0.63550861  1
  In  In8  1  0.32186810  0.48966582  0.11475969  1
  In  In9  1  0.33429399  0.50461644  0.62946615  1
  In  In10  1  0.33197327  0.84285536  0.12353146  1
  In  In11  1  0.32928107  0.83469661  0.62150705  1
  In  In12  1  0.66597914  0.17861702  0.11538344  1
  In  In13  1  0.65423776  0.16325347  0.63302878  1
  In  In14  1  0.67298753  0.50431444  0.11597173  1
  In  In15  1  0.65622622  0.52703929  0.64514972  1
  In  In16  1  0.65452366  0.81759822  0.12909696  1
  In  In17  1  0.65560583  0.84261761  0.63205041  1
  In  In18  1  0.16225260  -0.00015135  0.37557125  1
  In  In19  1  0.16805775  0.00213312  0.87713210  1
  In  In20  1  0.17924836  0.34266011  0.36214334  1
  In  In21  1  0.16698929  0.33475215  0.87384276  1
  In  In22  1  0.16098240  0.67117557  0.37887005  1
  In  In23  1  0.17893662  0.65407864  0.88018613  1
  In  In24  1  0.49073122  -0.01114244  0.37881956  1
  In  In25  1  0.50528037  0.00597852  0.87346269  1
  In  In26  1  0.49675842  0.34891764  0.37807611  1
  In  In27  1  0.47842524  0.34709890  0.87429945  1
  In  In28  1  0.50065245  0.66521804  0.37884954  1
  In  In29  1  0.48529236  0.64516982  0.85268623  1
  In  In30  1  0.84782190  -0.01103026  0.37584516  1
  In  In31  1  0.82496753  -0.00679044  0.86849529  1
  In  In32  1  0.84439670  0.32626845  0.37288131  1
  In  In33  1  0.85144473  0.33539855  0.87573447  1
  In  In34  1  0.83162018  0.66330738  0.36852715  1
  In  In35  1  0.81971830  0.66151660  0.87143320  1
  In  In36  1  0.02896247  0.17672011  0.35212687  1
  In  In37  1  0.01250049  0.17654008  0.87325285  1
  In  In38  1  0.00835419  0.50984262  0.36809195  1
  In  In39  1  0.01479203  0.48725036  0.88104419  1
  In  In40  1  0.01126150  0.83852254  0.36653397  1
  In  In41  1  0.00247578  0.84632027  0.87393386  1
  In  In42  1  0.31769435  0.17013354  0.37107067  1
  In  In43  1  0.33199803  0.16549319  0.87602414  1
  In  In44  1  0.33638095  0.49778756  0.37920446  1
  In  In45  1  0.32644619  0.50007450  0.86693403  1
  In  In46  1  0.33810454  0.83034060  0.39139542  1
  In  In47  1  0.32463622  0.82326849  0.86907995  1
  In  In48  1  0.66453936  0.17115638  0.37371781  1
  In  In49  1  0.65856113  0.15105534  0.87974126  1
  In  In50  1  0.64974804  0.50487403  0.37798824  1
  In  In51  1  0.65658478  0.50820970  0.87669984  1
  In  In52  1  0.66393038  0.82271182  0.37624300  1
  In  In53  1  0.66077945  0.82796529  0.86817708  1
  In  In54  1  0.16095684  -0.00792022  0.11511855  1
  In  In55  1  0.17730397  -0.01681082  0.63736150  1
  In  In56  1  0.16601220  0.33235908  0.12439763  1
  In  In57  1  0.17117000  0.34458144  0.63954807  1
  In  In58  1  0.15924150  0.65543915  0.11340282  1
  In  In59  1  0.17619615  0.67239219  0.62060286  1
  In  In60  1  0.49069080  -0.00004623  0.12025268  1
  In  In61  1  0.49789397  -0.00216887  0.63114990  1
  In  In62  1  0.48736859  0.32913682  0.11610175  1
  In  In63  1  0.48205780  0.33991181  0.63140747  1
  In  In64  1  0.51332196  0.66444930  0.12829608  1
  In  In65  1  0.49065380  0.66624723  0.62989948  1
  In  In66  1  0.83908745  0.01080688  0.12170220  1
  In  In67  1  0.83344997  -0.00016403  0.63301722  1
  In  In68  1  0.83514974  0.34612772  0.12021073  1
  In  In69  1  0.84538951  0.34968512  0.63487852  1
  In  In70  1  0.83597365  0.65756081  0.12809218  1
  In  In71  1  0.82324952  0.65719509  0.63158749  1
  In  In72  1  0.83873587  0.16387096  0.49364885  1
  In  In73  1  0.66632847  0.33189516  0.75422267  1
  In  In74  1  0.67791761  0.00284652  0.24775787  1
  In  In75  1  0.16929955  0.16274554  0.49681399  1
  In  In76  1  0.33609621  0.66763595  0.25573146  1
  In  In77  1  0.00325543  0.66435589  0.74828080  1
  In  In78  1  0.49905151  0.83262464  0.00135174  1
  In  In79  1  0.83413267  0.83159023  -0.00941540  1
  In  In80  1  0.49221708  0.16832763  0.51231518  1
  In  In81  1  0.33202509  0.00086169  0.24888642  1
  In  In82  1  0.83515978  0.50280647  0.50680541  1
  In  In83  1  0.83471874  0.17267184  -0.00176588  1
  In  In84  1  0.83455278  0.82975078  0.49443763  1
  In  In85  1  0.67327051  0.34418829  0.24436855  1
  Cu  Cu86  1  0.49625433  0.83417713  0.74738707  1
  Cu  Cu87  1  0.83143454  0.50492826  0.24489329  1
  Cu  Cu88  1  0.83739354  0.83001347  0.24979537  1
  Cu  Cu89  1  0.33545192  0.65938238  0.50491898  1
  Cu  Cu90  1  0.16080678  0.16361726  0.75631599  1
  Cu  Cu91  1  0.00132009  0.66294883  0.00314603  1
  Cu  Cu92  1  0.16433278  0.83928445  0.75054277  1
  Cu  Cu93  1  0.65802016  0.00084217  0.50707265  1
  Cu  Cu94  1  0.00305183  0.00449035  -0.00351202  1
  Cu  Cu95  1  0.33658554  0.66341370  -0.00909360  1
  Cu  Cu96  1  0.00887417  0.33803875  0.50503634  1
  Cu  Cu97  1  0.00623046  0.33574327  0.00225665  1
  Cu  Cu98  1  0.16802533  0.82891828  0.24804135  1
  Cu  Cu99  1  0.00732012  -0.00228558  0.49662889  1
  Cu  Cu100  1  0.33020980  0.33948611  0.50164680  1
  Cu  Cu101  1  0.01004150  0.66228757  0.49990860  1
  Cu  Cu102  1  0.33209580  0.33800232  -0.00583660  1
  Cu  Cu103  1  0.83124998  0.83392532  0.75196933  1
  Cu  Cu104  1  0.66656529  0.34823200  0.50507774  1
  Cu  Cu105  1  0.16295175  0.49995948  0.24041568  1
  Cu  Cu106  1  0.49477639  0.49958856  0.25205500  1
  Cu  Cu107  1  0.65711140  0.33756296  -0.00579769  1
  Cu  Cu108  1  0.83478704  0.16449181  0.75752100  1
  Cu  Cu109  1  0.49778242  0.17200897  0.24283721  1
  Cu  Cu110  1  0.33051064  0.00326360  -0.00184061  1
  Cu  Cu111  1  0.65476955  0.67009395  0.50600607  1
  Cu  Cu112  1  0.49929270  0.15689018  0.75573703  1
  Cu  Cu113  1  0.84942067  0.16693354  0.24811033  1
  Cu  Cu114  1  0.66116697  0.66424066  -0.00437262  1
  Se  Se115  1  0.08581643  0.08784888  0.04989258  1
  Se  Se116  1  0.07914665  0.07918713  0.56124307  1
  Se  Se117  1  0.08778919  0.42156980  0.05559502  1
  Se  Se118  1  0.09106373  0.41639636  0.56155231  1
  Se  Se119  1  0.08392515  0.75279284  0.05003668  1
  Se  Se120  1  0.08948707  0.75181442  0.55036256  1
  Se  Se121  1  0.41756918  0.08466312  0.04972120  1
  Se  Se122  1  0.40010149  0.07446722  0.56247003  1
  Se  Se123  1  0.41796599  0.42158198  0.04701000  1
  Se  Se124  1  0.41458491  0.42119175  0.55509922  1
  Se  Se125  1  0.40945691  0.73920585  0.06084102  1
  Se  Se126  1  0.41521608  0.74868317  0.55619092  1
  Se  Se127  1  0.74183643  0.07703860  0.05254609  1
  Se  Se128  1  0.74406519  0.08252717  0.55946812  1
  Se  Se129  1  0.74706666  0.41355623  0.04768107  1
  Se  Se130  1  0.74249583  0.42110172  0.57085520  1
  Se  Se131  1  0.74422517  0.74386278  0.05497596  1
  Se  Se132  1  0.74468545  0.74698673  0.56076298  1
  Se  Se133  1  0.25074473  0.25567415  0.05146524  1
  Se  Se134  1  0.25272073  0.25551074  0.56049190  1
  Se  Se135  1  0.25123746  0.58270936  0.04651557  1
  Se  Se136  1  0.24875178  0.57684533  0.55507651  1
  Se  Se137  1  0.25091582  0.91306962  0.04865845  1
  Se  Se138  1  0.23913748  0.91378744  0.55454884  1
  Se  Se139  1  0.57753991  0.25174832  0.04794107  1
  Se  Se140  1  0.58907717  0.26329731  0.56372306  1
  Se  Se141  1  0.57910865  0.58164217  0.05127853  1
  Se  Se142  1  0.57924078  0.58289927  0.56152446  1
  Se  Se143  1  0.59337231  0.92045648  0.06067308  1
  Se  Se144  1  0.57581236  0.91656894  0.55710819  1
  Se  Se145  1  0.92700353  0.25223874  0.06265811  1
  Se  Se146  1  0.92081467  0.25893624  0.55859365  1
  Se  Se147  1  0.91442875  0.58125462  0.05396704  1
  Se  Se148  1  0.92936582  0.59069273  0.56520863  1
  Se  Se149  1  0.92250670  0.92086980  0.05474958  1
  Se  Se150  1  0.92038296  0.92300341  0.55617831  1
  Se  Se151  1  0.08245873  0.25865343  0.43922383  1
  Se  Se152  1  0.08831677  0.25192905  0.94850094  1
  Se  Se153  1  0.08897345  0.57564900  0.44662051  1
  Se  Se154  1  0.08643833  0.58183688  0.94803447  1
  Se  Se155  1  0.08775480  0.91046477  0.44494885  1
  Se  Se156  1  0.08635919  0.91642709  0.94768660  1
  Se  Se157  1  0.40856950  0.25447219  0.44198568  1
  Se  Se158  1  0.41575835  0.25052671  0.94422808  1
  Se  Se159  1  0.41923452  0.58085852  0.44654570  1
  Se  Se160  1  0.41702777  0.57913257  0.93672744  1
  Se  Se161  1  0.41938369  0.91779332  0.45614940  1
  Se  Se162  1  0.40862729  0.91805920  0.93866754  1
  Se  Se163  1  0.74084209  0.26437002  0.44496852  1
  Se  Se164  1  0.74200511  0.25814177  0.93558190  1
  Se  Se165  1  0.74110042  0.59245989  0.44636793  1
  Se  Se166  1  0.74932934  0.58050110  0.94736235  1
  Se  Se167  1  0.74071143  0.92831778  0.44250278  1
  Se  Se168  1  0.73418467  0.92105597  0.94197508  1
  Se  Se169  1  0.26379088  0.06941899  0.44334767  1
  Se  Se170  1  0.24577149  0.08793876  0.94749505  1
  Se  Se171  1  0.24594758  0.41638464  0.44406797  1
  Se  Se172  1  0.24820421  0.42139182  0.94174909  1
  Se  Se173  1  0.25130472  0.74121976  0.44954161  1
  Se  Se174  1  0.24897372  0.75140456  0.94749381  1
  Se  Se175  1  0.58501777  0.08524317  0.44429191  1
  Se  Se176  1  0.57527278  0.08094720  0.95245078  1
  Se  Se177  1  0.57710072  0.42367211  0.45238521  1
  Se  Se178  1  0.57379251  0.42010077  0.94057318  1
  Se  Se179  1  0.57743778  0.75429018  0.44914167  1
  Se  Se180  1  0.57718763  0.73937642  0.93571405  1
  Se  Se181  1  0.93737318  0.08390959  0.43393757  1
  Se  Se182  1  0.91738429  0.07811284  0.93614166  1
  Se  Se183  1  0.92440165  0.41385622  0.44401749  1
  Se  Se184  1  0.91980554  0.41812270  0.95154031  1
  Se  Se185  1  0.92752573  0.73931689  0.43835909  1
  Se  Se186  1  0.92588492  0.73877210  0.93510663  1
  Se  Se187  1  0.23729119  0.23817730  0.29749581  1
  Se  Se188  1  0.24785578  0.24618065  0.80666467  1
  Se  Se189  1  0.24063110  0.57535366  0.30792862  1
  Se  Se190  1  0.25903279  0.59758890  0.79915933  1
  Se  Se191  1  0.25047450  0.90309006  0.31061644  1
  Se  Se192  1  0.24894567  0.91934497  0.80606210  1
  Se  Se193  1  0.57861455  0.25283945  0.30436073  1
  Se  Se194  1  0.57360139  0.24497377  0.81471307  1
  Se  Se195  1  0.57820214  0.58502670  0.30315916  1
  Se  Se196  1  0.59770018  0.58968730  0.79608819  1
  Se  Se197  1  0.58484379  0.91822326  0.30789376  1
  Se  Se198  1  0.57896152  0.91582785  0.80368268  1
  Se  Se199  1  0.92697115  0.25750004  0.29851429  1
  Se  Se200  1  0.92173430  0.24955623  0.80345145  1
  Se  Se201  1  0.91697958  0.58462107  0.30100156  1
  Se  Se202  1  0.92182661  0.57891169  0.81623926  1
  Se  Se203  1  0.92185213  0.91636656  0.29869008  1
  Se  Se204  1  0.91604176  0.91781040  0.80198536  1
  Se  Se205  1  0.09253709  0.06998914  0.29566579  1
  Se  Se206  1  0.07785950  0.07737329  0.80708206  1
  Se  Se207  1  0.08232595  0.41909454  0.30037975  1
  Se  Se208  1  0.08394951  0.41317503  0.80225637  1
  Se  Se209  1  0.08431464  0.74374970  0.30060773  1
  Se  Se210  1  0.08947876  0.75430092  0.81162424  1
  Se  Se211  1  0.42618848  0.09227679  0.30924464  1
  Se  Se212  1  0.41062099  0.07693014  0.80668012  1
  Se  Se213  1  0.41136034  0.41559601  0.30369667  1
  Se  Se214  1  0.39667099  0.40765582  0.79451108  1
  Se  Se215  1  0.42296474  0.76252324  0.31176394  1
  Se  Se216  1  0.41209751  0.75035432  0.79831762  1
  Se  Se217  1  0.76720980  0.09395455  0.31224934  1
  Se  Se218  1  0.74437055  0.08377914  0.80440739  1
  Se  Se219  1  0.75765601  0.42854549  0.31513564  1
  Se  Se220  1  0.75452213  0.41893569  0.81562231  1
  Se  Se221  1  0.75040169  0.75227691  0.30419054  1
  Se  Se222  1  0.74738441  0.74786768  0.80047741  1
  Se  Se223  1  0.24799388  0.08330164  0.18190970  1
  Se  Se224  1  0.24538963  0.07934644  0.70425601  1
  Se  Se225  1  0.25150555  0.41592137  0.19409491  1
  Se  Se226  1  0.28063508  0.40092643  0.70105402  1
  Se  Se227  1  0.24720153  0.74921479  0.18728773  1
  Se  Se228  1  0.24581464  0.75685152  0.69488857  1
  Se  Se229  1  0.58194789  0.09166203  0.18794663  1
  Se  Se230  1  0.58428791  0.07518448  0.70261575  1
  Se  Se231  1  0.57421555  0.42335083  0.18620589  1
  Se  Se232  1  0.57230627  0.42255100  0.69898929  1
  Se  Se233  1  0.57777036  0.74758007  0.20454109  1
  Se  Se234  1  0.58133016  0.74879245  0.69604174  1
  Se  Se235  1  0.92402196  0.07510195  0.19689365  1
  Se  Se236  1  0.91686592  0.08455336  0.69810807  1
  Se  Se237  1  0.91442875  0.41877530  0.19537836  1
  Se  Se238  1  0.92505963  0.41792240  0.70978837  1
  Se  Se239  1  0.91697321  0.74421612  0.19483858  1
  Se  Se240  1  0.91090877  0.75779838  0.68780568  1
  Se  Se241  1  0.07729228  0.26061593  0.19526726  1
  Se  Se242  1  0.08630021  0.25159391  0.69853989  1
  Se  Se243  1  0.08049677  0.58781727  0.19212797  1
  Se  Se244  1  0.10055733  0.57868590  0.69298439  1
  Se  Se245  1  0.08773673  0.91213222  0.19148610  1
  Se  Se246  1  0.07316803  0.91939223  0.70120347  1
  Se  Se247  1  0.41187821  0.25409978  0.19316886  1
  Se  Se248  1  0.42150514  0.23869310  0.69683138  1
  Se  Se249  1  0.41490361  0.57627831  0.18815436  1
  Se  Se250  1  0.40007072  0.59764741  0.70096334  1
  Se  Se251  1  0.42919289  0.90710275  0.19607423  1
  Se  Se252  1  0.40970245  0.91628419  0.69519784  1
  Se  Se253  1  0.76169722  0.24255323  0.19036687  1
  Se  Se254  1  0.75926311  0.24323482  0.69079150  1
  Se  Se255  1  0.74130690  0.58389205  0.19470505  1
  Se  Se256  1  0.77142168  0.56481019  0.70576213  1
  Se  Se257  1  0.76017234  0.90714320  0.18472761  1
  Se  Se258  1  0.74748474  0.91829502  0.69826461  1
