# generated using pymatgen
data_In86Cu29Se144
_symmetry_space_group_name_H-M   'P 1'
_cell_length_a   17.57910180
_cell_length_b   17.58358459
_cell_length_c   23.44058105
_cell_angle_alpha   90.02784730
_cell_angle_beta   90.01629101
_cell_angle_gamma   90.01312015
_symmetry_Int_Tables_number   1
_chemical_formula_structural   In86Cu29Se144
_chemical_formula_sum   'In86 Cu29 Se144'
_cell_volume   7245.56720011
_cell_formula_units_Z   1
loop_
 _symmetry_equiv_pos_site_id
 _symmetry_equiv_pos_as_xyz
  1  'x, y, z'
loop_
 _atom_site_type_symbol
 _atom_site_label
 _atom_site_symmetry_multiplicity
 _atom_site_fract_x
 _atom_site_fract_y
 _atom_site_fract_z
 _atom_site_occupancy
  In  In0  1  0.00510151  0.17394939  0.11985996  1
  In  In1  1  -0.00400900  0.16708691  0.62603040  1
  In  In2  1  0.00202420  0.49894768  0.12375277  1
  In  In3  1  0.01481099  0.50209459  0.62075875  1
  In  In4  1  -0.01005461  0.83225394  0.12558277  1
  In  In5  1  -0.01508246  0.82815411  0.62455532  1
  In  In6  1  0.33931868  0.17454027  0.12981265  1
  In  In7  1  0.34818834  0.15309118  0.63098962  1
  In  In8  1  0.33053692  0.50347192  0.13198275  1
  In  In9  1  0.33343784  0.51332759  0.61876530  1
  In  In10  1  0.34094362  0.82741329  0.13472276  1
  In  In11  1  0.34155553  0.83102336  0.62533953  1
  In  In12  1  0.67222785  0.17143601  0.11546777  1
  In  In13  1  0.65765028  0.17550792  0.62843695  1
  In  In14  1  0.67490365  0.49168483  0.13371573  1
  In  In15  1  0.67095816  0.50107517  0.63035665  1
  In  In16  1  0.66961504  0.82167297  0.12454594  1
  In  In17  1  0.64935550  0.82110364  0.60850091  1
  In  In18  1  0.18071815  -0.00705791  0.37482559  1
  In  In19  1  0.18099132  0.00267795  0.87593190  1
  In  In20  1  0.17624145  0.34198141  0.36463306  1
  In  In21  1  0.16293911  0.33971140  0.88905360  1
  In  In22  1  0.15797512  0.66258010  0.37192494  1
  In  In23  1  0.16403293  0.66550605  0.87011085  1
  In  In24  1  0.49148874  0.00901939  0.40643792  1
  In  In25  1  0.50471740  0.01634254  0.86860620  1
  In  In26  1  0.47399473  0.31266519  0.34137046  1
  In  In27  1  0.50345719  0.31491194  0.87628785  1
  In  In28  1  0.50931721  0.67055669  0.36789156  1
  In  In29  1  0.50103591  0.66976910  0.86249929  1
  In  In30  1  0.81343613  -0.00342918  0.37696878  1
  In  In31  1  0.81253314  0.00601055  0.89459987  1
  In  In32  1  0.82787499  0.33015762  0.35964722  1
  In  In33  1  0.82123280  0.34372507  0.88575884  1
  In  In34  1  0.82514147  0.66435559  0.37114453  1
  In  In35  1  0.83586970  0.66453677  0.87935457  1
  In  In36  1  -0.01240270  0.16972152  0.36499202  1
  In  In37  1  -0.00506995  0.17225467  0.88498642  1
  In  In38  1  0.00707550  0.50646708  0.36472661  1
  In  In39  1  -0.00482200  0.50708930  0.88427396  1
  In  In40  1  -0.00735913  0.81552080  0.37457258  1
  In  In41  1  -0.00446710  0.82023754  0.87258564  1
  In  In42  1  0.34221446  0.16165346  0.37019185  1
  In  In43  1  0.34486526  0.15714892  0.89028451  1
  In  In44  1  0.32667290  0.49029622  0.36665010  1
  In  In45  1  0.32391200  0.50449733  0.87902383  1
  In  In46  1  0.35093403  0.84747627  0.36874135  1
  In  In47  1  0.34258641  0.83702831  0.86057532  1
  In  In48  1  0.62763968  0.16172070  0.36187038  1
  In  In49  1  0.64712081  0.17627699  0.89121705  1
  In  In50  1  0.64920609  0.49071363  0.35588455  1
  In  In51  1  0.67291715  0.50786559  0.87222513  1
  In  In52  1  0.66763260  0.83293978  0.38676835  1
  In  In53  1  0.67665396  0.83915525  0.87694765  1
  In  In54  1  0.17523038  0.01362200  0.12280066  1
  In  In55  1  0.18311354  0.00894927  0.62754907  1
  In  In56  1  0.16623789  0.33269058  0.12753042  1
  In  In57  1  0.15935648  0.33757525  0.61701925  1
  In  In58  1  0.17692204  0.65311490  0.12938055  1
  In  In59  1  0.17397635  0.66055727  0.62627270  1
  In  In60  1  0.48908496  0.00577377  0.12893529  1
  In  In61  1  0.48807846  -0.01005667  0.60786768  1
  In  In62  1  0.51661458  0.32088134  0.14644440  1
  In  In63  1  0.51231734  0.33148795  0.62215787  1
  In  In64  1  0.50842273  0.65416517  0.14517160  1
  In  In65  1  0.49162176  0.68123190  0.64156448  1
  In  In66  1  0.82488650  -0.00315372  0.10811328  1
  In  In67  1  0.84009612  -0.00994436  0.62342206  1
  In  In68  1  0.83446178  0.33742976  0.12135233  1
  In  In69  1  0.82390726  0.32389981  0.62765914  1
  In  In70  1  0.84126413  0.66487784  0.12486602  1
  In  In71  1  0.81924161  0.67950591  0.63783250  1
  In  In72  1  0.82942948  0.50475534  0.49758519  1
  In  In73  1  0.00403276  0.00091042  0.24320000  1
  In  In74  1  0.33345026  0.33742686  0.75634559  1
  In  In75  1  0.49875888  0.49547459  0.01078555  1
  In  In76  1  0.65887329  -0.00795487  0.74600253  1
  In  In77  1  0.50129643  0.50034216  0.49426055  1
  In  In78  1  -0.00029698  -0.00903553  0.75179605  1
  In  In79  1  0.82755952  0.16473957  0.49856361  1
  In  In80  1  0.66000081  -0.00160576  0.24935633  1
  In  In81  1  0.50457681  0.83792230  -0.00075921  1
  In  In82  1  0.16549167  0.83204950  -0.00716355  1
  In  In83  1  0.17280344  0.17345652  0.49469685  1
  In  In84  1  0.17159631  0.82928339  0.50266199  1
  In  In85  1  -0.00488817  0.33844283  0.74881991  1
  Cu  Cu86  1  0.65890256  0.32579725  0.49270695  1
  Cu  Cu87  1  0.83693230  0.50300485  0.75844934  1
  Cu  Cu88  1  0.15968265  0.49716546  0.24675477  1
  Cu  Cu89  1  0.33383828  0.00555731  0.00361580  1
  Cu  Cu90  1  0.33792188  0.32883011  0.48874544  1
  Cu  Cu91  1  0.17401669  0.16667769  0.24482291  1
  Cu  Cu92  1  0.33248634  0.66801819  0.49953682  1
  Cu  Cu93  1  0.32875817  0.33170156  0.00647347  1
  Cu  Cu94  1  -0.00778996  0.66018916  0.49445515  1
  Cu  Cu95  1  0.50252048  0.83518614  0.25425564  1
  Cu  Cu96  1  0.17395370  0.16754768  0.75713501  1
  Cu  Cu97  1  0.66487607  0.33716089  0.00642295  1
  Cu  Cu98  1  0.83902089  0.50337466  0.24514829  1
  Cu  Cu99  1  -0.00279683  0.00233371  0.00213267  1
  Cu  Cu100  1  0.83493878  0.82789028  0.25263844  1
  Cu  Cu101  1  0.82020547  0.16876385  0.75551801  1
  Cu  Cu102  1  0.00265389  0.66377282  -0.00023007  1
  Cu  Cu103  1  0.16746614  0.50650446  0.74984009  1
  Cu  Cu104  1  0.00178187  0.34358780  0.49221247  1
  Cu  Cu105  1  0.00086699  0.33140754  0.00678236  1
  Cu  Cu106  1  0.33690657  0.66839187  0.00526007  1
  Cu  Cu107  1  0.82929356  0.17191290  0.23919610  1
  Cu  Cu108  1  0.50412274  0.49640412  0.74717865  1
  Cu  Cu109  1  0.67870971  0.66545207  0.00042943  1
  Cu  Cu110  1  0.65941062  0.66506240  0.50057408  1
  Cu  Cu111  1  0.17132819  0.83172545  0.74756079  1
  Cu  Cu112  1  0.00211926  -0.00604543  0.50144498  1
  Cu  Cu113  1  0.17177641  0.83087952  0.25484309  1
  Cu  Cu114  1  0.83258811  0.82695236  0.75648611  1
  Se  Se115  1  0.08377922  0.08263544  0.05401493  1
  Se  Se116  1  0.07965845  0.07913235  0.55743442  1
  Se  Se117  1  0.08708202  0.41617680  0.05571662  1
  Se  Se118  1  0.08798547  0.42293292  0.54463933  1
  Se  Se119  1  0.08335044  0.74486338  0.06013866  1
  Se  Se120  1  0.07321860  0.74058293  0.55699534  1
  Se  Se121  1  0.41663207  0.08949856  0.05588800  1
  Se  Se122  1  0.42257531  0.09650404  0.54787500  1
  Se  Se123  1  0.41196332  0.40421596  0.06967630  1
  Se  Se124  1  0.41046230  0.40918611  0.55681653  1
  Se  Se125  1  0.42356815  0.74265329  0.06307639  1
  Se  Se126  1  0.41865886  0.74267628  0.55634002  1
  Se  Se127  1  0.74344164  0.08324202  0.04561412  1
  Se  Se128  1  0.74649085  0.07951965  0.56647115  1
  Se  Se129  1  0.75039757  0.42321353  0.05362751  1
  Se  Se130  1  0.74020276  0.40518013  0.55301694  1
  Se  Se131  1  0.75858486  0.74996055  0.05501467  1
  Se  Se132  1  0.75151363  0.74281605  0.55188452  1
  Se  Se133  1  0.24764308  0.24567438  0.05952437  1
  Se  Se134  1  0.26263205  0.25661052  0.56077528  1
  Se  Se135  1  0.25456536  0.57976870  0.05288955  1
  Se  Se136  1  0.24509059  0.58321741  0.54717019  1
  Se  Se137  1  0.25847883  0.91419998  0.05880922  1
  Se  Se138  1  0.26028047  0.92630614  0.55499119  1
  Se  Se139  1  0.57624889  0.25690886  0.05720657  1
  Se  Se140  1  0.57857823  0.24328668  0.54839024  1
  Se  Se141  1  0.59198962  0.59230401  0.06145304  1
  Se  Se142  1  0.58224407  0.58634646  0.56392652  1
  Se  Se143  1  0.58793488  0.92342749  0.06642096  1
  Se  Se144  1  0.58935634  0.92298815  0.54578287  1
  Se  Se145  1  0.91213553  0.24714333  0.05345480  1
  Se  Se146  1  0.92490888  0.26181735  0.55383083  1
  Se  Se147  1  0.91886084  0.58061532  0.05331367  1
  Se  Se148  1  0.91489087  0.58965233  0.56402558  1
  Se  Se149  1  0.91795834  0.91120876  0.04994934  1
  Se  Se150  1  0.91515592  0.91020992  0.54899426  1
  Se  Se151  1  0.07540296  0.25520930  0.43422070  1
  Se  Se152  1  0.08434657  0.24802195  0.95244400  1
  Se  Se153  1  0.07984303  0.58017255  0.44433699  1
  Se  Se154  1  0.09138505  0.58561246  0.94606391  1
  Se  Se155  1  0.07844779  0.91634137  0.43760186  1
  Se  Se156  1  0.07365154  0.92575347  0.93570191  1
  Se  Se157  1  0.42413179  0.25198189  0.43533612  1
  Se  Se158  1  0.41828269  0.25337830  0.95392373  1
  Se  Se159  1  0.40947032  0.58888963  0.43517611  1
  Se  Se160  1  0.41956001  0.59009842  0.94351124  1
  Se  Se161  1  0.41521945  0.90435005  0.45685552  1
  Se  Se162  1  0.40916307  0.92356881  0.94021985  1
  Se  Se163  1  0.74256749  0.24964148  0.43215598  1
  Se  Se164  1  0.74655732  0.25121882  0.95187392  1
  Se  Se165  1  0.72931553  0.57997719  0.43690886  1
  Se  Se166  1  0.75636347  0.57635517  0.94800622  1
  Se  Se167  1  0.75899353  0.90958508  0.45314552  1
  Se  Se168  1  0.74565939  0.90750109  0.95808114  1
  Se  Se169  1  0.26262941  0.07501549  0.44589848  1
  Se  Se170  1  0.24412964  0.08644988  0.95347476  1
  Se  Se171  1  0.25041902  0.41466577  0.44384969  1
  Se  Se172  1  0.25285380  0.42094939  0.95298942  1
  Se  Se173  1  0.25628630  0.74674399  0.43470763  1
  Se  Se174  1  0.26506512  0.74734171  0.93799834  1
  Se  Se175  1  0.61718421  0.06744427  0.44373031  1
  Se  Se176  1  0.58471297  0.06977729  0.95029054  1
  Se  Se177  1  0.58003743  0.40507077  0.43233569  1
  Se  Se178  1  0.58613552  0.41453525  0.94130691  1
  Se  Se179  1  0.57509731  0.74852025  0.44846026  1
  Se  Se180  1  0.58932395  0.73844011  0.94157645  1
  Se  Se181  1  0.92394639  0.07501623  0.43988032  1
  Se  Se182  1  0.91219658  0.08666750  0.95057526  1
  Se  Se183  1  0.91324723  0.41380723  0.43351541  1
  Se  Se184  1  0.92013279  0.41420034  0.94899819  1
  Se  Se185  1  0.90615663  0.74331070  0.44552661  1
  Se  Se186  1  0.91806639  0.74922063  0.94940386  1
  Se  Se187  1  0.25480294  0.24529223  0.30513095  1
  Se  Se188  1  0.24568224  0.25011836  0.81978498  1
  Se  Se189  1  0.24090444  0.57900592  0.30434777  1
  Se  Se190  1  0.25406706  0.58624917  0.80311097  1
  Se  Se191  1  0.25727879  0.91936699  0.29963243  1
  Se  Se192  1  0.24861171  0.91984330  0.80066471  1
  Se  Se193  1  0.60165071  0.27245451  0.29510172  1
  Se  Se194  1  0.58680623  0.24264137  0.80494359  1
  Se  Se195  1  0.59185236  0.59709056  0.29529304  1
  Se  Se196  1  0.58639925  0.58132953  0.80107834  1
  Se  Se197  1  0.57687205  0.91580031  0.31805235  1
  Se  Se198  1  0.57208105  0.90366234  0.81090409  1
  Se  Se199  1  0.91724439  0.25239946  0.29153508  1
  Se  Se200  1  0.90682415  0.24861401  0.81048896  1
  Se  Se201  1  0.91533550  0.58819546  0.30342411  1
  Se  Se202  1  0.92274580  0.58590396  0.80808476  1
  Se  Se203  1  0.91202075  0.91724699  0.30929471  1
  Se  Se204  1  0.90245175  0.91756377  0.81651792  1
  Se  Se205  1  0.09427345  0.08740458  0.30911877  1
  Se  Se206  1  0.08268358  0.09070218  0.81056964  1
  Se  Se207  1  0.07761335  0.40971090  0.29930058  1
  Se  Se208  1  0.08896166  0.42332080  0.80930869  1
  Se  Se209  1  0.08100496  0.75003843  0.30166112  1
  Se  Se210  1  0.08550326  0.75265884  0.80147319  1
  Se  Se211  1  0.44128823  0.07815460  0.31700908  1
  Se  Se212  1  0.40886866  0.08925972  0.80667324  1
  Se  Se213  1  0.43018322  0.43882254  0.29866209  1
  Se  Se214  1  0.42694804  0.42531387  0.81648653  1
  Se  Se215  1  0.41595240  0.74872075  0.30284200  1
  Se  Se216  1  0.41212021  0.74287449  0.79563798  1
  Se  Se217  1  0.75285308  0.09542978  0.30533526  1
  Se  Se218  1  0.74491623  0.08210505  0.81165416  1
  Se  Se219  1  0.75044204  0.41981979  0.29434613  1
  Se  Se220  1  0.75107226  0.41603134  0.80509032  1
  Se  Se221  1  0.74423528  0.75685811  0.30854413  1
  Se  Se222  1  0.74906709  0.74541551  0.81070733  1
  Se  Se223  1  0.25949895  0.08128059  0.19696783  1
  Se  Se224  1  0.25676605  0.08594618  0.70319821  1
  Se  Se225  1  0.24835730  0.41477605  0.19738251  1
  Se  Se226  1  0.24320677  0.42186598  0.68944066  1
  Se  Se227  1  0.24946183  0.74705201  0.19677101  1
  Se  Se228  1  0.25263193  0.74985232  0.69118429  1
  Se  Se229  1  0.58002192  0.09560753  0.18989949  1
  Se  Se230  1  0.57142179  0.08181896  0.68676788  1
  Se  Se231  1  0.55703054  0.44844736  0.19063031  1
  Se  Se232  1  0.58733109  0.41362512  0.69472577  1
  Se  Se233  1  0.58836434  0.75442503  0.20116082  1
  Se  Se234  1  0.59859703  0.74905283  0.69579050  1
  Se  Se235  1  0.90629435  0.08304524  0.18412378  1
  Se  Se236  1  0.90566519  0.09076222  0.69742922  1
  Se  Se237  1  0.91895005  0.41572654  0.19246136  1
  Se  Se238  1  0.90684135  0.42819379  0.68576379  1
  Se  Se239  1  0.92040414  0.74796176  0.19913419  1
  Se  Se240  1  0.92023815  0.74728863  0.70306903  1
  Se  Se241  1  0.08352216  0.24613713  0.19638789  1
  Se  Se242  1  0.09303906  0.24323151  0.69439716  1
  Se  Se243  1  0.07914151  0.58534572  0.19539235  1
  Se  Se244  1  0.08206831  0.58648823  0.69563256  1
  Se  Se245  1  0.09715064  0.90881111  0.18680996  1
  Se  Se246  1  0.09172926  0.91031882  0.68435882  1
  Se  Se247  1  0.41464857  0.25221595  0.20624536  1
  Se  Se248  1  0.42482299  0.25204996  0.69541656  1
  Se  Se249  1  0.39091205  0.60637221  0.19754064  1
  Se  Se250  1  0.41516628  0.57698987  0.69649616  1
  Se  Se251  1  0.41888040  0.91780975  0.20036076  1
  Se  Se252  1  0.41727710  0.92343715  0.69000924  1
  Se  Se253  1  0.74556914  0.25604908  0.18852673  1
  Se  Se254  1  0.74106966  0.25336915  0.70088509  1
  Se  Se255  1  0.75379794  0.58782257  0.19435788  1
  Se  Se256  1  0.74985936  0.58202372  0.70203565  1
  Se  Se257  1  0.75972102  0.91266698  0.19178662  1
  Se  Se258  1  0.75729082  0.90459678  0.69119714  1
