# generated using pymatgen
data_In86Cu29Se144
_symmetry_space_group_name_H-M   'P 1'
_cell_length_a   17.58936305
_cell_length_b   17.58818511
_cell_length_c   23.45419510
_cell_angle_alpha   89.99489360
_cell_angle_beta   89.98966359
_cell_angle_gamma   90.00907450
_symmetry_Int_Tables_number   1
_chemical_formula_structural   In86Cu29Se144
_chemical_formula_sum   'In86 Cu29 Se144'
_cell_volume   7255.90620081
_cell_formula_units_Z   1
loop_
 _symmetry_equiv_pos_site_id
 _symmetry_equiv_pos_as_xyz
  1  'x, y, z'
loop_
 _atom_site_type_symbol
 _atom_site_label
 _atom_site_symmetry_multiplicity
 _atom_site_fract_x
 _atom_site_fract_y
 _atom_site_fract_z
 _atom_site_occupancy
  In  In0  1  -0.01034011  0.15413723  0.11763247  1
  In  In1  1  -0.00617336  0.15460607  0.61320454  1
  In  In2  1  0.01021644  0.50539837  0.11524896  1
  In  In3  1  -0.01414153  0.50773031  0.62223696  1
  In  In4  1  -0.00124213  0.83536595  0.12462558  1
  In  In5  1  0.01333194  0.83764499  0.61607721  1
  In  In6  1  0.33494585  0.18229893  0.12817976  1
  In  In7  1  0.33552607  0.16859216  0.62071788  1
  In  In8  1  0.32148144  0.48621352  0.11612126  1
  In  In9  1  0.32525944  0.48577720  0.63030863  1
  In  In10  1  0.33337574  0.83620853  0.11117114  1
  In  In11  1  0.33237565  0.83874209  0.62106376  1
  In  In12  1  0.67663790  0.15719424  0.12117117  1
  In  In13  1  0.66603175  0.16618589  0.62936234  1
  In  In14  1  0.66992948  0.50384184  0.11181563  1
  In  In15  1  0.67869352  0.49017411  0.63620710  1
  In  In16  1  0.66707791  0.82867535  0.11428743  1
  In  In17  1  0.65839910  0.84265439  0.63606763  1
  In  In18  1  0.14737519  0.01323163  0.39054887  1
  In  In19  1  0.15254512  0.01918522  0.89035992  1
  In  In20  1  0.16729129  0.31780395  0.37208238  1
  In  In21  1  0.17223241  0.31517191  0.89091090  1
  In  In22  1  0.16182939  0.68372999  0.37384949  1
  In  In23  1  0.16221381  0.67173699  0.88287077  1
  In  In24  1  0.49476844  0.00456036  0.38699511  1
  In  In25  1  0.49916438  -0.01355043  0.87627841  1
  In  In26  1  0.48971432  0.33116414  0.36894626  1
  In  In27  1  0.50919605  0.33764867  0.86668009  1
  In  In28  1  0.50837665  0.66991004  0.37888492  1
  In  In29  1  0.50480301  0.66268142  0.87799621  1
  In  In30  1  0.84892410  0.00585766  0.37408221  1
  In  In31  1  0.83327711  0.00169068  0.87058688  1
  In  In32  1  0.83861598  0.33117947  0.38509483  1
  In  In33  1  0.82983023  0.34147781  0.88313326  1
  In  In34  1  0.83085236  0.65670628  0.37368219  1
  In  In35  1  0.83163344  0.67105927  0.87812799  1
  In  In36  1  -0.00022170  0.16439133  0.38338161  1
  In  In37  1  0.00969378  0.15839149  0.88059929  1
  In  In38  1  -0.01284481  0.49869819  0.37346966  1
  In  In39  1  0.00068781  0.49516746  0.89426138  1
  In  In40  1  0.00775320  0.84425260  0.36591066  1
  In  In41  1  -0.01097797  0.84731191  0.87873075  1
  In  In42  1  0.33126015  0.16677487  0.37506523  1
  In  In43  1  0.31096852  0.16736253  0.87228049  1
  In  In44  1  0.33968197  0.49225222  0.36861179  1
  In  In45  1  0.33892571  0.48898713  0.87943481  1
  In  In46  1  0.32325508  0.84567133  0.38384484  1
  In  In47  1  0.32735897  0.85179962  0.89329679  1
  In  In48  1  0.67129591  0.16252021  0.38511479  1
  In  In49  1  0.67566969  0.17545647  0.86678622  1
  In  In50  1  0.67217742  0.50729593  0.37874248  1
  In  In51  1  0.66738019  0.49977233  0.87373739  1
  In  In52  1  0.66254172  0.82559665  0.38165515  1
  In  In53  1  0.67043684  0.83204255  0.87209064  1
  In  In54  1  0.15957051  -0.01138908  0.11512892  1
  In  In55  1  0.15829675  0.00237091  0.61978460  1
  In  In56  1  0.16724158  0.33758141  0.11539946  1
  In  In57  1  0.17974224  0.32546866  0.63277077  1
  In  In58  1  0.16119451  0.66300910  0.12157704  1
  In  In59  1  0.15471474  0.67862383  0.62409796  1
  In  In60  1  0.51209250  -0.00027504  0.12198434  1
  In  In61  1  0.50275663  0.00761432  0.62181980  1
  In  In62  1  0.48382116  0.32796593  0.12193130  1
  In  In63  1  0.50925889  0.32609353  0.63444964  1
  In  In64  1  0.50517555  0.66684280  0.11555670  1
  In  In65  1  0.50354946  0.68063012  0.62645767  1
  In  In66  1  0.85007522  0.01246306  0.11610966  1
  In  In67  1  0.82851442  0.00302151  0.63058376  1
  In  In68  1  0.83706262  0.32693668  0.10836959  1
  In  In69  1  0.82932037  0.32459978  0.62326159  1
  In  In70  1  0.84044786  0.67689921  0.11899455  1
  In  In71  1  0.83580785  0.65390022  0.62526234  1
  In  In72  1  -0.00533805  0.66838186  0.74688372  1
  In  In73  1  0.00358981  0.32491067  0.75706619  1
  In  In74  1  0.67013312  0.32843794  0.24420399  1
  In  In75  1  0.50329665  0.49903364  0.49645196  1
  In  In76  1  0.32847974  0.66467717  0.24762856  1
  In  In77  1  0.83402592  0.83554125  0.49803135  1
  In  In78  1  0.34444015  0.66331062  0.75519885  1
  In  In79  1  0.16171501  0.50208776  0.50413463  1
  In  In80  1  0.49793570  0.16364563  -0.00162597  1
  In  In81  1  0.00062520  0.32937691  0.24496067  1
  In  In82  1  0.67219968  0.00063134  0.24860705  1
  In  In83  1  0.33057972  0.00280698  0.25393386  1
  In  In84  1  0.33359181  0.00175214  0.75201409  1
  In  In85  1  0.66724779  0.66556376  0.25398881  1
  Cu  Cu86  1  0.50304024  0.49845230  0.75640107  1
  Cu  Cu87  1  0.33168016  -0.00278715  0.50362373  1
  Cu  Cu88  1  0.49469875  0.83527535  0.25405665  1
  Cu  Cu89  1  0.66919706  0.32995757  0.50970649  1
  Cu  Cu90  1  0.84195970  0.83968357  0.24365051  1
  Cu  Cu91  1  0.83811423  0.49864385  0.24811953  1
  Cu  Cu92  1  0.83065415  0.49693045  0.75618326  1
  Cu  Cu93  1  0.33619499  0.66516505  -0.00134664  1
  Cu  Cu94  1  -0.00219298  -0.00823648  -0.00181262  1
  Cu  Cu95  1  0.83312336  0.83711076  0.75384899  1
  Cu  Cu96  1  0.00056270  0.67196086  0.00224538  1
  Cu  Cu97  1  0.32959566  0.67538380  0.50268904  1
  Cu  Cu98  1  0.66787033  0.66470267  -0.00799493  1
  Cu  Cu99  1  0.15624720  0.83838807  0.24592327  1
  Cu  Cu100  1  0.66717878  0.66801434  0.50325358  1
  Cu  Cu101  1  0.16489115  0.49684092  0.24037204  1
  Cu  Cu102  1  0.16616056  0.16262412  0.25224358  1
  Cu  Cu103  1  0.50741884  0.82886970  0.75639369  1
  Cu  Cu104  1  0.49890296  0.16642530  0.74553105  1
  Cu  Cu105  1  0.67292165  -0.00492100  -0.00379091  1
  Cu  Cu106  1  0.33432567  0.32699710  0.49858475  1
  Cu  Cu107  1  0.16518726  0.83910431  0.74819099  1
  Cu  Cu108  1  0.66498192  0.00229918  0.50906615  1
  Cu  Cu109  1  0.33378805  0.33427683  -0.00194828  1
  Cu  Cu110  1  0.83108855  0.16539566  0.74696538  1
  Cu  Cu111  1  0.49114198  0.49068594  0.24219262  1
  Cu  Cu112  1  0.66377954  0.33566848  -0.00750730  1
  Cu  Cu113  1  -0.00185002  0.33377764  0.50151748  1
  Cu  Cu114  1  0.16641497  0.49342229  0.75586374  1
  Se  Se115  1  0.08058589  0.07893919  0.04995001  1
  Se  Se116  1  0.09168412  0.09018318  0.54656585  1
  Se  Se117  1  0.08313416  0.41608796  0.04837935  1
  Se  Se118  1  0.07730934  0.40878285  0.56691264  1
  Se  Se119  1  0.08493511  0.75447423  0.05591197  1
  Se  Se120  1  0.07369986  0.74039889  0.54758536  1
  Se  Se121  1  0.41106595  0.07960373  0.06393722  1
  Se  Se122  1  0.41643792  0.08375738  0.55276495  1
  Se  Se123  1  0.41932273  0.41806018  0.04916383  1
  Se  Se124  1  0.41384543  0.40941510  0.55794303  1
  Se  Se125  1  0.42101712  0.74986771  0.04983957  1
  Se  Se126  1  0.41728616  0.75312057  0.55577979  1
  Se  Se127  1  0.75489677  0.08264491  0.04726915  1
  Se  Se128  1  0.74996678  0.08551856  0.55920098  1
  Se  Se129  1  0.75034229  0.41539567  0.04764904  1
  Se  Se130  1  0.75282911  0.41884928  0.55688943  1
  Se  Se131  1  0.75091245  0.74713619  0.04780315  1
  Se  Se132  1  0.74485884  0.75075807  0.56395347  1
  Se  Se133  1  0.25253307  0.24872396  0.05132369  1
  Se  Se134  1  0.24736615  0.24949537  0.55274458  1
  Se  Se135  1  0.25074163  0.58555179  0.05455543  1
  Se  Se136  1  0.25779124  0.59065561  0.56458458  1
  Se  Se137  1  0.25202203  0.92014899  0.04679210  1
  Se  Se138  1  0.24482196  0.91568591  0.55482681  1
  Se  Se139  1  0.59024473  0.25488688  0.05866773  1
  Se  Se140  1  0.58135085  0.24753025  0.55816353  1
  Se  Se141  1  0.58204888  0.58247354  0.04572248  1
  Se  Se142  1  0.58924415  0.58358119  0.56340911  1
  Se  Se143  1  0.58510462  0.91649719  0.04958015  1
  Se  Se144  1  0.58211377  0.91422882  0.55762861  1
  Se  Se145  1  0.93198703  0.25230191  0.04642854  1
  Se  Se146  1  0.91303049  0.24920801  0.55226605  1
  Se  Se147  1  0.91637483  0.58570354  0.05290431  1
  Se  Se148  1  0.92378789  0.59609344  0.54946883  1
  Se  Se149  1  0.91256564  0.90973640  0.05164172  1
  Se  Se150  1  0.92017457  0.92741565  0.55724934  1
  Se  Se151  1  0.08374241  0.25338553  0.44786269  1
  Se  Se152  1  0.06325787  0.25898261  0.95184124  1
  Se  Se153  1  0.07861046  0.58680768  0.43722091  1
  Se  Se154  1  0.08630022  0.58656617  0.95306288  1
  Se  Se155  1  0.08706202  0.90371872  0.44695744  1
  Se  Se156  1  0.08710968  0.90995783  0.94724398  1
  Se  Se157  1  0.41902389  0.24848784  0.44308762  1
  Se  Se158  1  0.41309466  0.25466294  0.93533579  1
  Se  Se159  1  0.40497341  0.59156625  0.44161810  1
  Se  Se160  1  0.41702696  0.58135718  0.94358368  1
  Se  Se161  1  0.41814589  0.91316093  0.45173695  1
  Se  Se162  1  0.42491293  0.92146044  0.95628238  1
  Se  Se163  1  0.75184985  0.25019577  0.45089758  1
  Se  Se164  1  0.74848691  0.24734974  0.94629233  1
  Se  Se165  1  0.75128024  0.58477253  0.45089206  1
  Se  Se166  1  0.75325939  0.57951043  0.94296655  1
  Se  Se167  1  0.74090505  0.92826862  0.43971388  1
  Se  Se168  1  0.75565611  0.91357003  0.94061570  1
  Se  Se169  1  0.25446809  0.08266557  0.44590205  1
  Se  Se170  1  0.26101731  0.07819746  0.94980461  1
  Se  Se171  1  0.25450727  0.41284782  0.44197290  1
  Se  Se172  1  0.24639853  0.41857798  0.94826089  1
  Se  Se173  1  0.24486285  0.75389392  0.44814945  1
  Se  Se174  1  0.25007730  0.75033990  0.94961713  1
  Se  Se175  1  0.58266350  0.08491468  0.45229203  1
  Se  Se176  1  0.59297071  0.07975331  0.93739215  1
  Se  Se177  1  0.59373478  0.40468467  0.43982275  1
  Se  Se178  1  0.57890870  0.41934658  0.94265647  1
  Se  Se179  1  0.57955830  0.75086399  0.45416644  1
  Se  Se180  1  0.58512357  0.75263825  0.94263069  1
  Se  Se181  1  0.91223392  0.08667217  0.45097543  1
  Se  Se182  1  0.91738508  0.07724194  0.94346928  1
  Se  Se183  1  0.91624305  0.42153206  0.45111694  1
  Se  Se184  1  0.90947055  0.41746129  0.95580344  1
  Se  Se185  1  0.91816914  0.75063944  0.43167732  1
  Se  Se186  1  0.91781499  0.75183850  0.94481447  1
  Se  Se187  1  0.25346254  0.24675125  0.30034502  1
  Se  Se188  1  0.23435248  0.25138480  0.80410618  1
  Se  Se189  1  0.23877858  0.57483034  0.30889717  1
  Se  Se190  1  0.24395579  0.58109394  0.81197615  1
  Se  Se191  1  0.23475959  0.91576625  0.30971821  1
  Se  Se192  1  0.24330226  0.91391750  0.81217237  1
  Se  Se193  1  0.58561300  0.24326035  0.31068865  1
  Se  Se194  1  0.58465251  0.24929600  0.79852034  1
  Se  Se195  1  0.56966252  0.56859440  0.30550368  1
  Se  Se196  1  0.58531514  0.58574068  0.80479367  1
  Se  Se197  1  0.57834762  0.91305539  0.31191510  1
  Se  Se198  1  0.58818956  0.91951204  0.80405388  1
  Se  Se199  1  0.91191382  0.24659006  0.31012358  1
  Se  Se200  1  0.90667601  0.24105914  0.81460509  1
  Se  Se201  1  0.91709453  0.58556581  0.30033331  1
  Se  Se202  1  0.91855301  0.57319510  0.81284063  1
  Se  Se203  1  0.92014884  0.92439884  0.29891140  1
  Se  Se204  1  0.92052731  0.92277826  0.79950357  1
  Se  Se205  1  0.08096365  0.08702419  0.30904289  1
  Se  Se206  1  0.08768064  0.08366767  0.80618731  1
  Se  Se207  1  0.08901071  0.42033665  0.30843319  1
  Se  Se208  1  0.08573813  0.42020716  0.81812558  1
  Se  Se209  1  0.07830727  0.74805073  0.29717674  1
  Se  Se210  1  0.08489840  0.75731471  0.80776908  1
  Se  Se211  1  0.42938828  0.08870744  0.30758394  1
  Se  Se212  1  0.42311232  0.09192606  0.81362006  1
  Se  Se213  1  0.40921683  0.40792579  0.29522200  1
  Se  Se214  1  0.41406255  0.41467117  0.80217869  1
  Se  Se215  1  0.41599666  0.75412520  0.31297053  1
  Se  Se216  1  0.41619730  0.76367715  0.81756970  1
  Se  Se217  1  0.75859087  0.09246303  0.30781449  1
  Se  Se218  1  0.74757513  0.08096372  0.80047325  1
  Se  Se219  1  0.75658751  0.42153165  0.30854142  1
  Se  Se220  1  0.74776743  0.41054816  0.80628379  1
  Se  Se221  1  0.75911331  0.76380380  0.30631142  1
  Se  Se222  1  0.75349533  0.74716790  0.80301528  1
  Se  Se223  1  0.24297718  0.08527326  0.18697393  1
  Se  Se224  1  0.24526402  0.08738922  0.68988800  1
  Se  Se225  1  0.24817704  0.40956284  0.19322015  1
  Se  Se226  1  0.25236593  0.40967330  0.70665879  1
  Se  Se227  1  0.24572974  0.76258966  0.18945065  1
  Se  Se228  1  0.24810456  0.75318234  0.69572046  1
  Se  Se229  1  0.57830805  0.09481722  0.19398380  1
  Se  Se230  1  0.58296793  0.07974577  0.69724413  1
  Se  Se231  1  0.58232726  0.42190283  0.18433334  1
  Se  Se232  1  0.58606565  0.41519688  0.70108825  1
  Se  Se233  1  0.57676690  0.75704384  0.19390129  1
  Se  Se234  1  0.58835852  0.74421526  0.70270839  1
  Se  Se235  1  0.91656674  0.08356522  0.19680465  1
  Se  Se236  1  0.91831030  0.08594377  0.69439950  1
  Se  Se237  1  0.91193449  0.41959079  0.18398653  1
  Se  Se238  1  0.91365510  0.41881009  0.69591738  1
  Se  Se239  1  0.92024237  0.74756920  0.19512167  1
  Se  Se240  1  0.90973083  0.76184553  0.68627237  1
  Se  Se241  1  0.09018354  0.23979796  0.18573391  1
  Se  Se242  1  0.08173562  0.23938202  0.68747021  1
  Se  Se243  1  0.08054316  0.58371517  0.19399950  1
  Se  Se244  1  0.09096289  0.57308520  0.69271218  1
  Se  Se245  1  0.07686784  0.92505077  0.19339780  1
  Se  Se246  1  0.08201780  0.91843239  0.69301697  1
  Se  Se247  1  0.42404013  0.24676364  0.20020868  1
  Se  Se248  1  0.41200964  0.24891751  0.69529919  1
  Se  Se249  1  0.41841572  0.57907870  0.18437383  1
  Se  Se250  1  0.42658603  0.57261098  0.68769565  1
  Se  Se251  1  0.42012943  0.91272446  0.19023904  1
  Se  Se252  1  0.42560030  0.90793660  0.69483484  1
  Se  Se253  1  0.76596245  0.24181455  0.18815875  1
  Se  Se254  1  0.74764268  0.25294226  0.69794853  1
  Se  Se255  1  0.75418726  0.57858937  0.18996828  1
  Se  Se256  1  0.75347822  0.58504300  0.70146120  1
  Se  Se257  1  0.75559062  0.91136508  0.18343941  1
  Se  Se258  1  0.74813414  0.92073766  0.70098493  1
