# generated using pymatgen
data_In86Cu29Se144
_symmetry_space_group_name_H-M   'P 1'
_cell_length_a   17.58001413
_cell_length_b   17.58191232
_cell_length_c   23.43855475
_cell_angle_alpha   89.99639627
_cell_angle_beta   89.99537067
_cell_angle_gamma   89.97120099
_symmetry_Int_Tables_number   1
_chemical_formula_structural   In86Cu29Se144
_chemical_formula_sum   'In86 Cu29 Se144'
_cell_volume   7244.62818950
_cell_formula_units_Z   1
loop_
 _symmetry_equiv_pos_site_id
 _symmetry_equiv_pos_as_xyz
  1  'x, y, z'
loop_
 _atom_site_type_symbol
 _atom_site_label
 _atom_site_symmetry_multiplicity
 _atom_site_fract_x
 _atom_site_fract_y
 _atom_site_fract_z
 _atom_site_occupancy
  In  In0  1  0.00005004  0.16331028  0.11955968  1
  In  In1  1  -0.00637523  0.17284609  0.62951633  1
  In  In2  1  0.00967378  0.49984571  0.12309188  1
  In  In3  1  -0.00955819  0.49488964  0.62859454  1
  In  In4  1  -0.00839905  0.83769767  0.12858161  1
  In  In5  1  -0.00535856  0.83661045  0.62836102  1
  In  In6  1  0.31884398  0.15806617  0.12532295  1
  In  In7  1  0.33984544  0.15651561  0.63085227  1
  In  In8  1  0.32383034  0.50826750  0.12392331  1
  In  In9  1  0.31405149  0.49626200  0.62045058  1
  In  In10  1  0.34349788  0.83996358  0.12128758  1
  In  In11  1  0.34296794  0.83997792  0.61924379  1
  In  In12  1  0.67697135  0.15103582  0.13503021  1
  In  In13  1  0.65445383  0.15677601  0.61674733  1
  In  In14  1  0.66012474  0.49722536  0.13146695  1
  In  In15  1  0.67954847  0.49261125  0.62094964  1
  In  In16  1  0.67465538  0.84462304  0.12028588  1
  In  In17  1  0.67934583  0.84496736  0.61816219  1
  In  In18  1  0.16659331  0.00822169  0.36092118  1
  In  In19  1  0.17584508  0.00917413  0.86831797  1
  In  In20  1  0.17967116  0.34158637  0.38269481  1
  In  In21  1  0.16196062  0.33244836  0.87323808  1
  In  In22  1  0.15134805  0.66738985  0.37807767  1
  In  In23  1  0.14045288  0.66583677  0.87845455  1
  In  In24  1  0.50541680  -0.00291968  0.37452990  1
  In  In25  1  0.49407767  -0.00357944  0.87277929  1
  In  In26  1  0.49913671  0.30681474  0.38278070  1
  In  In27  1  0.49639283  0.34319184  0.86984821  1
  In  In28  1  0.50427286  0.68461044  0.37745083  1
  In  In29  1  0.51145450  0.67289922  0.87493918  1
  In  In30  1  0.83340512  -0.00033901  0.37671441  1
  In  In31  1  0.83600979  0.00076362  0.87344988  1
  In  In32  1  0.82819599  0.33793911  0.38081088  1
  In  In33  1  0.83269290  0.32067211  0.87341053  1
  In  In34  1  0.84905150  0.66648052  0.38554720  1
  In  In35  1  0.86062456  0.67635232  0.87403446  1
  In  In36  1  0.00170814  0.14860293  0.37437243  1
  In  In37  1  0.00143799  0.16562015  0.87257059  1
  In  In38  1  -0.00415764  0.50987192  0.38726186  1
  In  In39  1  0.00953111  0.51567602  0.86394340  1
  In  In40  1  -0.00524971  0.83115787  0.36977389  1
  In  In41  1  -0.01115888  0.82672489  0.87014900  1
  In  In42  1  0.34175396  0.16562928  0.38184954  1
  In  In43  1  0.32330872  0.16090156  0.86926012  1
  In  In44  1  0.32135173  0.48235342  0.38680614  1
  In  In45  1  0.32725440  0.48574248  0.86772309  1
  In  In46  1  0.34527682  0.85104205  0.36812372  1
  In  In47  1  0.33271516  0.84823813  0.87369799  1
  In  In48  1  0.66944331  0.16214635  0.37494645  1
  In  In49  1  0.68763069  0.16560534  0.87733707  1
  In  In50  1  0.68495549  0.50349058  0.37707492  1
  In  In51  1  0.66918247  0.49470158  0.87370102  1
  In  In52  1  0.65969732  0.84976125  0.38045410  1
  In  In53  1  0.66221453  0.84599416  0.88068312  1
  In  In54  1  0.15813046  0.00964785  0.13827107  1
  In  In55  1  0.16735049  -0.00320818  0.63229415  1
  In  In56  1  0.16303307  0.32809086  0.11489837  1
  In  In57  1  0.15460223  0.33562718  0.63348890  1
  In  In58  1  0.16249851  0.65189885  0.12179510  1
  In  In59  1  0.15379199  0.65459252  0.62161000  1
  In  In60  1  0.50733750  -0.01415692  0.14089040  1
  In  In61  1  0.50012066  0.00368440  0.62391710  1
  In  In62  1  0.50393878  0.34125465  0.13209228  1
  In  In63  1  0.49996746  0.31140621  0.62366841  1
  In  In64  1  0.48985129  0.67260021  0.12474776  1
  In  In65  1  0.49017586  0.67840550  0.61883539  1
  In  In66  1  0.83849431  0.00078674  0.12480377  1
  In  In67  1  0.83136140  -0.00030854  0.62506622  1
  In  In68  1  0.83570518  0.31651975  0.12504020  1
  In  In69  1  0.84461828  0.33692178  0.61545811  1
  In  In70  1  0.83197103  0.68405785  0.12522796  1
  In  In71  1  0.84419024  0.67032578  0.61899130  1
  In  In72  1  0.67229763  0.67634910  0.25005972  1
  In  In73  1  0.16577792  0.83408182  0.50120932  1
  In  In74  1  0.32891076  0.66832847  0.25290838  1
  In  In75  1  0.49328934  0.50666674  0.00700330  1
  In  In76  1  0.83698981  0.50534191  -0.00722557  1
  In  In77  1  0.67013670  0.32387464  0.74939622  1
  In  In78  1  0.67469689  0.67029247  0.74096647  1
  In  In79  1  0.16127738  0.83307598  -0.00257029  1
  In  In80  1  0.16684369  0.16909533  0.49900056  1
  In  In81  1  0.33474866  0.32432018  0.25833335  1
  In  In82  1  0.00144301  0.32549738  0.24669773  1
  In  In83  1  0.50051242  0.16394385  0.00241859  1
  In  In84  1  0.32408650  0.67136902  0.74035242  1
  In  In85  1  0.50316910  0.50306594  0.50206688  1
  Cu  Cu86  1  0.66809568  0.32690810  0.49888799  1
  Cu  Cu87  1  -0.00132209  0.33412942  0.50605867  1
  Cu  Cu88  1  0.33284267  0.67566449  0.49794280  1
  Cu  Cu89  1  -0.00432501  -0.00331900  0.50048891  1
  Cu  Cu90  1  0.33277012  0.00058994  -0.00320955  1
  Cu  Cu91  1  0.49686073  0.49553881  0.74550754  1
  Cu  Cu92  1  0.83913674  0.49893110  0.25871644  1
  Cu  Cu93  1  0.67534691  0.67310712  0.49688471  1
  Cu  Cu94  1  0.16008020  0.49849702  0.74771551  1
  Cu  Cu95  1  0.49747222  0.84321031  0.74844131  1
  Cu  Cu96  1  0.67010615  0.32941578  0.00390435  1
  Cu  Cu97  1  0.50770330  0.49450206  0.25735070  1
  Cu  Cu98  1  0.16041695  0.49630359  0.24941498  1
  Cu  Cu99  1  0.16553814  0.16833654  0.75025261  1
  Cu  Cu100  1  0.00367348  0.33095134  -0.00332593  1
  Cu  Cu101  1  0.32947806  0.66662662  -0.00004492  1
  Cu  Cu102  1  0.66609742  0.00081204  0.49831221  1
  Cu  Cu103  1  0.67078287  0.68104125  -0.00237061  1
  Cu  Cu104  1  0.83165333  0.83754311  0.74873044  1
  Cu  Cu105  1  0.32240409  0.33026474  -0.00607133  1
  Cu  Cu106  1  0.16099638  0.82953353  0.24899230  1
  Cu  Cu107  1  0.15980548  0.83629862  0.75238381  1
  Cu  Cu108  1  0.83477936  0.16101432  0.74693106  1
  Cu  Cu109  1  0.83520010  0.83882007  0.25262791  1
  Cu  Cu110  1  0.67318350  -0.00025414  0.00558616  1
  Cu  Cu111  1  0.50475321  0.16270513  0.25566888  1
  Cu  Cu112  1  0.00054452  0.00372948  -0.00157456  1
  Cu  Cu113  1  0.83011986  0.16177834  0.24985062  1
  Cu  Cu114  1  0.49940212  0.15862422  0.74853529  1
  Se  Se115  1  0.08796592  0.07887191  0.05492828  1
  Se  Se116  1  0.07808766  0.07658574  0.55995439  1
  Se  Se117  1  0.08376636  0.41747490  0.05014971  1
  Se  Se118  1  0.08141067  0.41658973  0.55907859  1
  Se  Se119  1  0.07570399  0.74505321  0.06036712  1
  Se  Se120  1  0.07140375  0.74421333  0.55489916  1
  Se  Se121  1  0.41425007  0.07313550  0.06258433  1
  Se  Se122  1  0.42579278  0.09370645  0.55524148  1
  Se  Se123  1  0.40315940  0.40547148  0.05932238  1
  Se  Se124  1  0.41731135  0.41399200  0.56382790  1
  Se  Se125  1  0.41466313  0.75026253  0.04967658  1
  Se  Se126  1  0.41953403  0.76051403  0.54446332  1
  Se  Se127  1  0.75574510  0.08675192  0.05527425  1
  Se  Se128  1  0.75055555  0.08196012  0.55334182  1
  Se  Se129  1  0.74807719  0.41698639  0.05999537  1
  Se  Se130  1  0.75285608  0.41275056  0.54738818  1
  Se  Se131  1  0.75569423  0.76094545  0.05073004  1
  Se  Se132  1  0.75704403  0.75392612  0.55385286  1
  Se  Se133  1  0.24888688  0.24294751  0.05104631  1
  Se  Se134  1  0.24855098  0.25029046  0.56934976  1
  Se  Se135  1  0.24596748  0.57923495  0.04724381  1
  Se  Se136  1  0.25143566  0.59305604  0.55183415  1
  Se  Se137  1  0.24883755  0.92345409  0.05828557  1
  Se  Se138  1  0.25634908  0.93005512  0.55428412  1
  Se  Se139  1  0.58928428  0.25277243  0.06524133  1
  Se  Se140  1  0.57899055  0.24440788  0.54573643  1
  Se  Se141  1  0.59454397  0.59711203  0.05899533  1
  Se  Se142  1  0.59538733  0.59547637  0.56134956  1
  Se  Se143  1  0.58063822  0.92303590  0.05615868  1
  Se  Se144  1  0.58329365  0.91879058  0.55478754  1
  Se  Se145  1  0.91954494  0.24890580  0.05052764  1
  Se  Se146  1  0.91660338  0.24067724  0.54938746  1
  Se  Se147  1  0.91829006  0.59012729  0.06148491  1
  Se  Se148  1  0.91385960  0.57421108  0.55438941  1
  Se  Se149  1  0.91957413  0.91921128  0.05306370  1
  Se  Se150  1  0.91399687  0.91465516  0.55565589  1
  Se  Se151  1  0.07323017  0.25707643  0.43821413  1
  Se  Se152  1  0.08600033  0.24550480  0.94366595  1
  Se  Se153  1  0.10235841  0.56890421  0.44918893  1
  Se  Se154  1  0.07360685  0.57947066  0.95034568  1
  Se  Se155  1  0.08217475  0.92692946  0.43793222  1
  Se  Se156  1  0.07884084  0.92507775  0.93418765  1
  Se  Se157  1  0.39011576  0.27157558  0.44904696  1
  Se  Se158  1  0.41398703  0.25630747  0.93950342  1
  Se  Se159  1  0.41140733  0.59087039  0.43771132  1
  Se  Se160  1  0.40964912  0.58838270  0.93469022  1
  Se  Se161  1  0.42411429  0.91462303  0.44569259  1
  Se  Se162  1  0.41858994  0.91598132  0.94795780  1
  Se  Se163  1  0.75246581  0.24447984  0.44539768  1
  Se  Se164  1  0.75655485  0.24920987  0.95249568  1
  Se  Se165  1  0.75818018  0.58435231  0.44999936  1
  Se  Se166  1  0.74212307  0.59689271  0.93528631  1
  Se  Se167  1  0.75444031  0.91691310  0.44901699  1
  Se  Se168  1  0.75491196  0.91973843  0.94661566  1
  Se  Se169  1  0.25210147  0.07207342  0.44188725  1
  Se  Se170  1  0.24886233  0.08535599  0.94683260  1
  Se  Se171  1  0.24607052  0.41302890  0.46458574  1
  Se  Se172  1  0.24405987  0.41943473  0.94320619  1
  Se  Se173  1  0.25642783  0.75205757  0.43248805  1
  Se  Se174  1  0.25300401  0.74399618  0.93428705  1
  Se  Se175  1  0.58302090  0.08472439  0.44476337  1
  Se  Se176  1  0.59372349  0.07871582  0.94148445  1
  Se  Se177  1  0.58965126  0.41296909  0.43854182  1
  Se  Se178  1  0.58680752  0.41148134  0.94845782  1
  Se  Se179  1  0.58694163  0.75630006  0.44993210  1
  Se  Se180  1  0.57892811  0.75856023  0.94776219  1
  Se  Se181  1  0.91446864  0.08363838  0.44833402  1
  Se  Se182  1  0.91677044  0.08549916  0.94308546  1
  Se  Se183  1  0.91588238  0.41601627  0.44844884  1
  Se  Se184  1  0.92322849  0.41044142  0.93589006  1
  Se  Se185  1  0.92952059  0.75465341  0.44958264  1
  Se  Se186  1  0.92060818  0.75697266  0.95251881  1
  Se  Se187  1  0.23798056  0.23833635  0.31321340  1
  Se  Se188  1  0.24924182  0.25345923  0.80334565  1
  Se  Se189  1  0.24577368  0.57039380  0.31117276  1
  Se  Se190  1  0.24038876  0.58372942  0.80720208  1
  Se  Se191  1  0.24595373  0.91188901  0.30060038  1
  Se  Se192  1  0.25071905  0.91761154  0.79915135  1
  Se  Se193  1  0.58657482  0.24996105  0.30594286  1
  Se  Se194  1  0.57769518  0.23788619  0.81350184  1
  Se  Se195  1  0.58240242  0.58362374  0.31286353  1
  Se  Se196  1  0.57901172  0.57560965  0.80229798  1
  Se  Se197  1  0.58649393  0.91780931  0.30180574  1
  Se  Se198  1  0.58358637  0.91958931  0.80452340  1
  Se  Se199  1  0.90980195  0.24281641  0.31083126  1
  Se  Se200  1  0.91541250  0.24561943  0.80148760  1
  Se  Se201  1  0.92097202  0.58425508  0.30896521  1
  Se  Se202  1  0.90423340  0.57705568  0.80224398  1
  Se  Se203  1  0.91978118  0.92360773  0.30421820  1
  Se  Se204  1  0.91751436  0.91917449  0.80208196  1
  Se  Se205  1  0.07717871  0.08418298  0.29484953  1
  Se  Se206  1  0.08243023  0.08232808  0.80210662  1
  Se  Se207  1  0.08453503  0.41625100  0.31199349  1
  Se  Se208  1  0.07928852  0.41411664  0.80288541  1
  Se  Se209  1  0.07917089  0.74577302  0.30223514  1
  Se  Se210  1  0.07729122  0.74848413  0.80062289  1
  Se  Se211  1  0.41759956  0.08472512  0.30931056  1
  Se  Se212  1  0.41305595  0.08045538  0.80491661  1
  Se  Se213  1  0.42409923  0.41929230  0.31691498  1
  Se  Se214  1  0.41218055  0.41182691  0.79558821  1
  Se  Se215  1  0.42885557  0.76003978  0.29829159  1
  Se  Se216  1  0.42059723  0.75375166  0.80462985  1
  Se  Se217  1  0.74895801  0.07800789  0.30480301  1
  Se  Se218  1  0.75007307  0.08041549  0.80149315  1
  Se  Se219  1  0.75130328  0.41458346  0.30381963  1
  Se  Se220  1  0.75885235  0.42063460  0.80451460  1
  Se  Se221  1  0.75973296  0.75772609  0.31679692  1
  Se  Se222  1  0.75252082  0.75685117  0.81189426  1
  Se  Se223  1  0.25899704  0.07478746  0.20233328  1
  Se  Se224  1  0.24910598  0.08204293  0.69906708  1
  Se  Se225  1  0.24568878  0.41606856  0.19297312  1
  Se  Se226  1  0.24799066  0.41650510  0.69837399  1
  Se  Se227  1  0.24180165  0.75262547  0.18548527  1
  Se  Se228  1  0.23512076  0.76306069  0.68159307  1
  Se  Se229  1  0.58757301  0.07779184  0.20312884  1
  Se  Se230  1  0.58695397  0.07954232  0.69660241  1
  Se  Se231  1  0.59032411  0.41155965  0.20468819  1
  Se  Se232  1  0.58020367  0.41671587  0.68723265  1
  Se  Se233  1  0.57958115  0.75840192  0.18743485  1
  Se  Se234  1  0.57619757  0.76047107  0.68852058  1
  Se  Se235  1  0.91872024  0.08757009  0.19346146  1
  Se  Se236  1  0.91927477  0.07781840  0.69439747  1
  Se  Se237  1  0.91057574  0.42079717  0.18975253  1
  Se  Se238  1  0.92033988  0.39931900  0.69581271  1
  Se  Se239  1  0.91583449  0.75041848  0.20086545  1
  Se  Se240  1  0.91320775  0.75068590  0.69707834  1
  Se  Se241  1  0.09704554  0.23941688  0.19081726  1
  Se  Se242  1  0.07626469  0.24973805  0.70174202  1
  Se  Se243  1  0.07973320  0.58328561  0.19865655  1
  Se  Se244  1  0.07519476  0.58265518  0.69693079  1
  Se  Se245  1  0.07731816  0.91544670  0.19806075  1
  Se  Se246  1  0.07697973  0.91935259  0.69764547  1
  Se  Se247  1  0.42431219  0.23937423  0.19122477  1
  Se  Se248  1  0.41674866  0.24725284  0.70061507  1
  Se  Se249  1  0.42499101  0.57106654  0.19621385  1
  Se  Se250  1  0.41998275  0.57781511  0.68592667  1
  Se  Se251  1  0.40275508  0.92030419  0.20040348  1
  Se  Se252  1  0.41247536  0.92257295  0.69409333  1
  Se  Se253  1  0.74879847  0.25067319  0.19891492  1
  Se  Se254  1  0.75455837  0.23934864  0.68323476  1
  Se  Se255  1  0.76040511  0.57772790  0.19300166  1
  Se  Se256  1  0.76356533  0.57258283  0.69102962  1
  Se  Se257  1  0.75377367  0.91930553  0.19509950  1
  Se  Se258  1  0.74654576  0.92115678  0.69808042  1
