# generated using pymatgen
data_In86Cu29Se144
_symmetry_space_group_name_H-M   'P 1'
_cell_length_a   17.57893884
_cell_length_b   17.57737815
_cell_length_c   23.44567024
_cell_angle_alpha   90.00373206
_cell_angle_beta   89.99089944
_cell_angle_gamma   89.99288950
_symmetry_Int_Tables_number   1
_chemical_formula_structural   In86Cu29Se144
_chemical_formula_sum   'In86 Cu29 Se144'
_cell_volume   7244.51629848
_cell_formula_units_Z   1
loop_
 _symmetry_equiv_pos_site_id
 _symmetry_equiv_pos_as_xyz
  1  'x, y, z'
loop_
 _atom_site_type_symbol
 _atom_site_label
 _atom_site_symmetry_multiplicity
 _atom_site_fract_x
 _atom_site_fract_y
 _atom_site_fract_z
 _atom_site_occupancy
  In  In0  1  0.00623515  0.15098153  0.13290013  1
  In  In1  1  -0.00733252  0.16487682  0.61888944  1
  In  In2  1  -0.00974365  0.49351319  0.13275054  1
  In  In3  1  0.01409789  0.49295505  0.62263725  1
  In  In4  1  0.00376152  0.84115686  0.11855569  1
  In  In5  1  0.00068968  0.83624125  0.62768980  1
  In  In6  1  0.32713455  0.17067292  0.12956085  1
  In  In7  1  0.34021814  0.15331680  0.62832640  1
  In  In8  1  0.33919464  0.49664410  0.13315507  1
  In  In9  1  0.32212929  0.51435811  0.63735483  1
  In  In10  1  0.33043200  0.83583254  0.12500180  1
  In  In11  1  0.32075269  0.84460071  0.63357484  1
  In  In12  1  0.66210963  0.16500254  0.13130723  1
  In  In13  1  0.65866027  0.16002991  0.61793950  1
  In  In14  1  0.66000376  0.49942332  0.13105206  1
  In  In15  1  0.66156858  0.49270180  0.62324258  1
  In  In16  1  0.67969941  0.84234760  0.10895260  1
  In  In17  1  0.68577542  0.83927700  0.62315670  1
  In  In18  1  0.15779110  -0.01159035  0.37064783  1
  In  In19  1  0.16418568  -0.00037693  0.87188665  1
  In  In20  1  0.17517681  0.33610318  0.37094404  1
  In  In21  1  0.17247502  0.31801309  0.87747886  1
  In  In22  1  0.16617675  0.66819784  0.37995739  1
  In  In23  1  0.17786392  0.67885728  0.86863232  1
  In  In24  1  0.50719495  0.01242506  0.37073571  1
  In  In25  1  0.48893195  -0.00735072  0.87107090  1
  In  In26  1  0.49388948  0.32462183  0.37145244  1
  In  In27  1  0.48614451  0.33959117  0.87888006  1
  In  In28  1  0.49002780  0.67892640  0.37404133  1
  In  In29  1  0.50023391  0.68017466  0.87654973  1
  In  In30  1  0.83991616  0.00551095  0.37763610  1
  In  In31  1  0.82572875  -0.00940742  0.86631967  1
  In  In32  1  0.81874297  0.31866201  0.35768591  1
  In  In33  1  0.83495731  0.33177754  0.87736746  1
  In  In34  1  0.84830627  0.67177295  0.37481272  1
  In  In35  1  0.84571276  0.67393074  0.87146030  1
  In  In36  1  -0.01333216  0.14686784  0.36981732  1
  In  In37  1  0.02334361  0.16043948  0.87563683  1
  In  In38  1  0.01306716  0.50531454  0.37295701  1
  In  In39  1  -0.01418814  0.50580515  0.87202220  1
  In  In40  1  -0.01313803  0.85797809  0.39514656  1
  In  In41  1  0.00323125  0.83942625  0.87344380  1
  In  In42  1  0.33949289  0.17375005  0.37111500  1
  In  In43  1  0.31073647  0.14762153  0.85442504  1
  In  In44  1  0.32336964  0.49522461  0.37130230  1
  In  In45  1  0.33719929  0.49746307  0.86009770  1
  In  In46  1  0.32119002  0.82714751  0.36809613  1
  In  In47  1  0.33172299  0.83438664  0.87682188  1
  In  In48  1  0.66714268  0.16285138  0.37519309  1
  In  In49  1  0.68007619  0.16200415  0.87767919  1
  In  In50  1  0.67886840  0.48668916  0.36904677  1
  In  In51  1  0.66147366  0.50378086  0.87919571  1
  In  In52  1  0.67963544  0.85495956  0.36463005  1
  In  In53  1  0.65274349  0.83937842  0.88933199  1
  In  In54  1  0.16728600  0.00103304  0.12277833  1
  In  In55  1  0.17187948  -0.00337496  0.62851967  1
  In  In56  1  0.17753157  0.32100940  0.13245844  1
  In  In57  1  0.16110007  0.34184765  0.61858164  1
  In  In58  1  0.16137042  0.68794387  0.12232661  1
  In  In59  1  0.16567961  0.66848398  0.62838543  1
  In  In60  1  0.50694337  -0.01038891  0.13158762  1
  In  In61  1  0.49257132  0.00827258  0.62943582  1
  In  In62  1  0.50220246  0.32957996  0.13292152  1
  In  In63  1  0.50402104  0.32567859  0.62415109  1
  In  In64  1  0.49180942  0.66439861  0.12459798  1
  In  In65  1  0.48190000  0.66538006  0.63226137  1
  In  In66  1  0.83693431  -0.01792219  0.13770419  1
  In  In67  1  0.83632830  -0.00125829  0.62491648  1
  In  In68  1  0.82984422  0.33950262  0.14108777  1
  In  In69  1  0.84745983  0.32443882  0.61783972  1
  In  In70  1  0.82417692  0.68387322  0.12455251  1
  In  In71  1  0.83590806  0.68928286  0.62321995  1
  In  In72  1  0.50203493  0.50442239  0.00341161  1
  In  In73  1  0.84462861  0.49923103  0.49113396  1
  In  In74  1  0.49468895  0.16551076  0.00759969  1
  In  In75  1  0.66137812  0.67407988  0.75398358  1
  In  In76  1  0.00571937  0.66774838  0.25107513  1
  In  In77  1  0.65988991  0.32981648  0.74857811  1
  In  In78  1  0.16333764  0.15724246  0.50161985  1
  In  In79  1  0.83188113  0.50914631  0.01095468  1
  In  In80  1  0.66416984  0.66646913  0.24858855  1
  In  In81  1  0.16567323  0.50651357  0.00099117  1
  In  In82  1  0.49580906  0.49936129  0.50601641  1
  In  In83  1  0.83892059  0.16425000  0.00321914  1
  In  In84  1  0.50207871  0.83988544  0.49699807  1
  In  In85  1  0.00626008  0.32612118  0.74498460  1
  Cu  Cu86  1  0.67041895  0.32544147  0.49470288  1
  Cu  Cu87  1  0.15982361  0.50020522  0.74954384  1
  Cu  Cu88  1  0.16633306  0.16395719  0.25344483  1
  Cu  Cu89  1  0.82930685  0.15953590  0.25137218  1
  Cu  Cu90  1  0.32382979  0.66860667  0.50429164  1
  Cu  Cu91  1  0.82861114  0.50983021  0.74767751  1
  Cu  Cu92  1  0.83958291  0.84104319  0.74881796  1
  Cu  Cu93  1  0.33380642  0.33269544  0.49544894  1
  Cu  Cu94  1  0.49742774  0.49719096  0.25286897  1
  Cu  Cu95  1  0.00137218  0.32594802  0.49174250  1
  Cu  Cu96  1  0.49984010  0.83673812  0.75495872  1
  Cu  Cu97  1  0.33518155  0.00010976  0.50253008  1
  Cu  Cu98  1  0.66604547  0.67251783  0.49855372  1
  Cu  Cu99  1  0.17372201  0.50021190  0.25271191  1
  Cu  Cu100  1  0.00123995  0.67958904  -0.00405699  1
  Cu  Cu101  1  0.49176696  0.83323673  0.24906252  1
  Cu  Cu102  1  0.32937962  -0.00427099  -0.00514421  1
  Cu  Cu103  1  0.00159441  -0.00023488  0.00052230  1
  Cu  Cu104  1  0.83498891  0.15993642  0.74773228  1
  Cu  Cu105  1  0.16672595  0.83137656  0.75147399  1
  Cu  Cu106  1  0.32764152  0.32394046  -0.00103064  1
  Cu  Cu107  1  0.66655113  0.00127274  0.00157010  1
  Cu  Cu108  1  0.00776064  0.67026138  0.50339829  1
  Cu  Cu109  1  0.00318353  0.32788409  0.00705070  1
  Cu  Cu110  1  0.33381863  0.67342785  0.00062398  1
  Cu  Cu111  1  0.50286798  0.16439468  0.74726023  1
  Cu  Cu112  1  0.16547500  0.83696489  0.24825600  1
  Cu  Cu113  1  0.49925151  0.16483331  0.25100489  1
  Cu  Cu114  1  0.67401049  0.00443535  0.49577694  1
  Se  Se115  1  0.08380226  0.08532280  0.05261765  1
  Se  Se116  1  0.07268353  0.06555866  0.55727454  1
  Se  Se117  1  0.08199564  0.41328894  0.06353444  1
  Se  Se118  1  0.08047726  0.41463361  0.54317439  1
  Se  Se119  1  0.08737302  0.76264383  0.04619239  1
  Se  Se120  1  0.08716487  0.75393433  0.55899742  1
  Se  Se121  1  0.40638196  0.07051489  0.06270331  1
  Se  Se122  1  0.42148648  0.08460073  0.55046660  1
  Se  Se123  1  0.41006702  0.40502006  0.05733069  1
  Se  Se124  1  0.40413497  0.41186940  0.56446077  1
  Se  Se125  1  0.41709114  0.75317163  0.05607527  1
  Se  Se126  1  0.40901641  0.75171918  0.55814857  1
  Se  Se127  1  0.74741292  0.07712871  0.06326408  1
  Se  Se128  1  0.75458021  0.08532577  0.55530769  1
  Se  Se129  1  0.74380871  0.41002971  0.06197161  1
  Se  Se130  1  0.74887117  0.41062223  0.55362747  1
  Se  Se131  1  0.75386421  0.75027057  0.04390422  1
  Se  Se132  1  0.75309460  0.75591500  0.54670480  1
  Se  Se133  1  0.24505370  0.24231730  0.05306561  1
  Se  Se134  1  0.25557236  0.25109543  0.55811568  1
  Se  Se135  1  0.25900280  0.59031761  0.06323490  1
  Se  Se136  1  0.24532156  0.58118869  0.55752605  1
  Se  Se137  1  0.24729407  0.91509961  0.05339539  1
  Se  Se138  1  0.25043481  0.91731377  0.55337340  1
  Se  Se139  1  0.59143743  0.25814581  0.05782361  1
  Se  Se140  1  0.58254436  0.24994940  0.55004570  1
  Se  Se141  1  0.59666895  0.59484558  0.05805170  1
  Se  Se142  1  0.58733488  0.59789919  0.56076230  1
  Se  Se143  1  0.57789499  0.91783444  0.05066787  1
  Se  Se144  1  0.59228294  0.92642156  0.55912921  1
  Se  Se145  1  0.92015531  0.25504065  0.06869772  1
  Se  Se146  1  0.91646064  0.24317548  0.54287435  1
  Se  Se147  1  0.93131742  0.59917819  0.06310535  1
  Se  Se148  1  0.92201487  0.58882744  0.56118378  1
  Se  Se149  1  0.91272660  0.92167157  0.05343093  1
  Se  Se150  1  0.89830028  0.89560531  0.56113440  1
  Se  Se151  1  0.08279499  0.24560519  0.43323417  1
  Se  Se152  1  0.08568477  0.24886302  0.95112037  1
  Se  Se153  1  0.08539994  0.58276952  0.44942389  1
  Se  Se154  1  0.07528488  0.59190145  0.93761749  1
  Se  Se155  1  0.10046015  0.90957608  0.45237212  1
  Se  Se156  1  0.08578319  0.91862172  0.94504093  1
  Se  Se157  1  0.41910529  0.24753339  0.44788122  1
  Se  Se158  1  0.40430493  0.24205010  0.93852149  1
  Se  Se159  1  0.40860397  0.59125617  0.44476194  1
  Se  Se160  1  0.40570161  0.58515392  0.94077461  1
  Se  Se161  1  0.40980511  0.92243149  0.43493300  1
  Se  Se162  1  0.41858240  0.91293328  0.94752641  1
  Se  Se163  1  0.75609422  0.24611375  0.44164652  1
  Se  Se164  1  0.74475915  0.26031063  0.94901908  1
  Se  Se165  1  0.74409964  0.59017438  0.43824221  1
  Se  Se166  1  0.75039845  0.59222904  0.93954755  1
  Se  Se167  1  0.75512594  0.91736134  0.44591883  1
  Se  Se168  1  0.75161250  0.92077895  0.94633400  1
  Se  Se169  1  0.25685036  0.07735769  0.43715708  1
  Se  Se170  1  0.24976084  0.08283818  0.94205349  1
  Se  Se171  1  0.24809279  0.41746211  0.44719901  1
  Se  Se172  1  0.25711838  0.41674972  0.94184392  1
  Se  Se173  1  0.24811026  0.75467106  0.44769024  1
  Se  Se174  1  0.24747279  0.75347599  0.94799479  1
  Se  Se175  1  0.58303231  0.08543725  0.44826397  1
  Se  Se176  1  0.58536689  0.07997932  0.94195909  1
  Se  Se177  1  0.58867082  0.41362168  0.44257577  1
  Se  Se178  1  0.58986097  0.40612761  0.94595626  1
  Se  Se179  1  0.59385030  0.75280669  0.43439211  1
  Se  Se180  1  0.58536602  0.73975459  0.95205274  1
  Se  Se181  1  0.92266010  0.07801514  0.45245322  1
  Se  Se182  1  0.92194934  0.07744741  0.93642025  1
  Se  Se183  1  0.92202888  0.40414791  0.42836096  1
  Se  Se184  1  0.92304244  0.41161788  0.94953856  1
  Se  Se185  1  0.91860777  0.74875161  0.45137378  1
  Se  Se186  1  0.91521308  0.76038476  0.94378192  1
  Se  Se187  1  0.25259881  0.25036636  0.30131077  1
  Se  Se188  1  0.25658940  0.26253445  0.79932025  1
  Se  Se189  1  0.24862058  0.59015901  0.30677741  1
  Se  Se190  1  0.24599078  0.58272671  0.80137739  1
  Se  Se191  1  0.25115644  0.92063449  0.29983468  1
  Se  Se192  1  0.25077696  0.91458365  0.80558763  1
  Se  Se193  1  0.58413413  0.24732204  0.30569904  1
  Se  Se194  1  0.57694332  0.24078118  0.81523212  1
  Se  Se195  1  0.57579046  0.57730937  0.31492563  1
  Se  Se196  1  0.57223528  0.57712572  0.80864792  1
  Se  Se197  1  0.57553373  0.91606565  0.30260629  1
  Se  Se198  1  0.58651245  0.91590494  0.80848158  1
  Se  Se199  1  0.91945091  0.24169908  0.30031148  1
  Se  Se200  1  0.91328969  0.24124793  0.80962567  1
  Se  Se201  1  0.91091794  0.57318602  0.30480352  1
  Se  Se202  1  0.91727741  0.58961521  0.79730859  1
  Se  Se203  1  0.92122217  0.91856309  0.30967573  1
  Se  Se204  1  0.92491398  0.92417733  0.80137976  1
  Se  Se205  1  0.08213649  0.07733320  0.30225053  1
  Se  Se206  1  0.09350554  0.08765162  0.79875119  1
  Se  Se207  1  0.08787748  0.41781587  0.30353177  1
  Se  Se208  1  0.08438321  0.41957137  0.81377502  1
  Se  Se209  1  0.08502033  0.76202494  0.31324936  1
  Se  Se210  1  0.08042301  0.74947100  0.80439190  1
  Se  Se211  1  0.41331350  0.08238686  0.30254766  1
  Se  Se212  1  0.41827228  0.07901208  0.79878609  1
  Se  Se213  1  0.41345982  0.41468005  0.30696034  1
  Se  Se214  1  0.41458989  0.40513804  0.79845171  1
  Se  Se215  1  0.40835259  0.74698795  0.29890948  1
  Se  Se216  1  0.41501864  0.75210235  0.80508604  1
  Se  Se217  1  0.74740570  0.07668761  0.30696810  1
  Se  Se218  1  0.74656001  0.08218763  0.80062476  1
  Se  Se219  1  0.75210663  0.41676673  0.29182230  1
  Se  Se220  1  0.75498560  0.42456048  0.80746612  1
  Se  Se221  1  0.76083768  0.75385642  0.30522819  1
  Se  Se222  1  0.75377854  0.76410794  0.81027531  1
  Se  Se223  1  0.24782446  0.08197118  0.19553419  1
  Se  Se224  1  0.25548439  0.07735339  0.69649111  1
  Se  Se225  1  0.25356222  0.41374152  0.19814482  1
  Se  Se226  1  0.24011268  0.41590843  0.69406348  1
  Se  Se227  1  0.24884453  0.75096300  0.19654044  1
  Se  Se228  1  0.25162594  0.74684433  0.69877323  1
  Se  Se229  1  0.58273395  0.08003548  0.19903745  1
  Se  Se230  1  0.58843319  0.08148635  0.69571949  1
  Se  Se231  1  0.58297652  0.41533350  0.20062542  1
  Se  Se232  1  0.56972834  0.42742478  0.69580013  1
  Se  Se233  1  0.57704379  0.75729187  0.18849224  1
  Se  Se234  1  0.57693439  0.76282724  0.68627651  1
  Se  Se235  1  0.91490879  0.07624568  0.19956372  1
  Se  Se236  1  0.92130280  0.08252362  0.69373772  1
  Se  Se237  1  0.92592285  0.40835204  0.20607456  1
  Se  Se238  1  0.90875509  0.42237811  0.69156147  1
  Se  Se239  1  0.91610805  0.75966556  0.19233937  1
  Se  Se240  1  0.91975543  0.75072827  0.70017826  1
  Se  Se241  1  0.08331448  0.24567670  0.19710818  1
  Se  Se242  1  0.09466230  0.23742770  0.68497562  1
  Se  Se243  1  0.09607435  0.57800403  0.18743176  1
  Se  Se244  1  0.07821075  0.58283082  0.69490969  1
  Se  Se245  1  0.08250445  0.91850318  0.19242663  1
  Se  Se246  1  0.08579843  0.91611437  0.69705846  1
  Se  Se247  1  0.41539308  0.24886008  0.19778996  1
  Se  Se248  1  0.42053592  0.24622949  0.69283276  1
  Se  Se249  1  0.41806993  0.58441202  0.19993106  1
  Se  Se250  1  0.41735099  0.58056538  0.70537472  1
  Se  Se251  1  0.40969413  0.91923815  0.19656064  1
  Se  Se252  1  0.41789374  0.91745937  0.69679045  1
  Se  Se253  1  0.74618996  0.24574845  0.19985847  1
  Se  Se254  1  0.75762707  0.24639901  0.68919741  1
  Se  Se255  1  0.76193870  0.57880635  0.19123331  1
  Se  Se256  1  0.74845366  0.58497078  0.68565834  1
  Se  Se257  1  0.73429834  0.91138769  0.19592852  1
  Se  Se258  1  0.75038589  0.92262226  0.69943009  1
