# generated using pymatgen
data_In86Cu29Se144
_symmetry_space_group_name_H-M   'P 1'
_cell_length_a   17.56875230
_cell_length_b   17.56919433
_cell_length_c   23.42026812
_cell_angle_alpha   89.99320007
_cell_angle_beta   89.96464765
_cell_angle_gamma   90.00414144
_symmetry_Int_Tables_number   1
_chemical_formula_structural   In86Cu29Se144
_chemical_formula_sum   'In86 Cu29 Se144'
_cell_volume   7229.10515706
_cell_formula_units_Z   1
loop_
 _symmetry_equiv_pos_site_id
 _symmetry_equiv_pos_as_xyz
  1  'x, y, z'
loop_
 _atom_site_type_symbol
 _atom_site_label
 _atom_site_symmetry_multiplicity
 _atom_site_fract_x
 _atom_site_fract_y
 _atom_site_fract_z
 _atom_site_occupancy
  In  In0  1  -0.01853323  0.17672049  0.14217610  1
  In  In1  1  0.00842019  0.15006710  0.61693849  1
  In  In2  1  -0.02215733  0.51007747  0.15579162  1
  In  In3  1  0.01095755  0.51641454  0.59553896  1
  In  In4  1  -0.00204808  0.83864102  0.12979332  1
  In  In5  1  -0.00325199  0.83389725  0.60052064  1
  In  In6  1  0.34258451  0.16838749  0.12204675  1
  In  In7  1  0.31544419  0.15595923  0.62839630  1
  In  In8  1  0.32701907  0.48948200  0.12677697  1
  In  In9  1  0.34399166  0.50670598  0.61903938  1
  In  In10  1  0.32944449  0.84451383  0.12472735  1
  In  In11  1  0.33497478  0.83010529  0.62466433  1
  In  In12  1  0.65770880  0.15721095  0.12139997  1
  In  In13  1  0.66723804  0.16764585  0.63552449  1
  In  In14  1  0.66823986  0.51525711  0.13031098  1
  In  In15  1  0.66265200  0.50010882  0.61714714  1
  In  In16  1  0.67472278  0.81695219  0.13656522  1
  In  In17  1  0.67588402  0.84683179  0.61972422  1
  In  In18  1  0.14961422  0.00750374  0.39459061  1
  In  In19  1  0.15715274  -0.01452379  0.86996107  1
  In  In20  1  0.16624310  0.33311669  0.37624715  1
  In  In21  1  0.17787199  0.32949031  0.87155897  1
  In  In22  1  0.14077591  0.68538806  0.39646847  1
  In  In23  1  0.17888448  0.66978653  0.86901763  1
  In  In24  1  0.50568033  -0.01355444  0.37415725  1
  In  In25  1  0.51072174  0.00890686  0.86961442  1
  In  In26  1  0.50145778  0.35179351  0.37296299  1
  In  In27  1  0.50858729  0.31972074  0.88373400  1
  In  In28  1  0.50566963  0.66948986  0.37684547  1
  In  In29  1  0.48948988  0.67304376  0.87544922  1
  In  In30  1  0.82406616  -0.00291655  0.36514755  1
  In  In31  1  0.83389910  0.00466278  0.88288006  1
  In  In32  1  0.85233706  0.33435889  0.36289160  1
  In  In33  1  0.81877449  0.33503263  0.87612452  1
  In  In34  1  0.84220937  0.66777968  0.37733425  1
  In  In35  1  0.84330868  0.67368901  0.87484319  1
  In  In36  1  0.00372216  0.17175963  0.36261963  1
  In  In37  1  -0.00255256  0.15498317  0.88016218  1
  In  In38  1  -0.00243931  0.50603228  0.37710901  1
  In  In39  1  -0.00164916  0.50088534  0.87363954  1
  In  In40  1  -0.00565096  0.83253950  0.37846984  1
  In  In41  1  -0.00211977  0.84164700  0.88515658  1
  In  In42  1  0.31770619  0.16560799  0.37466927  1
  In  In43  1  0.34615415  0.17038781  0.87014627  1
  In  In44  1  0.33533296  0.49728637  0.37903109  1
  In  In45  1  0.33818594  0.51460366  0.87211735  1
  In  In46  1  0.33289849  0.83165041  0.38400039  1
  In  In47  1  0.32775175  0.82701337  0.86677124  1
  In  In48  1  0.68308263  0.15597312  0.36606370  1
  In  In49  1  0.66656962  0.16345006  0.87958067  1
  In  In50  1  0.65799547  0.51274899  0.37812419  1
  In  In51  1  0.66808293  0.48276088  0.87528829  1
  In  In52  1  0.67213300  0.83683432  0.37348522  1
  In  In53  1  0.67275593  0.84539834  0.87252715  1
  In  In54  1  0.16214935  -0.01416989  0.12364034  1
  In  In55  1  0.16912182  0.00400766  0.61314212  1
  In  In56  1  0.15765244  0.33886591  0.13721454  1
  In  In57  1  0.16228090  0.32419268  0.61450382  1
  In  In58  1  0.15228303  0.66896482  0.13143113  1
  In  In59  1  0.17348525  0.67709487  0.61167948  1
  In  In60  1  0.49387965  0.00740429  0.12508537  1
  In  In61  1  0.51065411  -0.01023633  0.63315633  1
  In  In62  1  0.49285408  0.32701506  0.12161517  1
  In  In63  1  0.50317890  0.34613258  0.62560586  1
  In  In64  1  0.51816609  0.66731258  0.12635382  1
  In  In65  1  0.49286163  0.65854527  0.62082741  1
  In  In66  1  0.83387576  -0.00098375  0.12781146  1
  In  In67  1  0.82638537  -0.01537179  0.62569354  1
  In  In68  1  0.84370645  0.33768776  0.13154790  1
  In  In69  1  0.82263536  0.33621397  0.62322965  1
  In  In70  1  0.82536243  0.67466416  0.13653962  1
  In  In71  1  0.84201098  0.67539262  0.60634435  1
  In  In72  1  -0.00556781  0.33179784  0.73424372  1
  In  In73  1  0.49887348  0.16917900  0.50586936  1
  In  In74  1  0.33020215  -0.00158834  0.24779536  1
  In  In75  1  0.33183614  0.66459566  0.26414812  1
  In  In76  1  0.66472914  0.33211848  0.25027940  1
  In  In77  1  0.15984693  0.50503916  0.00434168  1
  In  In78  1  0.16743589  0.16266671  -0.00219176  1
  In  In79  1  0.83978408  0.16851764  0.49316849  1
  In  In80  1  0.34049121  0.32809605  0.74903463  1
  In  In81  1  0.82906983  0.50099502  0.01214128  1
  In  In82  1  0.66568551  0.67095413  0.74846846  1
  In  In83  1  0.50417555  0.83447967  -0.00013735  1
  In  In84  1  0.00251789  0.67457083  0.72860348  1
  In  In85  1  0.00003736  -0.00351648  0.74345678  1
  Cu  Cu86  1  0.83724397  0.83146179  0.25406163  1
  Cu  Cu87  1  0.65981104  0.32417346  0.00073924  1
  Cu  Cu88  1  0.16600269  0.82833451  0.74426893  1
  Cu  Cu89  1  0.50408084  0.16252891  0.75284375  1
  Cu  Cu90  1  0.49526408  0.16938114  0.24572375  1
  Cu  Cu91  1  -0.00429300  0.00138812  0.00715217  1
  Cu  Cu92  1  0.50489621  0.49795490  0.74504616  1
  Cu  Cu93  1  0.16285335  0.49918542  0.26102293  1
  Cu  Cu94  1  0.67022412  -0.00218534  0.00176598  1
  Cu  Cu95  1  0.33452075  -0.00821137  0.50099202  1
  Cu  Cu96  1  0.82813876  0.16837342  0.75608723  1
  Cu  Cu97  1  0.33299324  0.67194352  -0.00516172  1
  Cu  Cu98  1  0.33380576  -0.00218584  -0.00209644  1
  Cu  Cu99  1  0.33451103  0.33212981  0.50166250  1
  Cu  Cu100  1  0.00306774  0.32963810  0.49014468  1
  Cu  Cu101  1  0.83274885  0.50278229  0.74231172  1
  Cu  Cu102  1  0.33695420  0.33581329  0.00211508  1
  Cu  Cu103  1  0.49351616  0.50413094  0.25409547  1
  Cu  Cu104  1  0.16417100  0.16794987  0.25379433  1
  Cu  Cu105  1  0.67416894  0.66526825  0.00599494  1
  Cu  Cu106  1  0.17254834  0.49301529  0.74551991  1
  Cu  Cu107  1  0.66508612  0.67522968  0.49703355  1
  Cu  Cu108  1  -0.00065741  0.67972897  0.00672241  1
  Cu  Cu109  1  -0.00039110  0.33403150  0.01093752  1
  Cu  Cu110  1  0.33787401  0.66319219  0.49869856  1
  Cu  Cu111  1  0.16324316  0.83262761  0.25968413  1
  Cu  Cu112  1  0.67159486  0.34382992  0.49424831  1
  Cu  Cu113  1  0.66978958  -0.00194083  0.49793902  1
  Cu  Cu114  1  0.49377180  0.83090525  0.74870718  1
  Se  Se115  1  0.07697944  0.08527358  0.06482371  1
  Se  Se116  1  0.08343282  0.07745504  0.54170750  1
  Se  Se117  1  0.06878696  0.42385250  0.06943852  1
  Se  Se118  1  0.08894856  0.41112281  0.54420514  1
  Se  Se119  1  0.08692081  0.75824529  0.05910620  1
  Se  Se120  1  0.06017976  0.72102067  0.54954367  1
  Se  Se121  1  0.41536658  0.08312905  0.04966039  1
  Se  Se122  1  0.41280644  0.07379464  0.56310476  1
  Se  Se123  1  0.41696224  0.42142038  0.05535826  1
  Se  Se124  1  0.42118575  0.41645638  0.55114117  1
  Se  Se125  1  0.41268034  0.74520638  0.06138601  1
  Se  Se126  1  0.41852969  0.74964972  0.55343776  1
  Se  Se127  1  0.75169735  0.08169105  0.05661114  1
  Se  Se128  1  0.74444371  0.08587996  0.55765369  1
  Se  Se129  1  0.73667874  0.40510083  0.06436780  1
  Se  Se130  1  0.75491630  0.42341379  0.55016838  1
  Se  Se131  1  0.75500788  0.75096538  0.05700581  1
  Se  Se132  1  0.74941208  0.76069549  0.54839296  1
  Se  Se133  1  0.24751618  0.26158110  0.06027824  1
  Se  Se134  1  0.25387218  0.24296419  0.55161322  1
  Se  Se135  1  0.25416614  0.59537558  0.06126460  1
  Se  Se136  1  0.25268454  0.57974328  0.55142177  1
  Se  Se137  1  0.24876882  0.91576463  0.04948120  1
  Se  Se138  1  0.24991116  0.90834475  0.55348943  1
  Se  Se139  1  0.57464183  0.24247476  0.05415758  1
  Se  Se140  1  0.59778754  0.26029944  0.55763666  1
  Se  Se141  1  0.58563086  0.58125524  0.05173877  1
  Se  Se142  1  0.58356431  0.58752664  0.55050199  1
  Se  Se143  1  0.59123525  0.91871531  0.06473307  1
  Se  Se144  1  0.58183543  0.91940665  0.55155433  1
  Se  Se145  1  0.91368869  0.24918815  0.05891977  1
  Se  Se146  1  0.92628124  0.25714222  0.56027494  1
  Se  Se147  1  0.92628970  0.58999967  0.06520573  1
  Se  Se148  1  0.90093324  0.57502018  0.54013846  1
  Se  Se149  1  0.91330934  0.91300421  0.05646118  1
  Se  Se150  1  0.92786479  0.94669190  0.55313845  1
  Se  Se151  1  0.08421653  0.24140084  0.44071047  1
  Se  Se152  1  0.07734271  0.26252130  0.94203391  1
  Se  Se153  1  0.09225483  0.56683368  0.44963696  1
  Se  Se154  1  0.07323613  0.59796182  0.94095104  1
  Se  Se155  1  0.10038355  0.88925602  0.44568298  1
  Se  Se156  1  0.08357943  0.92175612  0.95293299  1
  Se  Se157  1  0.41445409  0.25502193  0.43815858  1
  Se  Se158  1  0.41393364  0.24599748  0.94980142  1
  Se  Se159  1  0.42165093  0.58323438  0.44288612  1
  Se  Se160  1  0.41895220  0.58501182  0.94832222  1
  Se  Se161  1  0.42264236  0.91475679  0.44806538  1
  Se  Se162  1  0.41390370  0.91872247  0.93585563  1
  Se  Se163  1  0.74588634  0.25934079  0.43487080  1
  Se  Se164  1  0.75093033  0.24805745  0.94853362  1
  Se  Se165  1  0.74711157  0.59003284  0.44453477  1
  Se  Se166  1  0.74856766  0.58646711  0.93851566  1
  Se  Se167  1  0.75606993  0.91862942  0.44484947  1
  Se  Se168  1  0.75354569  0.91396378  0.94916980  1
  Se  Se169  1  0.25398292  0.08179519  0.45144976  1
  Se  Se170  1  0.25543117  0.07606686  0.93395773  1
  Se  Se171  1  0.25118213  0.41341305  0.44627222  1
  Se  Se172  1  0.25545316  0.41678608  0.94300985  1
  Se  Se173  1  0.25111764  0.75022277  0.45296506  1
  Se  Se174  1  0.24732058  0.75391685  0.94400390  1
  Se  Se175  1  0.59142811  0.08531118  0.44189535  1
  Se  Se176  1  0.58326589  0.08019764  0.94946361  1
  Se  Se177  1  0.57946272  0.42481035  0.44815109  1
  Se  Se178  1  0.58182177  0.41554451  0.94944021  1
  Se  Se179  1  0.58265505  0.75947976  0.44379822  1
  Se  Se180  1  0.59582852  0.74289417  0.93997077  1
  Se  Se181  1  0.92181839  0.07786308  0.43159753  1
  Se  Se182  1  0.91407322  0.08758771  0.95454779  1
  Se  Se183  1  0.91524917  0.41292161  0.44315550  1
  Se  Se184  1  0.92088828  0.41384435  0.94608619  1
  Se  Se185  1  0.91544700  0.75139874  0.45067389  1
  Se  Se186  1  0.91308627  0.75504568  0.94998279  1
  Se  Se187  1  0.24980435  0.25326285  0.30249653  1
  Se  Se188  1  0.24232188  0.23511282  0.80042905  1
  Se  Se189  1  0.23437805  0.58459946  0.32279348  1
  Se  Se190  1  0.25036122  0.58104401  0.79842869  1
  Se  Se191  1  0.24451324  0.91608824  0.31566072  1
  Se  Se192  1  0.24537624  0.91318740  0.80001283  1
  Se  Se193  1  0.57423079  0.24208029  0.31283877  1
  Se  Se194  1  0.58588498  0.24740210  0.80716593  1
  Se  Se195  1  0.58041826  0.58801769  0.30133856  1
  Se  Se196  1  0.58003796  0.57777030  0.81110264  1
  Se  Se197  1  0.60052221  0.93012878  0.30408682  1
  Se  Se198  1  0.57897663  0.91093708  0.80329548  1
  Se  Se199  1  0.89618627  0.22520264  0.29839034  1
  Se  Se200  1  0.91539988  0.24838432  0.81079447  1
  Se  Se201  1  0.91477015  0.58111023  0.30455342  1
  Se  Se202  1  0.91652926  0.58216570  0.79922154  1
  Se  Se203  1  0.92074388  0.91658871  0.30473703  1
  Se  Se204  1  0.91231638  0.91281842  0.80928649  1
  Se  Se205  1  0.09069498  0.07535075  0.30619473  1
  Se  Se206  1  0.08710919  0.09020424  0.80529002  1
  Se  Se207  1  0.07723092  0.41303550  0.30986718  1
  Se  Se208  1  0.08839067  0.41812923  0.80495087  1
  Se  Se209  1  0.07793137  0.74639775  0.30793349  1
  Se  Se210  1  0.08092552  0.75475636  0.80687618  1
  Se  Se211  1  0.41993755  0.08784576  0.31114295  1
  Se  Se212  1  0.41602730  0.07895885  0.80105055  1
  Se  Se213  1  0.40942288  0.41732599  0.30150585  1
  Se  Se214  1  0.42716501  0.41923240  0.81101207  1
  Se  Se215  1  0.42475997  0.76437200  0.30872851  1
  Se  Se216  1  0.41151737  0.74324493  0.79866920  1
  Se  Se217  1  0.75770354  0.08498359  0.29011050  1
  Se  Se218  1  0.75104637  0.08136414  0.81059760  1
  Se  Se219  1  0.74747197  0.42221561  0.31308654  1
  Se  Se220  1  0.75459174  0.41924394  0.79882905  1
  Se  Se221  1  0.75420338  0.74821925  0.30803302  1
  Se  Se222  1  0.76189478  0.75834622  0.80463245  1
  Se  Se223  1  0.24109775  0.09120283  0.18684312  1
  Se  Se224  1  0.24322364  0.06756757  0.69596528  1
  Se  Se225  1  0.24550310  0.42051424  0.20278494  1
  Se  Se226  1  0.24953053  0.41233693  0.68469025  1
  Se  Se227  1  0.24690932  0.75718590  0.19718516  1
  Se  Se228  1  0.24999649  0.74369245  0.69245836  1
  Se  Se229  1  0.57791371  0.08217372  0.19718106  1
  Se  Se230  1  0.58865961  0.07870257  0.70071735  1
  Se  Se231  1  0.57261761  0.42419671  0.19086374  1
  Se  Se232  1  0.59304049  0.41737930  0.69553718  1
  Se  Se233  1  0.58330236  0.74416090  0.20393356  1
  Se  Se234  1  0.57657188  0.75655703  0.68553821  1
  Se  Se235  1  0.93564221  0.05859653  0.19570953  1
  Se  Se236  1  0.90598615  0.09323223  0.68985517  1
  Se  Se237  1  0.91586265  0.40316668  0.21302632  1
  Se  Se238  1  0.91770029  0.43453668  0.67749313  1
  Se  Se239  1  0.92205162  0.74934812  0.19906364  1
  Se  Se240  1  0.90680780  0.76962416  0.68217567  1
  Se  Se241  1  0.07797602  0.25295011  0.20414175  1
  Se  Se242  1  0.09107418  0.23487997  0.69051893  1
  Se  Se243  1  0.08410025  0.58647961  0.20685980  1
  Se  Se244  1  0.09348395  0.57239732  0.68303079  1
  Se  Se245  1  0.08475174  0.91644899  0.20158807  1
  Se  Se246  1  0.08443002  0.90320964  0.68192073  1
  Se  Se247  1  0.41001882  0.25389272  0.19705187  1
  Se  Se248  1  0.42757679  0.23807999  0.68529191  1
  Se  Se249  1  0.41464900  0.58316764  0.19011449  1
  Se  Se250  1  0.41701246  0.58146512  0.69794930  1
  Se  Se251  1  0.42739817  0.90633515  0.19535084  1
  Se  Se252  1  0.41211240  0.91683771  0.69590580  1
  Se  Se253  1  0.74881937  0.24355554  0.18712884  1
  Se  Se254  1  0.75170040  0.25519806  0.69955037  1
  Se  Se255  1  0.76860203  0.56698446  0.19854089  1
  Se  Se256  1  0.75696884  0.58842206  0.68335099  1
  Se  Se257  1  0.75339393  0.91175282  0.19714558  1
  Se  Se258  1  0.73909997  0.92394967  0.70076750  1
