# generated using pymatgen
data_In86Cu29Se144
_symmetry_space_group_name_H-M   'P 1'
_cell_length_a   17.57798625
_cell_length_b   17.57725589
_cell_length_c   23.43823709
_cell_angle_alpha   89.99185106
_cell_angle_beta   89.99061390
_cell_angle_gamma   90.00147125
_symmetry_Int_Tables_number   1
_chemical_formula_structural   In86Cu29Se144
_chemical_formula_sum   'In86 Cu29 Se144'
_cell_volume   7241.77668353
_cell_formula_units_Z   1
loop_
 _symmetry_equiv_pos_site_id
 _symmetry_equiv_pos_as_xyz
  1  'x, y, z'
loop_
 _atom_site_type_symbol
 _atom_site_label
 _atom_site_symmetry_multiplicity
 _atom_site_fract_x
 _atom_site_fract_y
 _atom_site_fract_z
 _atom_site_occupancy
  In  In0  1  0.00072580  0.16643646  0.12746764  1
  In  In1  1  0.00924171  0.16400105  0.62036508  1
  In  In2  1  -0.00971286  0.50452798  0.12714481  1
  In  In3  1  0.00770353  0.48350067  0.63319998  1
  In  In4  1  0.01278771  0.83242939  0.12828872  1
  In  In5  1  0.00063335  0.83382945  0.63047446  1
  In  In6  1  0.33149246  0.16617772  0.12744228  1
  In  In7  1  0.32263208  0.17271799  0.62953723  1
  In  In8  1  0.34409265  0.48894733  0.13669322  1
  In  In9  1  0.31729850  0.49989574  0.62060076  1
  In  In10  1  0.31909541  0.84247335  0.12966126  1
  In  In11  1  0.34053169  0.83837883  0.62835240  1
  In  In12  1  0.68000300  0.15682905  0.13319254  1
  In  In13  1  0.67378390  0.16354527  0.61198480  1
  In  In14  1  0.67119702  0.49132019  0.13170807  1
  In  In15  1  0.67014173  0.50131801  0.61934416  1
  In  In16  1  0.66114193  0.84348707  0.13138698  1
  In  In17  1  0.66203966  0.83351265  0.61914152  1
  In  In18  1  0.16966890  0.01223486  0.37582678  1
  In  In19  1  0.16822477  0.00660413  0.88129274  1
  In  In20  1  0.16469711  0.33150930  0.37111608  1
  In  In21  1  0.15436058  0.32288720  0.87225912  1
  In  In22  1  0.15174498  0.65672276  0.36636181  1
  In  In23  1  0.16803786  0.68000223  0.87918126  1
  In  In24  1  0.49462561  -0.00193568  0.36702629  1
  In  In25  1  0.49106755  0.01384632  0.87931284  1
  In  In26  1  0.50223690  0.33376991  0.36209754  1
  In  In27  1  0.49720260  0.34225242  0.88010142  1
  In  In28  1  0.49264083  0.65457164  0.35091563  1
  In  In29  1  0.48693960  0.65993528  0.88623148  1
  In  In30  1  0.83797724  0.00922114  0.37017579  1
  In  In31  1  0.84856423  -0.00292874  0.87725666  1
  In  In32  1  0.82618011  0.31124915  0.37236311  1
  In  In33  1  0.84389706  0.32517907  0.88687953  1
  In  In34  1  0.83346653  0.66806557  0.36196066  1
  In  In35  1  0.83506362  0.65611813  0.88209055  1
  In  In36  1  -0.00065238  0.16255059  0.37700448  1
  In  In37  1  0.00086784  0.16748409  0.87888976  1
  In  In38  1  0.00525341  0.50239873  0.36980099  1
  In  In39  1  -0.00553444  0.49010911  0.87444704  1
  In  In40  1  0.00004431  0.83653376  0.36737439  1
  In  In41  1  0.01334856  0.85096543  0.86797553  1
  In  In42  1  0.31555546  0.15426819  0.36855417  1
  In  In43  1  0.31550222  0.15340897  0.86724598  1
  In  In44  1  0.32158567  0.48667906  0.35853505  1
  In  In45  1  0.34338657  0.50187130  0.88309745  1
  In  In46  1  0.33777956  0.84364830  0.37023820  1
  In  In47  1  0.31638306  0.83535296  0.88572111  1
  In  In48  1  0.67525612  0.17174765  0.37075126  1
  In  In49  1  0.66822090  0.17671523  0.88015819  1
  In  In50  1  0.65731113  0.48877756  0.35428622  1
  In  In51  1  0.66686552  0.49917461  0.89111313  1
  In  In52  1  0.66687860  0.83361641  0.35954212  1
  In  In53  1  0.66779646  0.83609698  0.88013222  1
  In  In54  1  0.16960487  -0.00094864  0.12477253  1
  In  In55  1  0.15967417  0.01169638  0.62700396  1
  In  In56  1  0.17565529  0.31969399  0.13121930  1
  In  In57  1  0.16784911  0.33254877  0.62277593  1
  In  In58  1  0.15756127  0.67765608  0.13145665  1
  In  In59  1  0.16510270  0.65101025  0.62366658  1
  In  In60  1  0.49808949  0.00033563  0.12964727  1
  In  In61  1  0.50054171  -0.00593279  0.62369960  1
  In  In62  1  0.49491193  0.34504682  0.13856517  1
  In  In63  1  0.48946071  0.32066548  0.62298862  1
  In  In64  1  0.51069808  0.64659395  0.14214761  1
  In  In65  1  0.50379028  0.67175761  0.62185643  1
  In  In66  1  0.82594207  0.01700886  0.12878506  1
  In  In67  1  0.84495127  0.01833645  0.61309104  1
  In  In68  1  0.83518125  0.32911931  0.12856622  1
  In  In69  1  0.84802775  0.33366325  0.62111766  1
  In  In70  1  0.84506751  0.65987398  0.12854117  1
  In  In71  1  0.83806082  0.68064170  0.62197176  1
  In  In72  1  0.49967343  0.16895667  0.49187654  1
  In  In73  1  0.50158134  0.83850798  0.49071939  1
  In  In74  1  0.83752852  0.83746872  0.00296930  1
  In  In75  1  0.66920885  0.33562353  0.75083350  1
  In  In76  1  0.83876293  0.49362582  0.49533950  1
  In  In77  1  0.49976758  0.17146816  0.01136647  1
  In  In78  1  0.67452237  0.00366674  0.73851424  1
  In  In79  1  0.32711625  0.66445309  0.75737576  1
  In  In80  1  0.49818610  0.82888142  0.01564526  1
  In  In81  1  0.83470751  0.83890516  0.48988844  1
  In  In82  1  0.16798427  0.49630466  0.00522434  1
  In  In83  1  0.67308216  0.66364052  0.76014119  1
  In  In84  1  0.49385546  0.49325056  0.47437511  1
  In  In85  1  0.16696445  0.84584980  0.49940657  1
  Cu  Cu86  1  0.16226509  0.16788731  0.74989385  1
  Cu  Cu87  1  0.66436025  0.66111426  0.01331069  1
  Cu  Cu88  1  0.67063207  0.33757125  0.00853381  1
  Cu  Cu89  1  0.33685057  0.65936502  0.01179137  1
  Cu  Cu90  1  0.83516540  0.83633592  0.24185632  1
  Cu  Cu91  1  0.00915627  0.32589491  0.50005826  1
  Cu  Cu92  1  0.49865975  0.16566129  0.24850890  1
  Cu  Cu93  1  0.00402629  0.00877903  0.00140342  1
  Cu  Cu94  1  0.49675067  0.84490979  0.75511965  1
  Cu  Cu95  1  0.16223953  0.49300634  0.74781220  1
  Cu  Cu96  1  0.16509566  0.83903293  0.25472039  1
  Cu  Cu97  1  0.84833409  0.83636284  0.74673111  1
  Cu  Cu98  1  0.32745988  0.33731181  0.49254618  1
  Cu  Cu99  1  0.66173492  0.65700756  0.48409018  1
  Cu  Cu100  1  0.33568980  0.32957748  0.00571322  1
  Cu  Cu101  1  0.16240399  0.49860663  0.24309431  1
  Cu  Cu102  1  0.83916083  0.49511366  0.25000020  1
  Cu  Cu103  1  0.16284410  0.16578500  0.24975176  1
  Cu  Cu104  1  0.49073072  0.49528552  0.75237070  1
  Cu  Cu105  1  0.49356515  0.83211213  0.24495236  1
  Cu  Cu106  1  0.16683702  0.83867136  0.75411579  1
  Cu  Cu107  1  0.32008437  0.66980307  0.49250158  1
  Cu  Cu108  1  0.48571467  0.16716311  0.74883456  1
  Cu  Cu109  1  0.84201254  0.16631816  0.75040056  1
  Cu  Cu110  1  0.00121814  0.66929387  0.00349902  1
  Cu  Cu111  1  -0.00514785  0.33111240  0.00343409  1
  Cu  Cu112  1  0.83977071  0.16709481  0.25155848  1
  Cu  Cu113  1  0.84067213  0.49920828  0.75618536  1
  Cu  Cu114  1  0.00472241  0.65731450  0.49855027  1
  Se  Se115  1  0.08735049  0.08790764  0.05770690  1
  Se  Se116  1  0.09212850  0.08646299  0.54844284  1
  Se  Se117  1  0.07881570  0.40689401  0.06481205  1
  Se  Se118  1  0.08401844  0.41711089  0.55350400  1
  Se  Se119  1  0.08658519  0.75347377  0.05165313  1
  Se  Se120  1  0.08035325  0.74415722  0.55709337  1
  Se  Se121  1  0.40650733  0.07135862  0.05674931  1
  Se  Se122  1  0.41574222  0.08618622  0.56243453  1
  Se  Se123  1  0.41734609  0.41359328  0.05826795  1
  Se  Se124  1  0.41286549  0.41521530  0.55262686  1
  Se  Se125  1  0.41334922  0.73730406  0.07562025  1
  Se  Se126  1  0.40726723  0.74392340  0.55121186  1
  Se  Se127  1  0.75195722  0.09044077  0.05138045  1
  Se  Se128  1  0.74557786  0.07446393  0.54542126  1
  Se  Se129  1  0.75804239  0.41901079  0.05877688  1
  Se  Se130  1  0.74443368  0.40532879  0.55523440  1
  Se  Se131  1  0.74535569  0.74924494  0.06500908  1
  Se  Se132  1  0.73827061  0.74026480  0.54694822  1
  Se  Se133  1  0.25033613  0.24495620  0.05377249  1
  Se  Se134  1  0.25309844  0.25340890  0.55225934  1
  Se  Se135  1  0.25234532  0.58207997  0.07136836  1
  Se  Se136  1  0.24477507  0.58088323  0.54619822  1
  Se  Se137  1  0.23915096  0.90857573  0.05264565  1
  Se  Se138  1  0.26023158  0.92681446  0.56201720  1
  Se  Se139  1  0.59024687  0.25892555  0.07132370  1
  Se  Se140  1  0.58928483  0.26279958  0.55258072  1
  Se  Se141  1  0.58324313  0.57412707  0.06254118  1
  Se  Se142  1  0.58046432  0.58307027  0.54778471  1
  Se  Se143  1  0.59343690  0.93132732  0.05530903  1
  Se  Se144  1  0.59569476  0.92974607  0.54930211  1
  Se  Se145  1  0.91411875  0.24541677  0.05689852  1
  Se  Se146  1  0.92100941  0.24652784  0.55228395  1
  Se  Se147  1  0.91643555  0.58295605  0.05010955  1
  Se  Se148  1  0.92150851  0.58443707  0.56167217  1
  Se  Se149  1  0.92473320  0.92725143  0.06361180  1
  Se  Se150  1  0.92867050  0.91910970  0.55301802  1
  Se  Se151  1  0.08955458  0.24536905  0.44258541  1
  Se  Se152  1  0.08108357  0.25063195  0.95100310  1
  Se  Se153  1  0.08711735  0.57519163  0.44577794  1
  Se  Se154  1  0.08013103  0.58642308  0.94211201  1
  Se  Se155  1  0.07120011  0.92671217  0.43960603  1
  Se  Se156  1  0.08361017  0.92032176  0.94889170  1
  Se  Se157  1  0.40792526  0.25821364  0.43201775  1
  Se  Se158  1  0.41034355  0.24907751  0.94076753  1
  Se  Se159  1  0.40062049  0.59310293  0.42944494  1
  Se  Se160  1  0.42027467  0.57476311  0.96076207  1
  Se  Se161  1  0.40398475  0.93425407  0.44671791  1
  Se  Se162  1  0.41611442  0.91602462  0.94552600  1
  Se  Se163  1  0.75303086  0.23903935  0.45043878  1
  Se  Se164  1  0.74910687  0.25181325  0.95246997  1
  Se  Se165  1  0.74804681  0.57915342  0.43018182  1
  Se  Se166  1  0.75055899  0.58535490  0.95506444  1
  Se  Se167  1  0.73870381  0.92160923  0.43333165  1
  Se  Se168  1  0.74445502  0.92919390  0.94478790  1
  Se  Se169  1  0.24786526  0.08698521  0.45157017  1
  Se  Se170  1  0.25321381  0.08519984  0.95056752  1
  Se  Se171  1  0.24521789  0.42139572  0.43968232  1
  Se  Se172  1  0.25390182  0.40639371  0.94212149  1
  Se  Se173  1  0.24440709  0.75170052  0.43216106  1
  Se  Se174  1  0.25491085  0.73950945  0.95609095  1
  Se  Se175  1  0.58712082  0.07630886  0.43437238  1
  Se  Se176  1  0.58981826  0.08163176  0.94591623  1
  Se  Se177  1  0.59878425  0.40152774  0.43643648  1
  Se  Se178  1  0.58146912  0.41319088  0.95378150  1
  Se  Se179  1  0.58117604  0.74131905  0.42890625  1
  Se  Se180  1  0.59003532  0.74053656  0.94747457  1
  Se  Se181  1  0.90440475  0.09317629  0.44549880  1
  Se  Se182  1  0.91485870  0.08639513  0.94909386  1
  Se  Se183  1  0.92700140  0.40258179  0.43686049  1
  Se  Se184  1  0.91555549  0.42123474  0.95273974  1
  Se  Se185  1  0.92476860  0.73746397  0.43933786  1
  Se  Se186  1  0.92709100  0.75155840  0.93823367  1
  Se  Se187  1  0.24911814  0.25061335  0.30066597  1
  Se  Se188  1  0.24641382  0.25223914  0.80317167  1
  Se  Se189  1  0.24359324  0.58393088  0.29815441  1
  Se  Se190  1  0.23780083  0.57081921  0.81546119  1
  Se  Se191  1  0.24773950  0.92406278  0.30677761  1
  Se  Se192  1  0.24866533  0.91772646  0.81044565  1
  Se  Se193  1  0.58671037  0.24600500  0.29993714  1
  Se  Se194  1  0.57191239  0.24439658  0.80722930  1
  Se  Se195  1  0.60128325  0.59601604  0.29397554  1
  Se  Se196  1  0.57327714  0.57439521  0.81353749  1
  Se  Se197  1  0.57773869  0.91750411  0.29763418  1
  Se  Se198  1  0.58484072  0.92213488  0.80955110  1
  Se  Se199  1  0.92473996  0.24971450  0.30400365  1
  Se  Se200  1  0.91691382  0.25127676  0.80851795  1
  Se  Se201  1  0.92190824  0.58364191  0.30013807  1
  Se  Se202  1  0.91982254  0.58644393  0.80839406  1
  Se  Se203  1  0.91279351  0.91735360  0.30230202  1
  Se  Se204  1  0.92418373  0.92699159  0.79867909  1
  Se  Se205  1  0.08077660  0.08200640  0.30391965  1
  Se  Se206  1  0.08432859  0.08551177  0.80979023  1
  Se  Se207  1  0.08288601  0.41556940  0.30091672  1
  Se  Se208  1  0.07917315  0.41329222  0.80445234  1
  Se  Se209  1  0.07820801  0.75027752  0.29964565  1
  Se  Se210  1  0.08551693  0.75079477  0.80494878  1
  Se  Se211  1  0.41258842  0.08488672  0.30190334  1
  Se  Se212  1  0.41040850  0.07752371  0.80126684  1
  Se  Se213  1  0.43326804  0.43340901  0.29981329  1
  Se  Se214  1  0.40965672  0.41457674  0.80780429  1
  Se  Se215  1  0.40734724  0.75342025  0.29923573  1
  Se  Se216  1  0.42121673  0.75750442  0.81435324  1
  Se  Se217  1  0.74973922  0.08366760  0.29985993  1
  Se  Se218  1  0.75530597  0.09083529  0.80934746  1
  Se  Se219  1  0.75953331  0.40850266  0.30287643  1
  Se  Se220  1  0.75445594  0.42350374  0.81605743  1
  Se  Se221  1  0.75136591  0.75006157  0.29380644  1
  Se  Se222  1  0.76534028  0.76338749  0.81088190  1
  Se  Se223  1  0.24894331  0.08321264  0.19632864  1
  Se  Se224  1  0.24783333  0.08366675  0.69896907  1
  Se  Se225  1  0.24979794  0.41071523  0.19903475  1
  Se  Se226  1  0.25032340  0.41582110  0.69490969  1
  Se  Se227  1  0.24609634  0.75339422  0.20034764  1
  Se  Se228  1  0.24281798  0.75406802  0.69057022  1
  Se  Se229  1  0.58297763  0.08179881  0.19648404  1
  Se  Se230  1  0.57552212  0.09854775  0.68766769  1
  Se  Se231  1  0.58639670  0.41889558  0.20477487  1
  Se  Se232  1  0.57507283  0.42415965  0.68884969  1
  Se  Se233  1  0.58546928  0.75244323  0.19722519  1
  Se  Se234  1  0.57862933  0.75781829  0.69904530  1
  Se  Se235  1  0.92148604  0.08131487  0.19861608  1
  Se  Se236  1  0.92162673  0.08513875  0.69251055  1
  Se  Se237  1  0.92175535  0.41144600  0.19648464  1
  Se  Se238  1  0.91499437  0.41052080  0.70084431  1
  Se  Se239  1  0.92179440  0.75220220  0.19318374  1
  Se  Se240  1  0.92455377  0.74229231  0.69787394  1
  Se  Se241  1  0.07982292  0.25135372  0.19847114  1
  Se  Se242  1  0.08397459  0.25091948  0.69192926  1
  Se  Se243  1  0.07830262  0.58441159  0.19396118  1
  Se  Se244  1  0.08079086  0.58143941  0.69790726  1
  Se  Se245  1  0.08437448  0.92208611  0.19815837  1
  Se  Se246  1  0.08629728  0.91752302  0.69444275  1
  Se  Se247  1  0.41316880  0.24876513  0.19703090  1
  Se  Se248  1  0.40634917  0.25690186  0.69919459  1
  Se  Se249  1  0.40726991  0.58589670  0.20525103  1
  Se  Se250  1  0.41971811  0.58202690  0.69008491  1
  Se  Se251  1  0.41089999  0.91973562  0.19570116  1
  Se  Se252  1  0.41585146  0.92416362  0.69860424  1
  Se  Se253  1  0.75190457  0.25027140  0.20073906  1
  Se  Se254  1  0.75589992  0.24176539  0.69002174  1
  Se  Se255  1  0.75800262  0.58026456  0.19546932  1
  Se  Se256  1  0.76076076  0.57686387  0.69183917  1
  Se  Se257  1  0.74983744  0.92453192  0.19582489  1
  Se  Se258  1  0.76450464  0.90774374  0.68208161  1
