# generated using pymatgen
data_In86Cu29Se144
_symmetry_space_group_name_H-M   'P 1'
_cell_length_a   17.59159110
_cell_length_b   17.58387422
_cell_length_c   23.45116784
_cell_angle_alpha   90.00413880
_cell_angle_beta   90.01424732
_cell_angle_gamma   89.99071665
_symmetry_Int_Tables_number   1
_chemical_formula_structural   In86Cu29Se144
_chemical_formula_sum   'In86 Cu29 Se144'
_cell_volume   7254.11013418
_cell_formula_units_Z   1
loop_
 _symmetry_equiv_pos_site_id
 _symmetry_equiv_pos_as_xyz
  1  'x, y, z'
loop_
 _atom_site_type_symbol
 _atom_site_label
 _atom_site_symmetry_multiplicity
 _atom_site_fract_x
 _atom_site_fract_y
 _atom_site_fract_z
 _atom_site_occupancy
  In  In0  1  -0.00463535  0.18267243  0.11676487  1
  In  In1  1  0.00513030  0.17911798  0.63313246  1
  In  In2  1  0.01850572  0.50739498  0.09817767  1
  In  In3  1  -0.01530725  0.51529698  0.64494590  1
  In  In4  1  -0.00603112  0.82935645  0.12418120  1
  In  In5  1  -0.01077498  0.82282008  0.61586388  1
  In  In6  1  0.34420079  0.16009905  0.13411965  1
  In  In7  1  0.33644634  0.15363563  0.62312914  1
  In  In8  1  0.33350371  0.50224581  0.13275011  1
  In  In9  1  0.34597879  0.49258928  0.62269398  1
  In  In10  1  0.32858514  0.83150918  0.14472450  1
  In  In11  1  0.34096849  0.83451373  0.61595209  1
  In  In12  1  0.68558652  0.18195579  0.11888208  1
  In  In13  1  0.65669720  0.17565252  0.62943273  1
  In  In14  1  0.65442683  0.49782880  0.11905921  1
  In  In15  1  0.67057099  0.49986481  0.62946838  1
  In  In16  1  0.67527389  0.82335513  0.12286134  1
  In  In17  1  0.67060917  0.83096379  0.62710820  1
  In  In18  1  0.17396296  -0.02131540  0.37375776  1
  In  In19  1  0.16708245  -0.01718751  0.86769715  1
  In  In20  1  0.16634255  0.32384419  0.37283950  1
  In  In21  1  0.15752412  0.35814808  0.88642911  1
  In  In22  1  0.17356789  0.68786967  0.35711828  1
  In  In23  1  0.13416389  0.65713586  0.86927639  1
  In  In24  1  0.49273133  0.00099456  0.38236763  1
  In  In25  1  0.49458042  -0.00384870  0.86029981  1
  In  In26  1  0.50308890  0.33494266  0.37468021  1
  In  In27  1  0.50823441  0.34272868  0.86989939  1
  In  In28  1  0.49659612  0.67163693  0.39126361  1
  In  In29  1  0.49980216  0.65050986  0.87483053  1
  In  In30  1  0.82087090  -0.00332021  0.37584032  1
  In  In31  1  0.82642783  0.00506375  0.87626123  1
  In  In32  1  0.83565589  0.35980734  0.37729616  1
  In  In33  1  0.83261414  0.34352839  0.87373526  1
  In  In34  1  0.83621567  0.65774686  0.38070034  1
  In  In35  1  0.83100608  0.67124452  0.88030202  1
  In  In36  1  0.00778664  0.17427605  0.37943993  1
  In  In37  1  -0.02053500  0.16664124  0.87801493  1
  In  In38  1  -0.01784017  0.51017678  0.37996802  1
  In  In39  1  -0.00445185  0.50832239  0.88052662  1
  In  In40  1  0.01271136  0.81903444  0.38567932  1
  In  In41  1  -0.01741741  0.77865926  0.85292895  1
  In  In42  1  0.34586629  0.17283556  0.36665790  1
  In  In43  1  0.34034138  0.16398520  0.87348892  1
  In  In44  1  0.33545473  0.50903641  0.36696400  1
  In  In45  1  0.33316595  0.49675025  0.88955135  1
  In  In46  1  0.33302905  0.83230829  0.37649465  1
  In  In47  1  0.31762162  0.83436293  0.86787721  1
  In  In48  1  0.65535949  0.16769056  0.37624180  1
  In  In49  1  0.67844065  0.18312254  0.86047316  1
  In  In50  1  0.67893682  0.49891480  0.38255987  1
  In  In51  1  0.66966204  0.49855769  0.87064327  1
  In  In52  1  0.67371947  0.81489051  0.39739898  1
  In  In53  1  0.67317537  0.84211681  0.86264102  1
  In  In54  1  0.17334724  -0.00022004  0.12870390  1
  In  In55  1  0.17973756  -0.00204702  0.62707346  1
  In  In56  1  0.16736401  0.34675188  0.12722964  1
  In  In57  1  0.16055980  0.33501388  0.63021884  1
  In  In58  1  0.16886602  0.66539080  0.13295615  1
  In  In59  1  0.15381364  0.66952743  0.62628283  1
  In  In60  1  0.49701706  -0.00836057  0.12969014  1
  In  In61  1  0.50070062  -0.00246980  0.62125447  1
  In  In62  1  0.49595555  0.34190284  0.13428578  1
  In  In63  1  0.52252728  0.35171258  0.60838328  1
  In  In64  1  0.49718702  0.65820860  0.12881677  1
  In  In65  1  0.52471623  0.68068049  0.60425290  1
  In  In66  1  0.83517789  0.00439614  0.11578140  1
  In  In67  1  0.83406907  -0.01893730  0.62551715  1
  In  In68  1  0.83483097  0.34148203  0.11506195  1
  In  In69  1  0.82816146  0.34632443  0.63664860  1
  In  In70  1  0.84674190  0.66509310  0.10755998  1
  In  In71  1  0.82835906  0.66384318  0.62790894  1
  In  In72  1  0.50820997  0.16920238  -0.01091635  1
  In  In73  1  0.33649443  0.66958715  0.74698524  1
  In  In74  1  0.66499909  0.66275741  0.25154336  1
  In  In75  1  0.00180876  -0.00643866  0.24460219  1
  In  In76  1  0.50372104  0.82830132  0.00460756  1
  In  In77  1  0.33415106  0.32555913  0.74866745  1
  In  In78  1  0.83183903  0.16928975  0.51194459  1
  In  In79  1  0.00005115  -0.00073900  0.74858926  1
  In  In80  1  0.65445456  0.00170060  0.25567660  1
  In  In81  1  -0.00037203  0.34161025  0.24409818  1
  In  In82  1  0.16454292  0.50282768  0.50113435  1
  In  In83  1  0.16336122  0.16558293  0.00427299  1
  In  In84  1  0.16814709  0.16494696  0.49737292  1
  In  In85  1  0.16068340  0.82523579  -0.00445850  1
  Cu  Cu86  1  0.17453685  0.15834801  0.25206531  1
  Cu  Cu87  1  0.83060937  0.82750504  0.74742270  1
  Cu  Cu88  1  0.50591013  0.17204378  0.25105895  1
  Cu  Cu89  1  0.32784657  0.65982038  0.00517505  1
  Cu  Cu90  1  0.16178357  0.49959380  0.24525717  1
  Cu  Cu91  1  0.49623321  0.83332326  0.26287784  1
  Cu  Cu92  1  0.33044890  0.66485262  0.49277108  1
  Cu  Cu93  1  0.83378598  0.83191528  0.24557599  1
  Cu  Cu94  1  0.16604924  0.17395663  0.75383079  1
  Cu  Cu95  1  0.66747732  0.34064867  -0.00941111  1
  Cu  Cu96  1  0.49337125  0.16287792  0.74258877  1
  Cu  Cu97  1  -0.00607336  -0.01151391  -0.00256123  1
  Cu  Cu98  1  0.50914259  0.50236010  0.74540915  1
  Cu  Cu99  1  0.66139978  -0.00765702  0.50211360  1
  Cu  Cu100  1  0.83297399  0.18179728  0.24476509  1
  Cu  Cu101  1  0.50093764  0.82995400  0.73837408  1
  Cu  Cu102  1  0.33331670  -0.00579542  -0.00113531  1
  Cu  Cu103  1  -0.00122373  0.00057104  0.50062736  1
  Cu  Cu104  1  0.33806859  0.32702055  0.49398208  1
  Cu  Cu105  1  0.33651224  -0.00467948  0.49946070  1
  Cu  Cu106  1  0.49853899  0.49907371  0.25322331  1
  Cu  Cu107  1  0.83201338  0.50547021  0.24839507  1
  Cu  Cu108  1  0.66879282  0.66635697  -0.00246627  1
  Cu  Cu109  1  0.67075000  0.33153328  0.50141675  1
  Cu  Cu110  1  0.82625181  0.16773671  0.75312119  1
  Cu  Cu111  1  0.16276803  0.50592473  0.75774525  1
  Cu  Cu112  1  0.67197076  0.00352848  -0.00920826  1
  Cu  Cu113  1  -0.00047131  0.66510716  0.50183681  1
  Cu  Cu114  1  0.33609855  0.34063504  0.01042842  1
  Se  Se115  1  0.07211670  0.06833062  0.06041713  1
  Se  Se116  1  0.07638212  0.07998606  0.56206492  1
  Se  Se117  1  0.05979142  0.37640599  0.05848402  1
  Se  Se118  1  0.07643999  0.42495305  0.56857758  1
  Se  Se119  1  0.07559079  0.73622408  0.05800652  1
  Se  Se120  1  0.08630224  0.75113889  0.54939070  1
  Se  Se121  1  0.41834151  0.07666825  0.05316740  1
  Se  Se122  1  0.41926543  0.08193053  0.54992963  1
  Se  Se123  1  0.42057239  0.42382886  0.06166806  1
  Se  Se124  1  0.41744823  0.41517857  0.54592195  1
  Se  Se125  1  0.40349087  0.74766378  0.06336746  1
  Se  Se126  1  0.41570086  0.74615114  0.54724592  1
  Se  Se127  1  0.74907758  0.08645566  0.04970211  1
  Se  Se128  1  0.74079001  0.07290749  0.56399177  1
  Se  Se129  1  0.74391320  0.42262205  0.05092471  1
  Se  Se130  1  0.75089423  0.41462442  0.55735206  1
  Se  Se131  1  0.75328151  0.75118508  0.04840453  1
  Se  Se132  1  0.75908503  0.75597099  0.55904845  1
  Se  Se133  1  0.26117597  0.24960691  0.06447467  1
  Se  Se134  1  0.25570026  0.25766638  0.55988664  1
  Se  Se135  1  0.24702414  0.58015180  0.06267692  1
  Se  Se136  1  0.25795607  0.59008274  0.56296460  1
  Se  Se137  1  0.25694058  0.91243497  0.05895539  1
  Se  Se138  1  0.24838823  0.91608400  0.55122321  1
  Se  Se139  1  0.58700443  0.26155479  0.05468643  1
  Se  Se140  1  0.58416104  0.24369109  0.54716386  1
  Se  Se141  1  0.57965915  0.59167255  0.05262626  1
  Se  Se142  1  0.56559460  0.55368163  0.56106501  1
  Se  Se143  1  0.59648615  0.92731699  0.05771667  1
  Se  Se144  1  0.58148470  0.90797467  0.55639938  1
  Se  Se145  1  0.89879933  0.24069109  0.04921675  1
  Se  Se146  1  0.92332689  0.26254555  0.56367245  1
  Se  Se147  1  0.90323762  0.55974482  0.04283373  1
  Se  Se148  1  0.92038814  0.58396205  0.55977283  1
  Se  Se149  1  0.91119308  0.90890189  0.05400886  1
  Se  Se150  1  0.91361123  0.91403453  0.54798624  1
  Se  Se151  1  0.07336490  0.26750806  0.45249698  1
  Se  Se152  1  0.07627426  0.25076774  0.94062660  1
  Se  Se153  1  0.08392805  0.59469151  0.43657726  1
  Se  Se154  1  0.09756902  0.56807849  0.94993129  1
  Se  Se155  1  0.08456643  0.91830262  0.44862289  1
  Se  Se156  1  0.07140097  0.91330698  0.93481647  1
  Se  Se157  1  0.42361397  0.24475329  0.44326770  1
  Se  Se158  1  0.40817652  0.26478848  0.94175284  1
  Se  Se159  1  0.41255374  0.57362746  0.44755460  1
  Se  Se160  1  0.41903830  0.58338893  0.95279873  1
  Se  Se161  1  0.41932965  0.90844999  0.44836841  1
  Se  Se162  1  0.41388826  0.91499773  0.93934867  1
  Se  Se163  1  0.75178728  0.25348066  0.43909964  1
  Se  Se164  1  0.74913834  0.25212908  0.94128822  1
  Se  Se165  1  0.74332021  0.59410849  0.45038787  1
  Se  Se166  1  0.74765626  0.58148365  0.94271460  1
  Se  Se167  1  0.75402857  0.91579892  0.45226951  1
  Se  Se168  1  0.75014357  0.91102019  0.94222724  1
  Se  Se169  1  0.25864204  0.07786702  0.43653807  1
  Se  Se170  1  0.25273515  0.07547522  0.94132149  1
  Se  Se171  1  0.25327811  0.40967684  0.43964157  1
  Se  Se172  1  0.24694009  0.42155797  0.96039704  1
  Se  Se173  1  0.24462653  0.74876768  0.44289113  1
  Se  Se174  1  0.25436354  0.73521294  0.93793856  1
  Se  Se175  1  0.58529280  0.07954022  0.44669562  1
  Se  Se176  1  0.59082745  0.07616205  0.92775352  1
  Se  Se177  1  0.58906377  0.41342433  0.44418391  1
  Se  Se178  1  0.57865045  0.42468813  0.94374326  1
  Se  Se179  1  0.59064761  0.73326969  0.46216123  1
  Se  Se180  1  0.58848830  0.74651625  0.93667256  1
  Se  Se181  1  0.91964974  0.08187608  0.44088457  1
  Se  Se182  1  0.91142767  0.07826908  0.94966756  1
  Se  Se183  1  0.91877118  0.42211159  0.45294255  1
  Se  Se184  1  0.90842699  0.42607970  0.94602004  1
  Se  Se185  1  0.91434032  0.74871268  0.44806475  1
  Se  Se186  1  0.91795568  0.75091954  0.94819153  1
  Se  Se187  1  0.25152256  0.24961840  0.30270840  1
  Se  Se188  1  0.24048580  0.25331348  0.81924100  1
  Se  Se189  1  0.24422449  0.58267468  0.29989605  1
  Se  Se190  1  0.25230208  0.58067944  0.81466589  1
  Se  Se191  1  0.25544039  0.90974172  0.30096571  1
  Se  Se192  1  0.26268671  0.92951215  0.79595728  1
  Se  Se193  1  0.58923372  0.25543275  0.30307339  1
  Se  Se194  1  0.57020672  0.24619237  0.80124919  1
  Se  Se195  1  0.57662766  0.57890613  0.31557701  1
  Se  Se196  1  0.58774028  0.58631144  0.80144641  1
  Se  Se197  1  0.58625282  0.90207692  0.32183071  1
  Se  Se198  1  0.58117704  0.91513866  0.79501518  1
  Se  Se199  1  0.91439303  0.25161195  0.31078661  1
  Se  Se200  1  0.91086817  0.25071724  0.80471436  1
  Se  Se201  1  0.91452169  0.58915177  0.30151723  1
  Se  Se202  1  0.94797262  0.62344175  0.81715825  1
  Se  Se203  1  0.90905941  0.91295465  0.30898876  1
  Se  Se204  1  0.91203095  0.90851258  0.80936463  1
  Se  Se205  1  0.08822018  0.08484037  0.31101630  1
  Se  Se206  1  0.08579435  0.09152365  0.81311927  1
  Se  Se207  1  0.08464098  0.42650302  0.31345373  1
  Se  Se208  1  0.07738901  0.42287987  0.80850056  1
  Se  Se209  1  0.06609352  0.75033008  0.29853968  1
  Se  Se210  1  0.11889230  0.78094877  0.81253255  1
  Se  Se211  1  0.42743151  0.08181384  0.30279552  1
  Se  Se212  1  0.40838565  0.08328813  0.79722852  1
  Se  Se213  1  0.41500101  0.41385087  0.30568120  1
  Se  Se214  1  0.41648927  0.43038167  0.80417902  1
  Se  Se215  1  0.41921356  0.74214295  0.31305729  1
  Se  Se216  1  0.42710789  0.75790820  0.81048445  1
  Se  Se217  1  0.75660071  0.09588765  0.30413033  1
  Se  Se218  1  0.74485691  0.07686118  0.80045835  1
  Se  Se219  1  0.74939136  0.42292857  0.30171327  1
  Se  Se220  1  0.73147668  0.39837108  0.80439171  1
  Se  Se221  1  0.75341560  0.75680112  0.30929749  1
  Se  Se222  1  0.74865391  0.74333567  0.80261463  1
  Se  Se223  1  0.25779385  0.07563447  0.19857493  1
  Se  Se224  1  0.24549370  0.09204875  0.69732091  1
  Se  Se225  1  0.25188586  0.41419395  0.20108416  1
  Se  Se226  1  0.24525699  0.42944866  0.69617954  1
  Se  Se227  1  0.25052663  0.74037560  0.20521452  1
  Se  Se228  1  0.24683156  0.75767731  0.68730930  1
  Se  Se229  1  0.58310670  0.09577250  0.18389397  1
  Se  Se230  1  0.58112038  0.08029321  0.69293211  1
  Se  Se231  1  0.58671469  0.42079982  0.19951326  1
  Se  Se232  1  0.58673981  0.40927700  0.69712186  1
  Se  Se233  1  0.57475797  0.76139659  0.19453886  1
  Se  Se234  1  0.58633381  0.74222982  0.69314560  1
  Se  Se235  1  0.91243206  0.09461655  0.19071706  1
  Se  Se236  1  0.90621027  0.08988006  0.68947395  1
  Se  Se237  1  0.91563627  0.43374098  0.18404148  1
  Se  Se238  1  0.92662081  0.40746932  0.70491791  1
  Se  Se239  1  0.90926494  0.74508904  0.19003557  1
  Se  Se240  1  0.91857242  0.74837995  0.69489404  1
  Se  Se241  1  0.09210826  0.23945740  0.19328301  1
  Se  Se242  1  0.08221138  0.25954180  0.70555556  1
  Se  Se243  1  0.07515115  0.57356837  0.18759574  1
  Se  Se244  1  0.08383186  0.59336496  0.70455784  1
  Se  Se245  1  0.09520625  0.90125965  0.19100185  1
  Se  Se246  1  0.08231503  0.91098339  0.68391970  1
  Se  Se247  1  0.41698671  0.25258680  0.20020349  1
  Se  Se248  1  0.42498445  0.25175249  0.68007793  1
  Se  Se249  1  0.41578307  0.58642921  0.20280744  1
  Se  Se250  1  0.42862562  0.58368911  0.68660193  1
  Se  Se251  1  0.41935485  0.91809540  0.20447746  1
  Se  Se252  1  0.41530225  0.91530640  0.69053169  1
  Se  Se253  1  0.75340581  0.26747304  0.19290437  1
  Se  Se254  1  0.74622516  0.25090993  0.69651746  1
  Se  Se255  1  0.75301646  0.58306716  0.18391741  1
  Se  Se256  1  0.76047589  0.57227590  0.69857523  1
  Se  Se257  1  0.75209193  0.91840899  0.19233012  1
  Se  Se258  1  0.74769667  0.91664639  0.70015115  1
