# generated using pymatgen
data_In86Cu29Se144
_symmetry_space_group_name_H-M   'P 1'
_cell_length_a   17.58657824
_cell_length_b   17.58528988
_cell_length_c   23.43524051
_cell_angle_alpha   89.98481929
_cell_angle_beta   90.00319777
_cell_angle_gamma   90.02116237
_symmetry_Int_Tables_number   1
_chemical_formula_structural   In86Cu29Se144
_chemical_formula_sum   'In86 Cu29 Se144'
_cell_volume   7247.70068827
_cell_formula_units_Z   1
loop_
 _symmetry_equiv_pos_site_id
 _symmetry_equiv_pos_as_xyz
  1  'x, y, z'
loop_
 _atom_site_type_symbol
 _atom_site_label
 _atom_site_symmetry_multiplicity
 _atom_site_fract_x
 _atom_site_fract_y
 _atom_site_fract_z
 _atom_site_occupancy
  In  In0  1  0.00721629  0.15782949  0.12967661  1
  In  In1  1  -0.00902879  0.15982466  0.62392944  1
  In  In2  1  0.00354755  0.50506656  0.13860679  1
  In  In3  1  0.00083392  0.50534717  0.61141441  1
  In  In4  1  -0.01290951  0.83621913  0.13721927  1
  In  In5  1  0.00986718  0.83133725  0.62537123  1
  In  In6  1  0.32117646  0.17790346  0.13493732  1
  In  In7  1  0.34187933  0.15911587  0.61828998  1
  In  In8  1  0.31721494  0.50696456  0.14613078  1
  In  In9  1  0.33708570  0.50151269  0.61509969  1
  In  In10  1  0.34592872  0.82467349  0.12866771  1
  In  In11  1  0.31801589  0.83999798  0.62137923  1
  In  In12  1  0.66700569  0.16637294  0.13509385  1
  In  In13  1  0.65752661  0.15931529  0.61956380  1
  In  In14  1  0.67424845  0.49203814  0.13753178  1
  In  In15  1  0.65919499  0.49385228  0.59640699  1
  In  In16  1  0.66701407  0.83173013  0.12982471  1
  In  In17  1  0.67381054  0.83202370  0.62547180  1
  In  In18  1  0.16158824  -0.01118715  0.36688335  1
  In  In19  1  0.16827215  0.01381736  0.88037495  1
  In  In20  1  0.19780452  0.37370458  0.33614721  1
  In  In21  1  0.16036807  0.34121040  0.88527609  1
  In  In22  1  0.17182726  0.66256918  0.36884847  1
  In  In23  1  0.17131843  0.65643175  0.87783726  1
  In  In24  1  0.50850808  0.00894925  0.37046093  1
  In  In25  1  0.50137801  -0.02001272  0.87430556  1
  In  In26  1  0.50314918  0.33913046  0.38746802  1
  In  In27  1  0.49911991  0.32953530  0.87457150  1
  In  In28  1  0.49816700  0.65899591  0.36974631  1
  In  In29  1  0.50243369  0.67976612  0.87159695  1
  In  In30  1  0.83261870  -0.00608424  0.35920023  1
  In  In31  1  0.82150800  -0.01145263  0.87329256  1
  In  In32  1  0.84180173  0.34383219  0.36819701  1
  In  In33  1  0.84453770  0.33709494  0.88346440  1
  In  In34  1  0.81987747  0.65154361  0.35224916  1
  In  In35  1  0.84022126  0.66762231  0.88972265  1
  In  In36  1  -0.00045577  0.16600707  0.36612784  1
  In  In37  1  0.01020958  0.16777495  0.88104799  1
  In  In38  1  0.00999213  0.49795220  0.36807503  1
  In  In39  1  0.00252545  0.50439717  0.88567529  1
  In  In40  1  0.00612259  0.83944814  0.36281157  1
  In  In41  1  -0.01287244  0.82681619  0.88008879  1
  In  In42  1  0.35285643  0.17949362  0.37079826  1
  In  In43  1  0.32717983  0.16022928  0.88096160  1
  In  In44  1  0.33191055  0.50419742  0.37581354  1
  In  In45  1  0.32033219  0.50372585  0.87490771  1
  In  In46  1  0.32110248  0.81844091  0.36474535  1
  In  In47  1  0.34573111  0.82828553  0.87959467  1
  In  In48  1  0.65918946  0.16630069  0.37614363  1
  In  In49  1  0.68208439  0.15628327  0.87828727  1
  In  In50  1  0.66917251  0.50297714  0.37959957  1
  In  In51  1  0.66938561  0.51282867  0.87904556  1
  In  In52  1  0.67292188  0.82464207  0.35948990  1
  In  In53  1  0.65984947  0.83830008  0.88532391  1
  In  In54  1  0.15647722  0.01070508  0.12720612  1
  In  In55  1  0.16810959  -0.00815992  0.62114930  1
  In  In56  1  0.16394584  0.33482483  0.13629250  1
  In  In57  1  0.16682967  0.34041299  0.61624198  1
  In  In58  1  0.17260086  0.64966990  0.14060151  1
  In  In59  1  0.16383690  0.66984617  0.61863716  1
  In  In60  1  0.51067135  -0.01008922  0.13356084  1
  In  In61  1  0.49724231  0.00490442  0.62084479  1
  In  In62  1  0.49483728  0.33765922  0.13801413  1
  In  In63  1  0.50169540  0.33326166  0.59406198  1
  In  In64  1  0.49511738  0.67635830  0.13375344  1
  In  In65  1  0.50117122  0.65142441  0.61564016  1
  In  In66  1  0.83581041  -0.01452697  0.13814167  1
  In  In67  1  0.83660604  -0.00696255  0.63108446  1
  In  In68  1  0.82352356  0.34289770  0.13510395  1
  In  In69  1  0.83034015  0.33765174  0.61466269  1
  In  In70  1  0.83522868  0.66762933  0.13411789  1
  In  In71  1  0.83537647  0.66066081  0.61824032  1
  In  In72  1  0.83488745  0.81938659  0.49227774  1
  In  In73  1  0.66843998  0.33308013  0.73396350  1
  In  In74  1  0.00251634  0.33341782  0.75731776  1
  In  In75  1  0.49819060  0.50538944  0.01267601  1
  In  In76  1  0.83674552  0.16519529  0.01320718  1
  In  In77  1  0.17153570  0.17655699  0.48851300  1
  In  In78  1  0.33470834  -0.00310969  0.75181618  1
  In  In79  1  0.49707406  0.83050559  0.48478858  1
  In  In80  1  -0.00113917  0.66641866  0.74680705  1
  In  In81  1  0.33356962  0.33020491  0.73436245  1
  In  In82  1  0.83337846  0.16998296  0.48663886  1
  In  In83  1  0.49464348  0.16427853  0.00378172  1
  In  In84  1  0.16022260  0.83101644  0.01075995  1
  In  In85  1  0.66715607  0.66950477  0.74392578  1
  Cu  Cu86  1  -0.00610715  -0.00112656  0.00737040  1
  Cu  Cu87  1  0.00655788  -0.00695844  0.49554579  1
  Cu  Cu88  1  0.16311203  0.15957438  0.25315489  1
  Cu  Cu89  1  0.17202923  0.83236124  0.24396686  1
  Cu  Cu90  1  0.31663350  0.33825871  0.01013594  1
  Cu  Cu91  1  0.49901169  0.83283178  0.25369952  1
  Cu  Cu92  1  0.33041095  0.00104013  0.49493670  1
  Cu  Cu93  1  0.66701881  0.34249331  0.01076981  1
  Cu  Cu94  1  0.50571872  0.49775467  0.25876998  1
  Cu  Cu95  1  0.83004410  0.49523867  0.74896340  1
  Cu  Cu96  1  0.16235445  0.83871683  0.74873389  1
  Cu  Cu97  1  0.49569293  0.17147913  0.25412596  1
  Cu  Cu98  1  0.00634220  0.34051836  0.48669929  1
  Cu  Cu99  1  0.33263865  0.00322241  0.00474733  1
  Cu  Cu100  1  0.00359805  0.34708379  0.00912595  1
  Cu  Cu101  1  0.67886140  0.66809773  0.00642634  1
  Cu  Cu102  1  0.16473579  0.17086272  0.75372171  1
  Cu  Cu103  1  0.82403166  0.16921439  0.25096284  1
  Cu  Cu104  1  0.32433117  0.67087136  0.49633162  1
  Cu  Cu105  1  0.66807377  -0.00127126  0.49587741  1
  Cu  Cu106  1  0.33369751  0.66072809  0.01092464  1
  Cu  Cu107  1  0.82654612  0.83764587  0.75635213  1
  Cu  Cu108  1  0.51189686  0.16254032  0.74588867  1
  Cu  Cu109  1  0.83478483  0.50372582  0.25464807  1
  Cu  Cu110  1  0.49012046  0.50049502  0.73899150  1
  Cu  Cu111  1  0.66376436  -0.01452536  0.00492389  1
  Cu  Cu112  1  -0.00015373  0.66198923  0.01201246  1
  Cu  Cu113  1  0.00231139  0.66459942  0.48842527  1
  Cu  Cu114  1  0.83357879  0.14960528  0.74949928  1
  Se  Se115  1  0.08137325  0.08665111  0.04960347  1
  Se  Se116  1  0.08077690  0.08255237  0.55249823  1
  Se  Se117  1  0.08653301  0.42388740  0.06661068  1
  Se  Se118  1  0.08593843  0.42041075  0.54681227  1
  Se  Se119  1  0.07873897  0.73997049  0.07464713  1
  Se  Se120  1  0.07624678  0.74867673  0.54976577  1
  Se  Se121  1  0.41021029  0.07972868  0.06964826  1
  Se  Se122  1  0.41962195  0.07990548  0.54544247  1
  Se  Se123  1  0.40364492  0.41493623  0.06721943  1
  Se  Se124  1  0.40434422  0.41427055  0.54193571  1
  Se  Se125  1  0.42229100  0.74745930  0.05281760  1
  Se  Se126  1  0.40838242  0.75100244  0.55572680  1
  Se  Se127  1  0.73924540  0.07375056  0.06268192  1
  Se  Se128  1  0.75538686  0.07384750  0.55443628  1
  Se  Se129  1  0.75433577  0.42453885  0.05792589  1
  Se  Se130  1  0.76555477  0.42512609  0.54344366  1
  Se  Se131  1  0.75614477  0.75227999  0.06214357  1
  Se  Se132  1  0.73775954  0.73770743  0.55297664  1
  Se  Se133  1  0.23775402  0.24909292  0.06026378  1
  Se  Se134  1  0.26195635  0.25644092  0.55575757  1
  Se  Se135  1  0.25004577  0.57778900  0.06198883  1
  Se  Se136  1  0.24529620  0.58455215  0.55172946  1
  Se  Se137  1  0.25503332  0.92102489  0.06565070  1
  Se  Se138  1  0.24452340  0.91802374  0.54484636  1
  Se  Se139  1  0.58410042  0.25773088  0.06303071  1
  Se  Se140  1  0.61048997  0.25788752  0.54798650  1
  Se  Se141  1  0.59540225  0.59133205  0.06827489  1
  Se  Se142  1  0.57456187  0.58233699  0.53674193  1
  Se  Se143  1  0.57642689  0.90604773  0.05668001  1
  Se  Se144  1  0.58795746  0.91575471  0.55343303  1
  Se  Se145  1  0.92399829  0.26263866  0.06762906  1
  Se  Se146  1  0.93070488  0.25649867  0.54860479  1
  Se  Se147  1  0.91680287  0.58057542  0.06602503  1
  Se  Se148  1  0.91588061  0.58680176  0.54496586  1
  Se  Se149  1  0.91238888  0.91433166  0.05959311  1
  Se  Se150  1  0.92087578  0.91719332  0.55399634  1
  Se  Se151  1  0.08297092  0.26031717  0.42694743  1
  Se  Se152  1  0.07813579  0.25755007  0.95204903  1
  Se  Se153  1  0.08911701  0.58095817  0.44020099  1
  Se  Se154  1  0.08499500  0.58906083  0.95199200  1
  Se  Se155  1  0.08629638  0.90879339  0.44235631  1
  Se  Se156  1  0.07667300  0.92216985  0.94433608  1
  Se  Se157  1  0.42367409  0.24685905  0.45198941  1
  Se  Se158  1  0.40191690  0.26301877  0.94818584  1
  Se  Se159  1  0.41185201  0.59209736  0.44453679  1
  Se  Se160  1  0.41363416  0.58835141  0.94252760  1
  Se  Se161  1  0.40551084  0.92190177  0.42960243  1
  Se  Se162  1  0.41301407  0.92024111  0.95035826  1
  Se  Se163  1  0.74430980  0.26510581  0.43614878  1
  Se  Se164  1  0.74451007  0.25757403  0.95006666  1
  Se  Se165  1  0.75753996  0.59298043  0.43951666  1
  Se  Se166  1  0.75545582  0.57914804  0.95258350  1
  Se  Se167  1  0.74702184  0.91840595  0.43647220  1
  Se  Se168  1  0.75499698  0.90941096  0.95218195  1
  Se  Se169  1  0.25436026  0.07991531  0.43045882  1
  Se  Se170  1  0.24723007  0.08804574  0.95610664  1
  Se  Se171  1  0.24001090  0.41789903  0.43536750  1
  Se  Se172  1  0.24580420  0.42502277  0.95010766  1
  Se  Se173  1  0.24140281  0.75355975  0.44353540  1
  Se  Se174  1  0.25497787  0.74509286  0.94995716  1
  Se  Se175  1  0.58168293  0.08421186  0.44951521  1
  Se  Se176  1  0.58970644  0.07517840  0.94473825  1
  Se  Se177  1  0.57406226  0.43920392  0.45093963  1
  Se  Se178  1  0.58580510  0.41397202  0.94483393  1
  Se  Se179  1  0.59588932  0.74275117  0.43489811  1
  Se  Se180  1  0.58878769  0.74001927  0.94907426  1
  Se  Se181  1  0.92296763  0.06961067  0.43682680  1
  Se  Se182  1  0.91596126  0.07776025  0.94195398  1
  Se  Se183  1  0.91850342  0.42561649  0.44058046  1
  Se  Se184  1  0.91633651  0.42367790  0.95330725  1
  Se  Se185  1  0.92298210  0.74090802  0.42590384  1
  Se  Se186  1  0.92022650  0.75036518  0.95948281  1
  Se  Se187  1  0.24900740  0.24023709  0.30560287  1
  Se  Se188  1  0.24674377  0.25150085  0.81138934  1
  Se  Se189  1  0.25356162  0.58119129  0.29952630  1
  Se  Se190  1  0.25486708  0.59136839  0.80271914  1
  Se  Se191  1  0.25401672  0.91683021  0.29811784  1
  Se  Se192  1  0.24180928  0.91085987  0.81505400  1
  Se  Se193  1  0.57621418  0.25357041  0.31132827  1
  Se  Se194  1  0.58844238  0.24512367  0.80747788  1
  Se  Se195  1  0.59218171  0.58555792  0.30407426  1
  Se  Se196  1  0.57527099  0.57288518  0.80236057  1
  Se  Se197  1  0.58493980  0.91738304  0.30349182  1
  Se  Se198  1  0.58616051  0.90747031  0.80541834  1
  Se  Se199  1  0.91236952  0.24840134  0.30170807  1
  Se  Se200  1  0.90622498  0.23719623  0.81041663  1
  Se  Se201  1  0.92972393  0.58532272  0.29839944  1
  Se  Se202  1  0.90847546  0.57678178  0.80944975  1
  Se  Se203  1  0.93010402  0.92896573  0.29525566  1
  Se  Se204  1  0.91782418  0.91450348  0.80815251  1
  Se  Se205  1  0.07684146  0.07398098  0.30102896  1
  Se  Se206  1  0.08333617  0.08523057  0.80646152  1
  Se  Se207  1  0.06443585  0.39819016  0.29619269  1
  Se  Se208  1  0.09085481  0.43084007  0.80945910  1
  Se  Se209  1  0.09064151  0.75062936  0.30036155  1
  Se  Se210  1  0.08683558  0.75524826  0.81098407  1
  Se  Se211  1  0.41486595  0.07982655  0.30240919  1
  Se  Se212  1  0.42600270  0.09228803  0.81031265  1
  Se  Se213  1  0.42142862  0.41711521  0.31287330  1
  Se  Se214  1  0.42071133  0.41680730  0.80418251  1
  Se  Se215  1  0.41624852  0.74383546  0.30145609  1
  Se  Se216  1  0.41447505  0.75159685  0.80326995  1
  Se  Se217  1  0.74256536  0.08616850  0.30559476  1
  Se  Se218  1  0.74384665  0.07273997  0.80120795  1
  Se  Se219  1  0.74721156  0.42104775  0.30498112  1
  Se  Se220  1  0.75123505  0.41553365  0.81061811  1
  Se  Se221  1  0.77949120  0.77168244  0.29446553  1
  Se  Se222  1  0.75618221  0.74726797  0.81456040  1
  Se  Se223  1  0.24850207  0.07942728  0.19774876  1
  Se  Se224  1  0.24553474  0.09181117  0.69169428  1
  Se  Se225  1  0.25481015  0.40335672  0.20875970  1
  Se  Se226  1  0.23975899  0.42805251  0.68945813  1
  Se  Se227  1  0.25759785  0.74649326  0.19606555  1
  Se  Se228  1  0.23990189  0.75570865  0.69133417  1
  Se  Se229  1  0.57803391  0.08782800  0.20007891  1
  Se  Se230  1  0.58778196  0.07307974  0.69333889  1
  Se  Se231  1  0.58648762  0.41203086  0.20393175  1
  Se  Se232  1  0.57426853  0.42347122  0.67840783  1
  Se  Se233  1  0.58587757  0.74904184  0.20237372  1
  Se  Se234  1  0.57201334  0.75279516  0.68419357  1
  Se  Se235  1  0.90831849  0.08959134  0.19478414  1
  Se  Se236  1  0.92462162  0.07357444  0.69754050  1
  Se  Se237  1  0.91561850  0.41656385  0.20191486  1
  Se  Se238  1  0.91544585  0.41903187  0.68930786  1
  Se  Se239  1  0.90528902  0.75650146  0.20756438  1
  Se  Se240  1  0.90336000  0.75913766  0.69106541  1
  Se  Se241  1  0.08035935  0.24464876  0.20051740  1
  Se  Se242  1  0.08768223  0.24535197  0.68790374  1
  Se  Se243  1  0.09325648  0.57167876  0.21229465  1
  Se  Se244  1  0.08575477  0.57493149  0.68917110  1
  Se  Se245  1  0.08536711  0.91645354  0.19418584  1
  Se  Se246  1  0.08114128  0.92278188  0.69509401  1
  Se  Se247  1  0.40975530  0.25430225  0.20293147  1
  Se  Se248  1  0.43669090  0.24307170  0.68274372  1
  Se  Se249  1  0.42588845  0.57805574  0.19931626  1
  Se  Se250  1  0.40974706  0.58738852  0.68875278  1
  Se  Se251  1  0.41616718  0.91595339  0.19908488  1
  Se  Se252  1  0.42037655  0.90944342  0.68827385  1
  Se  Se253  1  0.74101699  0.25748661  0.20180617  1
  Se  Se254  1  0.76584046  0.23581517  0.68547321  1
  Se  Se255  1  0.74825203  0.58633584  0.20246582  1
  Se  Se256  1  0.75135591  0.57047363  0.68548983  1
  Se  Se257  1  0.72397634  0.93516609  0.19725616  1
  Se  Se258  1  0.74560131  0.91672090  0.69742345  1
