# generated using pymatgen
data_In86Cu29Se144
_symmetry_space_group_name_H-M   'P 1'
_cell_length_a   17.59336347
_cell_length_b   17.59841219
_cell_length_c   23.46060106
_cell_angle_alpha   89.96346557
_cell_angle_beta   89.98205106
_cell_angle_gamma   89.97626550
_symmetry_Int_Tables_number   1
_chemical_formula_structural   In86Cu29Se144
_chemical_formula_sum   'In86 Cu29 Se144'
_cell_volume   7263.75769059
_cell_formula_units_Z   1
loop_
 _symmetry_equiv_pos_site_id
 _symmetry_equiv_pos_as_xyz
  1  'x, y, z'
loop_
 _atom_site_type_symbol
 _atom_site_label
 _atom_site_symmetry_multiplicity
 _atom_site_fract_x
 _atom_site_fract_y
 _atom_site_fract_z
 _atom_site_occupancy
  In  In0  1  0.03706925  0.16958615  0.12322206  1
  In  In1  1  0.00100181  0.14877681  0.62868213  1
  In  In2  1  0.00722469  0.48692964  0.12748633  1
  In  In3  1  0.01769145  0.50664874  0.62460251  1
  In  In4  1  0.00753046  0.85041245  0.10703616  1
  In  In5  1  0.01915168  0.82012965  0.63848993  1
  In  In6  1  0.32663499  0.16026393  0.12107991  1
  In  In7  1  0.34492829  0.17719758  0.62307527  1
  In  In8  1  0.34749890  0.51913042  0.11012542  1
  In  In9  1  0.32055352  0.50803217  0.63499732  1
  In  In10  1  0.32985553  0.83900699  0.13068061  1
  In  In11  1  0.32272669  0.82186704  0.61914214  1
  In  In12  1  0.66440767  0.18445506  0.12395136  1
  In  In13  1  0.64377596  0.16195203  0.62779418  1
  In  In14  1  0.65719095  0.50359876  0.13176462  1
  In  In15  1  0.67274714  0.50373903  0.62913154  1
  In  In16  1  0.66328360  0.82049814  0.11882702  1
  In  In17  1  0.65989938  0.83992100  0.63158777  1
  In  In18  1  0.17687542  -0.00579110  0.38156633  1
  In  In19  1  0.15634309  0.00560099  0.88141834  1
  In  In20  1  0.16942709  0.33652583  0.37671860  1
  In  In21  1  0.17551752  0.31948081  0.88396525  1
  In  In22  1  0.17308505  0.65285239  0.38540873  1
  In  In23  1  0.17037383  0.67021401  0.88224997  1
  In  In24  1  0.48580923  0.01075096  0.38313159  1
  In  In25  1  0.50989232  0.00107292  0.87123148  1
  In  In26  1  0.49141537  0.32449748  0.36770517  1
  In  In27  1  0.49379725  0.34635120  0.88688307  1
  In  In28  1  0.50696913  0.67396185  0.36892599  1
  In  In29  1  0.48423757  0.65375767  0.86567864  1
  In  In30  1  0.83887756  -0.00199239  0.37474612  1
  In  In31  1  0.82660587  -0.00736280  0.87299590  1
  In  In32  1  0.83422871  0.33938942  0.36601153  1
  In  In33  1  0.82352259  0.32648833  0.87862525  1
  In  In34  1  0.82604339  0.67614056  0.37087001  1
  In  In35  1  0.84431806  0.68061604  0.86612983  1
  In  In36  1  0.00664376  0.18135741  0.37214603  1
  In  In37  1  0.01057438  0.16629080  0.87432998  1
  In  In38  1  0.01941799  0.49942939  0.37433912  1
  In  In39  1  -0.00010402  0.51617583  0.87374746  1
  In  In40  1  0.00578662  0.83810934  0.37735088  1
  In  In41  1  0.00386891  0.83406690  0.87892130  1
  In  In42  1  0.33918712  0.16349908  0.37882490  1
  In  In43  1  0.32882049  0.17182158  0.87695380  1
  In  In44  1  0.32481308  0.49448676  0.36992805  1
  In  In45  1  0.33310432  0.50262800  0.88306959  1
  In  In46  1  0.33289059  0.83320528  0.37625211  1
  In  In47  1  0.32515668  0.81063925  0.87700041  1
  In  In48  1  0.64950157  0.16268920  0.37262708  1
  In  In49  1  0.66533448  0.16448293  0.88058200  1
  In  In50  1  0.66404490  0.50634092  0.36140083  1
  In  In51  1  0.64365465  0.50245641  0.88056243  1
  In  In52  1  0.66578299  0.81720439  0.37079399  1
  In  In53  1  0.67068168  0.83964602  0.86962599  1
  In  In54  1  0.17964285  0.01225071  0.11028221  1
  In  In55  1  0.16294217  -0.01113143  0.62301790  1
  In  In56  1  0.16296348  0.32798436  0.12238056  1
  In  In57  1  0.18092820  0.34146822  0.61996584  1
  In  In58  1  0.18365715  0.68162686  0.11209896  1
  In  In59  1  0.16663346  0.67030523  0.62741100  1
  In  In60  1  0.47935428  -0.00064458  0.12403662  1
  In  In61  1  0.50621199  0.00460391  0.62368152  1
  In  In62  1  0.51536093  0.34671613  0.10871104  1
  In  In63  1  0.48922060  0.31394119  0.62322582  1
  In  In64  1  0.50362572  0.65892925  0.13423917  1
  In  In65  1  0.48758403  0.67357584  0.63114498  1
  In  In66  1  0.85322021  -0.00053981  0.11683785  1
  In  In67  1  0.83807189  -0.00660920  0.63460294  1
  In  In68  1  0.83524725  0.33858785  0.13228454  1
  In  In69  1  0.83264637  0.33054803  0.62647845  1
  In  In70  1  0.82287376  0.66860617  0.12006544  1
  In  In71  1  0.83187840  0.67098130  0.63396953  1
  In  In72  1  0.83388329  0.16312145  0.50608400  1
  In  In73  1  0.83818579  0.50142870  0.50769257  1
  In  In74  1  -0.00257102  0.66489203  0.24850844  1
  In  In75  1  0.83277951  0.16531272  -0.00124421  1
  In  In76  1  0.00760781  0.00272674  0.24944881  1
  In  In77  1  0.33911664  0.33955228  0.24333268  1
  In  In78  1  0.49597245  0.83048862  -0.00488467  1
  In  In79  1  0.66050301  0.33559118  0.75181073  1
  In  In80  1  0.33425216  -0.00267303  0.74961139  1
  In  In81  1  0.49594786  0.49769920  0.49595114  1
  In  In82  1  0.66493634  -0.00244843  0.25048402  1
  In  In83  1  0.83422538  0.50335848  -0.00014040  1
  In  In84  1  0.00648768  0.33786422  0.74646786  1
  In  In85  1  0.83741911  0.83424282  0.49611392  1
  Cu  Cu86  1  0.83105395  0.49931741  0.24547533  1
  Cu  Cu87  1  0.17088581  0.50205163  0.24933337  1
  Cu  Cu88  1  0.82871066  0.82680424  0.24048334  1
  Cu  Cu89  1  0.66134881  0.66858373  0.49843648  1
  Cu  Cu90  1  0.17208841  0.50318425  0.75493496  1
  Cu  Cu91  1  0.50075775  0.83001255  0.75087073  1
  Cu  Cu92  1  0.49626106  0.16986402  0.24846556  1
  Cu  Cu93  1  0.83103173  0.50837518  0.75302511  1
  Cu  Cu94  1  0.33164814  0.66925491  0.50278549  1
  Cu  Cu95  1  0.00485350  0.66978642  -0.00279529  1
  Cu  Cu96  1  0.49355438  0.83552153  0.24954408  1
  Cu  Cu97  1  0.66547131  0.66662244  -0.00307455  1
  Cu  Cu98  1  0.17307212  0.83098463  0.25078731  1
  Cu  Cu99  1  0.33448511  -0.00120038  0.50334464  1
  Cu  Cu100  1  0.01055068  -0.00331641  0.50225497  1
  Cu  Cu101  1  0.49237451  0.49695890  0.75355446  1
  Cu  Cu102  1  0.32870051  0.33188465  0.00312754  1
  Cu  Cu103  1  0.83101590  0.15884033  0.75458217  1
  Cu  Cu104  1  0.00008426  0.33026450  0.00186706  1
  Cu  Cu105  1  0.16404049  0.83032958  0.75316537  1
  Cu  Cu106  1  0.17029111  0.16420395  0.75370445  1
  Cu  Cu107  1  0.01328093  0.33491239  0.49909338  1
  Cu  Cu108  1  0.65629383  -0.00360333  0.50312629  1
  Cu  Cu109  1  0.66069439  0.32375113  0.49359663  1
  Cu  Cu110  1  0.83708436  0.17321767  0.24735311  1
  Cu  Cu111  1  0.66449924  0.00111241  -0.00457692  1
  Cu  Cu112  1  0.83245138  0.83427921  0.75312993  1
  Cu  Cu113  1  0.32872387  0.00126331  -0.00412482  1
  Cu  Cu114  1  0.33116417  0.33269877  0.49778241  1
  Se  Se115  1  0.05778559  0.05591622  0.05781977  1
  Se  Se116  1  0.08889797  0.08397682  0.55525861  1
  Se  Se117  1  0.08490434  0.41501681  0.05124820  1
  Se  Se118  1  0.09050744  0.42068260  0.55420905  1
  Se  Se119  1  0.08818148  0.75552276  0.04806293  1
  Se  Se120  1  0.08867819  0.75591764  0.55723355  1
  Se  Se121  1  0.41279907  0.08338045  0.04899573  1
  Se  Se122  1  0.41762298  0.08293684  0.55649039  1
  Se  Se123  1  0.41667904  0.41928284  0.04737816  1
  Se  Se124  1  0.40747237  0.41434606  0.56150671  1
  Se  Se125  1  0.41652788  0.74766292  0.06522523  1
  Se  Se126  1  0.41954004  0.75105043  0.55206401  1
  Se  Se127  1  0.74202451  0.07705966  0.06237195  1
  Se  Se128  1  0.74271707  0.07186140  0.56299571  1
  Se  Se129  1  0.74726876  0.41617183  0.06142729  1
  Se  Se130  1  0.73805300  0.40333539  0.55575345  1
  Se  Se131  1  0.75055686  0.75178630  0.04578522  1
  Se  Se132  1  0.74493076  0.74710908  0.55772906  1
  Se  Se133  1  0.24482189  0.24578352  0.05292040  1
  Se  Se134  1  0.25196346  0.24707501  0.55317801  1
  Se  Se135  1  0.23148873  0.56750817  0.05377481  1
  Se  Se136  1  0.25012931  0.58580056  0.55759937  1
  Se  Se137  1  0.25452140  0.91209397  0.05145144  1
  Se  Se138  1  0.24832657  0.91377193  0.55228032  1
  Se  Se139  1  0.56942637  0.23361059  0.05063481  1
  Se  Se140  1  0.57894231  0.24576443  0.55086765  1
  Se  Se141  1  0.58681597  0.58911181  0.05755577  1
  Se  Se142  1  0.58550923  0.58560478  0.55918493  1
  Se  Se143  1  0.58321855  0.92341744  0.05854566  1
  Se  Se144  1  0.57758548  0.90976940  0.55569188  1
  Se  Se145  1  0.92237403  0.25102395  0.06391378  1
  Se  Se146  1  0.93045169  0.25738846  0.55984295  1
  Se  Se147  1  0.92806915  0.58921595  0.06107795  1
  Se  Se148  1  0.92481252  0.59670091  0.56248935  1
  Se  Se149  1  0.90174001  0.90563293  0.04287055  1
  Se  Se150  1  0.92466710  0.92005561  0.56035071  1
  Se  Se151  1  0.09198506  0.24770084  0.44678735  1
  Se  Se152  1  0.08257077  0.24364871  0.95046344  1
  Se  Se153  1  0.07655593  0.58396514  0.45065498  1
  Se  Se154  1  0.08502472  0.58078197  0.94825727  1
  Se  Se155  1  0.08963439  0.91148046  0.44815275  1
  Se  Se156  1  0.09550581  0.90574477  0.94698677  1
  Se  Se157  1  0.41943516  0.25191238  0.44660692  1
  Se  Se158  1  0.41216116  0.25108674  0.94726716  1
  Se  Se159  1  0.40835255  0.59021355  0.43768365  1
  Se  Se160  1  0.42540937  0.58038200  0.94815174  1
  Se  Se161  1  0.41567691  0.91448354  0.44793497  1
  Se  Se162  1  0.40689368  0.92128553  0.93321646  1
  Se  Se163  1  0.74929522  0.24943162  0.43720235  1
  Se  Se164  1  0.73424549  0.26183791  0.95302392  1
  Se  Se165  1  0.74453987  0.58617095  0.44263979  1
  Se  Se166  1  0.74843292  0.59060045  0.93448344  1
  Se  Se167  1  0.73941821  0.92414553  0.43926993  1
  Se  Se168  1  0.74678743  0.91441320  0.94674817  1
  Se  Se169  1  0.25388029  0.08439823  0.44833217  1
  Se  Se170  1  0.24573140  0.08805483  0.94497122  1
  Se  Se171  1  0.24989078  0.42029232  0.44693863  1
  Se  Se172  1  0.24653224  0.41557700  0.94814452  1
  Se  Se173  1  0.24914015  0.75060921  0.44589781  1
  Se  Se174  1  0.25854081  0.73777067  0.95628941  1
  Se  Se175  1  0.57954538  0.08570338  0.44988933  1
  Se  Se176  1  0.57784659  0.08389515  0.94773398  1
  Se  Se177  1  0.58916006  0.41157407  0.43484615  1
  Se  Se178  1  0.58892800  0.41347065  0.95516253  1
  Se  Se179  1  0.57978913  0.75326104  0.44656840  1
  Se  Se180  1  0.58533695  0.74314455  0.93319540  1
  Se  Se181  1  0.92795415  0.07740221  0.44299967  1
  Se  Se182  1  0.92107464  0.07800021  0.93798613  1
  Se  Se183  1  0.92242416  0.40979756  0.44323959  1
  Se  Se184  1  0.92314078  0.40862754  0.93846156  1
  Se  Se185  1  0.92579595  0.73812733  0.44048029  1
  Se  Se186  1  0.91616337  0.74976718  0.94640027  1
  Se  Se187  1  0.25471299  0.25015529  0.30829506  1
  Se  Se188  1  0.25023642  0.25205496  0.80304163  1
  Se  Se189  1  0.24944466  0.58729542  0.30407079  1
  Se  Se190  1  0.25180863  0.58573210  0.81172407  1
  Se  Se191  1  0.25172024  0.91730866  0.30543665  1
  Se  Se192  1  0.24525181  0.91103460  0.81292533  1
  Se  Se193  1  0.58355751  0.25075270  0.29955433  1
  Se  Se194  1  0.57503100  0.25112366  0.81594168  1
  Se  Se195  1  0.58648538  0.59454819  0.29808776  1
  Se  Se196  1  0.58137133  0.58124862  0.79986510  1
  Se  Se197  1  0.57443468  0.91309332  0.31305840  1
  Se  Se198  1  0.58347327  0.91672213  0.79977290  1
  Se  Se199  1  0.92035172  0.25452364  0.30214386  1
  Se  Se200  1  0.91053653  0.24843561  0.80669060  1
  Se  Se201  1  0.90946513  0.57404259  0.31219806  1
  Se  Se202  1  0.92166077  0.58995258  0.79895900  1
  Se  Se203  1  0.90912744  0.90470631  0.30218947  1
  Se  Se204  1  0.91747978  0.91379044  0.80828769  1
  Se  Se205  1  0.09452058  0.08852165  0.31248662  1
  Se  Se206  1  0.08327154  0.08161268  0.80203987  1
  Se  Se207  1  0.09011066  0.41526613  0.30167420  1
  Se  Se208  1  0.09049281  0.42092060  0.81431766  1
  Se  Se209  1  0.08928866  0.75210831  0.30938962  1
  Se  Se210  1  0.08443743  0.74658879  0.81021856  1
  Se  Se211  1  0.41628535  0.08528826  0.30313027  1
  Se  Se212  1  0.42048886  0.09001829  0.80830931  1
  Se  Se213  1  0.42936757  0.43112038  0.30374673  1
  Se  Se214  1  0.41232606  0.41706799  0.81098054  1
  Se  Se215  1  0.41350163  0.75083258  0.30491310  1
  Se  Se216  1  0.41171102  0.74916992  0.79993630  1
  Se  Se217  1  0.75982868  0.09116070  0.30815496  1
  Se  Se218  1  0.74387798  0.08295054  0.80942174  1
  Se  Se219  1  0.74642949  0.41622811  0.29897686  1
  Se  Se220  1  0.75306095  0.42615187  0.81165987  1
  Se  Se221  1  0.74581822  0.74550609  0.29435197  1
  Se  Se222  1  0.74548859  0.74888489  0.80150087  1
  Se  Se223  1  0.24051470  0.08610326  0.19165350  1
  Se  Se224  1  0.24645561  0.08701764  0.68762161  1
  Se  Se225  1  0.24751565  0.42580558  0.18366845  1
  Se  Se226  1  0.24915334  0.41320947  0.70202535  1
  Se  Se227  1  0.25333981  0.74551148  0.19710169  1
  Se  Se228  1  0.25015382  0.74983953  0.69895220  1
  Se  Se229  1  0.57626745  0.08575848  0.18874520  1
  Se  Se230  1  0.57873673  0.07905673  0.70191979  1
  Se  Se231  1  0.58312594  0.40742882  0.19409152  1
  Se  Se232  1  0.57049751  0.42176553  0.68675804  1
  Se  Se233  1  0.58126941  0.75669572  0.19628029  1
  Se  Se234  1  0.58362046  0.74605532  0.69625709  1
  Se  Se235  1  0.91821715  0.09450319  0.18899958  1
  Se  Se236  1  0.91849357  0.07864729  0.70293959  1
  Se  Se237  1  0.92205999  0.41680311  0.20077351  1
  Se  Se238  1  0.90868280  0.42831577  0.69023520  1
  Se  Se239  1  0.91887351  0.75756464  0.18146910  1
  Se  Se240  1  0.91744667  0.75191908  0.70042208  1
  Se  Se241  1  0.08358964  0.25891508  0.20063807  1
  Se  Se242  1  0.09208664  0.24347679  0.68797537  1
  Se  Se243  1  0.09244124  0.58375147  0.18750720  1
  Se  Se244  1  0.08763240  0.58546188  0.70060992  1
  Se  Se245  1  0.09248569  0.90974507  0.18978786  1
  Se  Se246  1  0.08440865  0.92141124  0.70284376  1
  Se  Se247  1  0.42316477  0.24713919  0.18181083  1
  Se  Se248  1  0.41380346  0.25053559  0.70308247  1
  Se  Se249  1  0.40769433  0.58433465  0.19662987  1
  Se  Se250  1  0.41278182  0.58461291  0.69942225  1
  Se  Se251  1  0.40961974  0.92260320  0.20169708  1
  Se  Se252  1  0.41888966  0.90603014  0.68706640  1
  Se  Se253  1  0.74895993  0.25437741  0.19761761  1
  Se  Se254  1  0.75286724  0.23995309  0.69275967  1
  Se  Se255  1  0.75140861  0.58570187  0.19323922  1
  Se  Se256  1  0.74477570  0.58885189  0.70002131  1
  Se  Se257  1  0.75528633  0.91613845  0.18384538  1
  Se  Se258  1  0.74746177  0.91705775  0.69990980  1
