# generated using pymatgen
data_In86Cu29Se144
_symmetry_space_group_name_H-M   'P 1'
_cell_length_a   17.56970178
_cell_length_b   17.56698826
_cell_length_c   23.43369797
_cell_angle_alpha   90.01565973
_cell_angle_beta   89.99476268
_cell_angle_gamma   90.01919019
_symmetry_Int_Tables_number   1
_chemical_formula_structural   In86Cu29Se144
_chemical_formula_sum   'In86 Cu29 Se144'
_cell_volume   7232.73389459
_cell_formula_units_Z   1
loop_
 _symmetry_equiv_pos_site_id
 _symmetry_equiv_pos_as_xyz
  1  'x, y, z'
loop_
 _atom_site_type_symbol
 _atom_site_label
 _atom_site_symmetry_multiplicity
 _atom_site_fract_x
 _atom_site_fract_y
 _atom_site_fract_z
 _atom_site_occupancy
  In  In0  1  -0.01568362  0.19199188  0.15329008  1
  In  In1  1  0.01103863  0.17823148  0.61559615  1
  In  In2  1  -0.01454332  0.49947941  0.13042505  1
  In  In3  1  -0.00108889  0.50224666  0.62268760  1
  In  In4  1  -0.00342087  0.84140684  0.12841089  1
  In  In5  1  0.00874070  0.82165309  0.62517939  1
  In  In6  1  0.32103750  0.16777733  0.13719895  1
  In  In7  1  0.33186145  0.17166115  0.61868354  1
  In  In8  1  0.35077537  0.49488706  0.12755669  1
  In  In9  1  0.33137353  0.49552326  0.62336033  1
  In  In10  1  0.32677383  0.83886996  0.13471245  1
  In  In11  1  0.32432751  0.84017108  0.62563710  1
  In  In12  1  0.68299003  0.16594062  0.13012959  1
  In  In13  1  0.67044042  0.17075313  0.61333546  1
  In  In14  1  0.66796717  0.49549721  0.12056705  1
  In  In15  1  0.67668128  0.50283404  0.62225117  1
  In  In16  1  0.66770254  0.82292189  0.12221734  1
  In  In17  1  0.65583636  0.82469545  0.62511023  1
  In  In18  1  0.16475348  0.00029774  0.38428322  1
  In  In19  1  0.17086263  -0.00880345  0.86920465  1
  In  In20  1  0.15069874  0.34667805  0.37919049  1
  In  In21  1  0.16687048  0.33288552  0.86168862  1
  In  In22  1  0.17794248  0.64868489  0.38335102  1
  In  In23  1  0.16623622  0.67162575  0.86020055  1
  In  In24  1  0.48940462  0.02668123  0.37924700  1
  In  In25  1  0.48762513  0.00660810  0.87209614  1
  In  In26  1  0.50828045  0.32578963  0.37825590  1
  In  In27  1  0.50047393  0.34170354  0.87380908  1
  In  In28  1  0.48491117  0.66773036  0.37759031  1
  In  In29  1  0.49083087  0.65347830  0.86451412  1
  In  In30  1  0.87942854  0.00976689  0.35669574  1
  In  In31  1  0.82966035  0.00623839  0.88462545  1
  In  In32  1  0.83218860  0.33712251  0.37118769  1
  In  In33  1  0.83582615  0.32722765  0.88474789  1
  In  In34  1  0.82958927  0.65803639  0.37459387  1
  In  In35  1  0.83129050  0.66355845  0.87242718  1
  In  In36  1  0.00013978  0.16720296  0.38037141  1
  In  In37  1  -0.00962432  0.17291073  0.87472023  1
  In  In38  1  0.00555601  0.48738778  0.37423240  1
  In  In39  1  -0.00971412  0.49121867  0.86655416  1
  In  In40  1  0.00318657  0.85923433  0.36676205  1
  In  In41  1  -0.00077484  0.82469299  0.87426122  1
  In  In42  1  0.33303081  0.15785519  0.38327100  1
  In  In43  1  0.33131101  0.16283528  0.86106988  1
  In  In44  1  0.32357818  0.51054029  0.38257446  1
  In  In45  1  0.33673628  0.50682649  0.86607759  1
  In  In46  1  0.32147297  0.82924413  0.37932607  1
  In  In47  1  0.33136947  0.83054473  0.86340394  1
  In  In48  1  0.65663923  0.18867650  0.37512947  1
  In  In49  1  0.67765386  0.18075576  0.87689897  1
  In  In50  1  0.68192094  0.47979807  0.38427712  1
  In  In51  1  0.65623723  0.49868160  0.88200733  1
  In  In52  1  0.67270700  0.83281586  0.37352176  1
  In  In53  1  0.68079983  0.83531014  0.87748999  1
  In  In54  1  0.15572468  0.01678568  0.15264060  1
  In  In55  1  0.19668867  0.01982936  0.59399578  1
  In  In56  1  0.15408707  0.33003205  0.14439844  1
  In  In57  1  0.16381664  0.33654153  0.62204741  1
  In  In58  1  0.16559093  0.67833994  0.12990860  1
  In  In59  1  0.16560282  0.66614830  0.62138781  1
  In  In60  1  0.49073277  0.00720858  0.13511877  1
  In  In61  1  0.48263892  -0.00070264  0.61436941  1
  In  In62  1  0.49985117  0.35104411  0.12526830  1
  In  In63  1  0.48828737  0.31986982  0.61423426  1
  In  In64  1  0.50789451  0.65682165  0.12792896  1
  In  In65  1  0.50971853  0.65339613  0.63130851  1
  In  In66  1  0.83758319  0.00368610  0.12528500  1
  In  In67  1  0.82704028  0.01112013  0.62300347  1
  In  In68  1  0.83959269  0.33653885  0.13298283  1
  In  In69  1  0.84338514  0.34189468  0.61966274  1
  In  In70  1  0.82886882  0.65827928  0.11540238  1
  In  In71  1  0.84657057  0.65670870  0.63368265  1
  In  In72  1  0.33149171  0.33290909  0.26008360  1
  In  In73  1  0.50872282  0.17262298  0.00243198  1
  In  In74  1  0.66287454  0.33761390  0.75586486  1
  In  In75  1  0.83853583  0.83084842  0.49595540  1
  In  In76  1  0.16191241  0.16792353  0.01434548  1
  In  In77  1  0.16609038  0.50327821  -0.00012256  1
  In  In78  1  0.00480224  0.65981513  0.25433226  1
  In  In79  1  0.50450243  0.82930694  0.00208176  1
  In  In80  1  0.16319062  0.83452446  -0.00398340  1
  In  In81  1  0.66398236  0.66127891  0.24743913  1
  In  In82  1  0.65955128  -0.00701969  0.75104012  1
  In  In83  1  0.00813908  -0.00333453  0.74691447  1
  In  In84  1  0.66441093  0.00393678  0.24889383  1
  In  In85  1  0.50034294  0.83533362  0.49675335  1
  Cu  Cu86  1  0.67106495  0.66290689  -0.00222484  1
  Cu  Cu87  1  0.32325802  -0.00009827  0.00302898  1
  Cu  Cu88  1  0.17119966  0.83950896  0.74089061  1
  Cu  Cu89  1  0.66791013  0.33674328  0.49908333  1
  Cu  Cu90  1  -0.00836765  0.33260713  0.49887741  1
  Cu  Cu91  1  0.32749911  0.33522379  0.49527254  1
  Cu  Cu92  1  0.83522290  0.50489222  0.74735908  1
  Cu  Cu93  1  0.16501934  0.50173614  0.74127313  1
  Cu  Cu94  1  0.67176318  0.00205592  0.00336171  1
  Cu  Cu95  1  -0.00126660  0.66304077  0.49745606  1
  Cu  Cu96  1  0.67095157  0.65670864  0.50353780  1
  Cu  Cu97  1  0.67557115  0.00764613  0.49092191  1
  Cu  Cu98  1  0.17075952  0.16848314  0.73688283  1
  Cu  Cu99  1  0.33782302  0.33902586  0.00010530  1
  Cu  Cu100  1  0.83806293  0.17730715  0.74916066  1
  Cu  Cu101  1  0.83348071  0.82564151  0.75152501  1
  Cu  Cu102  1  -0.01218097  0.00624288  0.00798561  1
  Cu  Cu103  1  -0.00908177  0.66111867  -0.00718286  1
  Cu  Cu104  1  -0.00050532  0.00263660  0.49898283  1
  Cu  Cu105  1  0.50205641  0.50886005  0.25331112  1
  Cu  Cu106  1  -0.00273011  0.32839003  0.00689325  1
  Cu  Cu107  1  0.34156255  0.65913655  -0.00215438  1
  Cu  Cu108  1  0.49674343  0.49141604  0.74634281  1
  Cu  Cu109  1  0.49388295  0.82474445  0.74359326  1
  Cu  Cu110  1  0.48946990  0.84328380  0.25934558  1
  Cu  Cu111  1  0.33640290  0.66255210  0.50680709  1
  Cu  Cu112  1  0.17041502  0.83160749  0.25641612  1
  Cu  Cu113  1  0.83159284  0.16950831  0.25579062  1
  Cu  Cu114  1  0.49199981  0.15807946  0.74106481  1
  Se  Se115  1  0.07082371  0.07772021  0.07119993  1
  Se  Se116  1  0.08471534  0.09028479  0.54572577  1
  Se  Se117  1  0.08235659  0.40868117  0.06220351  1
  Se  Se118  1  0.07619351  0.41519574  0.55310514  1
  Se  Se119  1  0.07152571  0.74212098  0.05401825  1
  Se  Se120  1  0.08384448  0.74756595  0.54855745  1
  Se  Se121  1  0.40623479  0.08400250  0.05833038  1
  Se  Se122  1  0.41706935  0.09275696  0.54827646  1
  Se  Se123  1  0.42401871  0.42478562  0.04703633  1
  Se  Se124  1  0.41324684  0.41546433  0.55111984  1
  Se  Se125  1  0.40908101  0.74542217  0.06305440  1
  Se  Se126  1  0.42055924  0.74426825  0.56331057  1
  Se  Se127  1  0.75560869  0.08612106  0.05492030  1
  Se  Se128  1  0.75798886  0.09031700  0.54653319  1
  Se  Se129  1  0.77120904  0.42704466  0.06251519  1
  Se  Se130  1  0.75403950  0.41838413  0.55212482  1
  Se  Se131  1  0.75098484  0.75056315  0.04956937  1
  Se  Se132  1  0.74896474  0.74341431  0.56026281  1
  Se  Se133  1  0.25573652  0.26713233  0.06474750  1
  Se  Se134  1  0.24515243  0.25372233  0.55179635  1
  Se  Se135  1  0.25720189  0.59052816  0.06237102  1
  Se  Se136  1  0.24755019  0.57891466  0.55489368  1
  Se  Se137  1  0.24168980  0.92414786  0.06426476  1
  Se  Se138  1  0.25460254  0.90438786  0.54272733  1
  Se  Se139  1  0.59328306  0.25780717  0.06648748  1
  Se  Se140  1  0.58272216  0.24878268  0.54716630  1
  Se  Se141  1  0.58544110  0.58332743  0.05296939  1
  Se  Se142  1  0.58285389  0.57617293  0.55419020  1
  Se  Se143  1  0.58521647  0.92907748  0.06359465  1
  Se  Se144  1  0.59735671  0.92726799  0.55377260  1
  Se  Se145  1  0.91871933  0.24432687  0.06342190  1
  Se  Se146  1  0.91001823  0.24546097  0.55177747  1
  Se  Se147  1  0.91666833  0.57499018  0.05019047  1
  Se  Se148  1  0.91348228  0.58409369  0.55242258  1
  Se  Se149  1  0.91098046  0.91192214  0.05531189  1
  Se  Se150  1  0.92230459  0.92244604  0.56276455  1
  Se  Se151  1  0.08140676  0.25270850  0.44838367  1
  Se  Se152  1  0.08319093  0.25715594  0.94316524  1
  Se  Se153  1  0.07954602  0.57539535  0.44547643  1
  Se  Se154  1  0.08076803  0.59069932  0.93360152  1
  Se  Se155  1  0.08071091  0.91112722  0.45208438  1
  Se  Se156  1  0.06931066  0.93144095  0.94199865  1
  Se  Se157  1  0.41446488  0.25233985  0.44503575  1
  Se  Se158  1  0.40624755  0.24799385  0.93927874  1
  Se  Se159  1  0.41913372  0.58050563  0.45158409  1
  Se  Se160  1  0.42068050  0.57516502  0.94320488  1
  Se  Se161  1  0.41023179  0.92568991  0.44067871  1
  Se  Se162  1  0.40572744  0.91927150  0.94454319  1
  Se  Se163  1  0.75170427  0.25458513  0.44405106  1
  Se  Se164  1  0.75226609  0.24849847  0.95420391  1
  Se  Se165  1  0.75615707  0.57768772  0.44868124  1
  Se  Se166  1  0.75147040  0.57913713  0.94270320  1
  Se  Se167  1  0.75631699  0.92556466  0.43466610  1
  Se  Se168  1  0.75395966  0.91548447  0.95196278  1
  Se  Se169  1  0.24667257  0.08254578  0.45299105  1
  Se  Se170  1  0.24787231  0.08259202  0.94156575  1
  Se  Se171  1  0.24254978  0.42116962  0.44709776  1
  Se  Se172  1  0.25287973  0.41148273  0.93793274  1
  Se  Se173  1  0.25090878  0.74222311  0.45190711  1
  Se  Se174  1  0.25825660  0.74093174  0.94011408  1
  Se  Se175  1  0.58810727  0.09212925  0.44398655  1
  Se  Se176  1  0.59046998  0.07533754  0.93801918  1
  Se  Se177  1  0.57859588  0.41832799  0.44918260  1
  Se  Se178  1  0.59814285  0.39204213  0.94468774  1
  Se  Se179  1  0.59507514  0.73977117  0.44260775  1
  Se  Se180  1  0.58661975  0.74096436  0.93617320  1
  Se  Se181  1  0.91109953  0.08399454  0.44873718  1
  Se  Se182  1  0.91497683  0.09192253  0.94832150  1
  Se  Se183  1  0.91255647  0.41872277  0.44430147  1
  Se  Se184  1  0.92381925  0.41478159  0.94725923  1
  Se  Se185  1  0.92766770  0.74504427  0.43231639  1
  Se  Se186  1  0.91141643  0.75117291  0.94282845  1
  Se  Se187  1  0.24059919  0.24855000  0.32032917  1
  Se  Se188  1  0.25229188  0.25080555  0.79545255  1
  Se  Se189  1  0.25598935  0.58688280  0.30296260  1
  Se  Se190  1  0.24891255  0.58338984  0.79772572  1
  Se  Se191  1  0.24724758  0.92028639  0.31119658  1
  Se  Se192  1  0.25492751  0.92103138  0.79613885  1
  Se  Se193  1  0.58399563  0.25992731  0.29724295  1
  Se  Se194  1  0.57178411  0.23405432  0.80614920  1
  Se  Se195  1  0.58259678  0.58065260  0.31944245  1
  Se  Se196  1  0.58244732  0.57088296  0.80222424  1
  Se  Se197  1  0.57441277  0.91820418  0.31678705  1
  Se  Se198  1  0.56896798  0.90262549  0.81215817  1
  Se  Se199  1  0.92052016  0.24932534  0.30814787  1
  Se  Se200  1  0.91779971  0.26070114  0.80447709  1
  Se  Se201  1  0.90819350  0.56869037  0.30602683  1
  Se  Se202  1  0.91916929  0.58841516  0.80169859  1
  Se  Se203  1  0.89943887  0.89281767  0.29338759  1
  Se  Se204  1  0.90738774  0.91727389  0.80940043  1
  Se  Se205  1  0.05507920  0.05447920  0.31950666  1
  Se  Se206  1  0.09329738  0.09493658  0.80789298  1
  Se  Se207  1  0.08125494  0.41493177  0.29597520  1
  Se  Se208  1  0.08300125  0.41919385  0.79871057  1
  Se  Se209  1  0.09041817  0.75134062  0.31722703  1
  Se  Se210  1  0.08412458  0.76173863  0.79722851  1
  Se  Se211  1  0.41313393  0.09532238  0.30192629  1
  Se  Se212  1  0.40922179  0.07313441  0.79376016  1
  Se  Se213  1  0.42302849  0.42730331  0.31528302  1
  Se  Se214  1  0.41309247  0.41106781  0.80172569  1
  Se  Se215  1  0.40976013  0.75314505  0.30805157  1
  Se  Se216  1  0.41057166  0.74184039  0.79870663  1
  Se  Se217  1  0.75502141  0.08436604  0.31547586  1
  Se  Se218  1  0.75602468  0.09014971  0.80386052  1
  Se  Se219  1  0.74276152  0.41008057  0.30075501  1
  Se  Se220  1  0.75927189  0.42364227  0.81155520  1
  Se  Se221  1  0.75811225  0.75406134  0.30319044  1
  Se  Se222  1  0.74528286  0.74738409  0.80374252  1
  Se  Se223  1  0.26601358  0.07361150  0.20978929  1
  Se  Se224  1  0.25100897  0.08087467  0.68632003  1
  Se  Se225  1  0.24870107  0.42625597  0.19368052  1
  Se  Se226  1  0.24875251  0.41401913  0.69366489  1
  Se  Se227  1  0.25189154  0.74763983  0.20227978  1
  Se  Se228  1  0.25048156  0.74745340  0.69216225  1
  Se  Se229  1  0.57460107  0.10176910  0.19517182  1
  Se  Se230  1  0.58208452  0.08478817  0.68395766  1
  Se  Se231  1  0.58305526  0.42728849  0.19709319  1
  Se  Se232  1  0.57777372  0.41411991  0.68379137  1
  Se  Se233  1  0.57002497  0.76332514  0.19769173  1
  Se  Se234  1  0.58666299  0.74327166  0.70030864  1
  Se  Se235  1  0.91096735  0.08074094  0.20270590  1
  Se  Se236  1  0.91585839  0.09190743  0.69105642  1
  Se  Se237  1  0.94709019  0.39243990  0.19940707  1
  Se  Se238  1  0.91737055  0.41971484  0.69502657  1
  Se  Se239  1  0.91350344  0.74249697  0.18718575  1
  Se  Se240  1  0.92281467  0.75070140  0.69813970  1
  Se  Se241  1  0.11730032  0.20837308  0.19853665  1
  Se  Se242  1  0.08098617  0.25346464  0.69438015  1
  Se  Se243  1  0.09344330  0.57416978  0.18938430  1
  Se  Se244  1  0.08007848  0.58713658  0.69187653  1
  Se  Se245  1  0.08138091  0.90901343  0.20317544  1
  Se  Se246  1  0.09743255  0.92232843  0.67786515  1
  Se  Se247  1  0.42155355  0.25372524  0.19009406  1
  Se  Se248  1  0.41251173  0.25039817  0.69368732  1
  Se  Se249  1  0.41668099  0.58908488  0.19896057  1
  Se  Se250  1  0.41457514  0.57767420  0.69459036  1
  Se  Se251  1  0.40899239  0.92374306  0.20184035  1
  Se  Se252  1  0.41919040  0.91522000  0.69146211  1
  Se  Se253  1  0.75225598  0.25444125  0.20139893  1
  Se  Se254  1  0.75140294  0.25071306  0.69027026  1
  Se  Se255  1  0.75972161  0.57375468  0.19355760  1
  Se  Se256  1  0.74661128  0.58673523  0.69768268  1
  Se  Se257  1  0.75080681  0.90864553  0.19027074  1
  Se  Se258  1  0.75647346  0.90679539  0.68957477  1
