# generated using pymatgen
data_In86Cu29Se144
_symmetry_space_group_name_H-M   'P 1'
_cell_length_a   17.57802229
_cell_length_b   17.57881907
_cell_length_c   23.44186965
_cell_angle_alpha   90.01925350
_cell_angle_beta   89.96818804
_cell_angle_gamma   89.96232567
_symmetry_Int_Tables_number   1
_chemical_formula_structural   In86Cu29Se144
_chemical_formula_sum   'In86 Cu29 Se144'
_cell_volume   7243.55510488
_cell_formula_units_Z   1
loop_
 _symmetry_equiv_pos_site_id
 _symmetry_equiv_pos_as_xyz
  1  'x, y, z'
loop_
 _atom_site_type_symbol
 _atom_site_label
 _atom_site_symmetry_multiplicity
 _atom_site_fract_x
 _atom_site_fract_y
 _atom_site_fract_z
 _atom_site_occupancy
  In  In0  1  -0.01899602  0.17330504  0.14670161  1
  In  In1  1  -0.00440714  0.18161025  0.61941818  1
  In  In2  1  -0.01133006  0.50936166  0.12521214  1
  In  In3  1  0.00724763  0.50995679  0.61734561  1
  In  In4  1  -0.00137403  0.82748722  0.12102313  1
  In  In5  1  -0.02229054  0.83089795  0.62945838  1
  In  In6  1  0.34591448  0.16994689  0.12336152  1
  In  In7  1  0.34996576  0.15999580  0.63059919  1
  In  In8  1  0.34252243  0.48756573  0.13192156  1
  In  In9  1  0.31331615  0.49779750  0.62512810  1
  In  In10  1  0.31506215  0.83132692  0.11978034  1
  In  In11  1  0.34091611  0.84488456  0.62875811  1
  In  In12  1  0.67164182  0.19134407  0.12915624  1
  In  In13  1  0.66563451  0.16859521  0.62231307  1
  In  In14  1  0.67029405  0.49647222  0.12340022  1
  In  In15  1  0.66555655  0.48535974  0.62449968  1
  In  In16  1  0.66690943  0.81444792  0.12307853  1
  In  In17  1  0.68512919  0.83787652  0.63223382  1
  In  In18  1  0.16314998  0.01262550  0.37598001  1
  In  In19  1  0.16624419  -0.01646552  0.87140252  1
  In  In20  1  0.17164184  0.33757825  0.36915260  1
  In  In21  1  0.16805705  0.32749270  0.87582533  1
  In  In22  1  0.15306827  0.65152832  0.36472687  1
  In  In23  1  0.17068466  0.68033267  0.87922317  1
  In  In24  1  0.51017332  0.00314353  0.38128216  1
  In  In25  1  0.51495738  0.00971501  0.86637182  1
  In  In26  1  0.49358140  0.32492886  0.37187046  1
  In  In27  1  0.50124469  0.33507593  0.87718307  1
  In  In28  1  0.49711220  0.65863989  0.36301063  1
  In  In29  1  0.48914583  0.66170142  0.87978347  1
  In  In30  1  0.83626235  -0.01045957  0.38202157  1
  In  In31  1  0.81969909  -0.00120608  0.87223393  1
  In  In32  1  0.83445822  0.33321660  0.36972537  1
  In  In33  1  0.83121847  0.34918327  0.87512594  1
  In  In34  1  0.83393971  0.66484969  0.37405088  1
  In  In35  1  0.84356752  0.66027909  0.88471284  1
  In  In36  1  -0.01638083  0.15594844  0.35795222  1
  In  In37  1  -0.00045406  0.17347917  0.87626625  1
  In  In38  1  -0.00348851  0.49753276  0.37205479  1
  In  In39  1  -0.01612452  0.50173078  0.88411811  1
  In  In40  1  -0.00815824  0.81871953  0.36683853  1
  In  In41  1  0.00571584  0.82347099  0.88757559  1
  In  In42  1  0.33305808  0.17716554  0.37971857  1
  In  In43  1  0.34672780  0.18064839  0.86918948  1
  In  In44  1  0.32334647  0.48953149  0.37077132  1
  In  In45  1  0.34256116  0.50594505  0.87884753  1
  In  In46  1  0.34214290  0.82881256  0.37326058  1
  In  In47  1  0.32647798  0.83074614  0.87151153  1
  In  In48  1  0.65893467  0.17376202  0.37850862  1
  In  In49  1  0.65928171  0.15925121  0.86949481  1
  In  In50  1  0.68059946  0.50857107  0.36733917  1
  In  In51  1  0.67434026  0.49241773  0.87744411  1
  In  In52  1  0.67979749  0.83337836  0.37561308  1
  In  In53  1  0.67220807  0.84599116  0.87430588  1
  In  In54  1  0.15675546  -0.01356835  0.12085617  1
  In  In55  1  0.17865735  0.00912272  0.62622354  1
  In  In56  1  0.16120692  0.34115903  0.13578279  1
  In  In57  1  0.16593794  0.35067510  0.62678851  1
  In  In58  1  0.15431231  0.67652567  0.13150417  1
  In  In59  1  0.15624753  0.64442825  0.62420069  1
  In  In60  1  0.48984932  0.00860646  0.11999771  1
  In  In61  1  0.48736563  0.01483837  0.63637851  1
  In  In62  1  0.50201999  0.33389559  0.12426088  1
  In  In63  1  0.51210937  0.32366749  0.63157948  1
  In  In64  1  0.51458400  0.64943148  0.13152792  1
  In  In65  1  0.50120300  0.67376642  0.62509274  1
  In  In66  1  0.84866909  0.00375195  0.12848172  1
  In  In67  1  0.82479504  -0.00641355  0.61805910  1
  In  In68  1  0.82527072  0.33568789  0.13385576  1
  In  In69  1  0.82787018  0.32692771  0.61367734  1
  In  In70  1  0.83633417  0.65968739  0.11862156  1
  In  In71  1  0.84575920  0.67820613  0.61662100  1
  In  In72  1  0.00180762  0.34283335  0.75147940  1
  In  In73  1  0.16168100  0.50796062  0.00931284  1
  In  In74  1  0.50667041  0.83982084  0.50426191  1
  In  In75  1  0.16366879  0.17378985  0.49730138  1
  In  In76  1  0.82975818  0.16648820  0.00711088  1
  In  In77  1  0.67248410  0.66810465  0.75171950  1
  In  In78  1  0.32823416  -0.00045168  0.24893550  1
  In  In79  1  0.66842165  -0.00267314  0.25321465  1
  In  In80  1  0.49966701  0.49330766  0.49958886  1
  In  In81  1  0.33037705  0.66751394  0.74983227  1
  In  In82  1  0.50056509  0.83048912  -0.00511780  1
  In  In83  1  -0.00133138  -0.00049432  0.74967259  1
  In  In84  1  0.16469941  0.16304043  -0.00048537  1
  In  In85  1  0.16191294  0.83239568  0.50471519  1
  Cu  Cu86  1  0.32208207  0.66388316  0.49627481  1
  Cu  Cu87  1  0.50595326  0.49170089  0.24922013  1
  Cu  Cu88  1  0.33456616  0.00651187  -0.00341071  1
  Cu  Cu89  1  0.83414674  0.50196763  0.74996375  1
  Cu  Cu90  1  0.50049635  0.17201175  0.24954876  1
  Cu  Cu91  1  0.33593045  0.66505640  0.00440628  1
  Cu  Cu92  1  0.82323801  0.16975995  0.74419358  1
  Cu  Cu93  1  0.67362438  0.65680669  0.00124298  1
  Cu  Cu94  1  0.83270222  0.50282286  0.24845254  1
  Cu  Cu95  1  0.66306739  0.33342948  0.00068396  1
  Cu  Cu96  1  0.17044750  0.50492501  0.24780501  1
  Cu  Cu97  1  0.66433938  0.00237899  -0.00325530  1
  Cu  Cu98  1  -0.00577980  0.33677897  0.49272733  1
  Cu  Cu99  1  0.50370923  0.17446155  0.75062149  1
  Cu  Cu100  1  0.16554862  0.83132036  0.74980403  1
  Cu  Cu101  1  0.15960933  0.83068928  0.24529730  1
  Cu  Cu102  1  -0.00529462  -0.00091115  0.49718725  1
  Cu  Cu103  1  0.33746974  0.33496961  0.00146871  1
  Cu  Cu104  1  0.83490105  0.82501548  0.24839035  1
  Cu  Cu105  1  -0.00021680  -0.00325401  0.00282240  1
  Cu  Cu106  1  -0.00596962  0.66228261  0.49207928  1
  Cu  Cu107  1  0.16645238  0.16685316  0.25160231  1
  Cu  Cu108  1  0.66870084  0.00761351  0.50320767  1
  Cu  Cu109  1  0.49588578  0.49369114  0.75218594  1
  Cu  Cu110  1  0.33341912  0.33128093  0.49928413  1
  Cu  Cu111  1  0.67091692  0.67001526  0.49722479  1
  Cu  Cu112  1  0.49587064  0.82233475  0.24590580  1
  Cu  Cu113  1  0.67014103  0.33261972  0.49714760  1
  Cu  Cu114  1  0.18010258  0.16753156  0.75001795  1
  Se  Se115  1  0.06864645  0.08598365  0.06415157  1
  Se  Se116  1  0.07567164  0.07674672  0.55837563  1
  Se  Se117  1  0.07409184  0.40968582  0.06132970  1
  Se  Se118  1  0.07923635  0.41344752  0.55072361  1
  Se  Se119  1  0.09836940  0.76301648  0.05409566  1
  Se  Se120  1  0.07041165  0.73992947  0.55987054  1
  Se  Se121  1  0.41829626  0.09115580  0.04624341  1
  Se  Se122  1  0.42010108  0.08305304  0.55354546  1
  Se  Se123  1  0.42133149  0.41863777  0.05385855  1
  Se  Se124  1  0.41070651  0.40962427  0.56420333  1
  Se  Se125  1  0.41909998  0.74511961  0.06466614  1
  Se  Se126  1  0.40470625  0.74394504  0.55416513  1
  Se  Se127  1  0.73902519  0.07618206  0.06694777  1
  Se  Se128  1  0.75536285  0.09111501  0.55347502  1
  Se  Se129  1  0.75191429  0.41016172  0.05494683  1
  Se  Se130  1  0.75015942  0.42052574  0.54842298  1
  Se  Se131  1  0.75271017  0.74752855  0.04992675  1
  Se  Se132  1  0.74871602  0.75425860  0.55394676  1
  Se  Se133  1  0.25164278  0.25775497  0.06025992  1
  Se  Se134  1  0.25311029  0.25451163  0.56410013  1
  Se  Se135  1  0.25868449  0.58932706  0.06932164  1
  Se  Se136  1  0.24231099  0.57773472  0.54869443  1
  Se  Se137  1  0.25048431  0.92383585  0.04849679  1
  Se  Se138  1  0.25990487  0.92541200  0.55359113  1
  Se  Se139  1  0.58170718  0.24750082  0.05330249  1
  Se  Se140  1  0.58397172  0.25283901  0.55144577  1
  Se  Se141  1  0.58526756  0.57650232  0.05185941  1
  Se  Se142  1  0.58916889  0.59081067  0.55748481  1
  Se  Se143  1  0.58657372  0.92057117  0.06020267  1
  Se  Se144  1  0.59252274  0.92691631  0.56737720  1
  Se  Se145  1  0.92209400  0.25466136  0.06343504  1
  Se  Se146  1  0.91377321  0.24836473  0.54355470  1
  Se  Se147  1  0.92511141  0.58967213  0.04677137  1
  Se  Se148  1  0.91249400  0.58037243  0.54997056  1
  Se  Se149  1  0.91327802  0.91600355  0.05474976  1
  Se  Se150  1  0.91476292  0.91417888  0.55156987  1
  Se  Se151  1  0.07369250  0.25376161  0.43239697  1
  Se  Se152  1  0.07178184  0.26176990  0.94857468  1
  Se  Se153  1  0.08155492  0.57863124  0.44401070  1
  Se  Se154  1  0.07866354  0.59418508  0.94308321  1
  Se  Se155  1  0.07644109  0.91952239  0.43811972  1
  Se  Se156  1  0.08743194  0.91789797  0.94968069  1
  Se  Se157  1  0.42100367  0.24864489  0.45080563  1
  Se  Se158  1  0.42029339  0.25088368  0.94872189  1
  Se  Se159  1  0.41039138  0.58634477  0.44083345  1
  Se  Se160  1  0.42019427  0.57955745  0.95546287  1
  Se  Se161  1  0.41005554  0.92397742  0.44353055  1
  Se  Se162  1  0.41382013  0.92438977  0.93601304  1
  Se  Se163  1  0.75295951  0.25114636  0.44177011  1
  Se  Se164  1  0.74426948  0.25194014  0.93961609  1
  Se  Se165  1  0.75193938  0.58328366  0.44595542  1
  Se  Se166  1  0.75619683  0.57324772  0.94698417  1
  Se  Se167  1  0.74617681  0.91599621  0.45193059  1
  Se  Se168  1  0.75206855  0.91847858  0.95072193  1
  Se  Se169  1  0.25924200  0.07748119  0.44644180  1
  Se  Se170  1  0.25375909  0.08144109  0.93264659  1
  Se  Se171  1  0.24805473  0.41313129  0.44733330  1
  Se  Se172  1  0.25207398  0.41561617  0.94611203  1
  Se  Se173  1  0.24578830  0.74552407  0.43615412  1
  Se  Se174  1  0.25863137  0.75230612  0.95047216  1
  Se  Se175  1  0.58253933  0.08873330  0.45134375  1
  Se  Se176  1  0.58086768  0.08722875  0.94709208  1
  Se  Se177  1  0.59092161  0.41305543  0.43495158  1
  Se  Se178  1  0.58308296  0.41934350  0.94617538  1
  Se  Se179  1  0.58290742  0.74220097  0.43813972  1
  Se  Se180  1  0.59508568  0.73866672  0.93901403  1
  Se  Se181  1  0.91761917  0.08579811  0.44247609  1
  Se  Se182  1  0.92090653  0.07801156  0.94120262  1
  Se  Se183  1  0.90934479  0.42110918  0.44204837  1
  Se  Se184  1  0.91691463  0.40753854  0.95116682  1
  Se  Se185  1  0.91200027  0.75231599  0.44524209  1
  Se  Se186  1  0.91121472  0.75443181  0.95331630  1
  Se  Se187  1  0.25385080  0.24701242  0.30380643  1
  Se  Se188  1  0.25408602  0.25738553  0.80375641  1
  Se  Se189  1  0.25632847  0.58529425  0.30220098  1
  Se  Se190  1  0.24340300  0.57967522  0.81245617  1
  Se  Se191  1  0.23877522  0.90838471  0.31015040  1
  Se  Se192  1  0.25310249  0.91505837  0.79775479  1
  Se  Se193  1  0.58589677  0.25333709  0.30215234  1
  Se  Se194  1  0.58617931  0.25630945  0.80609994  1
  Se  Se195  1  0.58779608  0.58100027  0.29897188  1
  Se  Se196  1  0.57582823  0.57844611  0.80948529  1
  Se  Se197  1  0.57221835  0.90371361  0.30852444  1
  Se  Se198  1  0.58408149  0.91179244  0.80338296  1
  Se  Se199  1  0.93010098  0.26700057  0.30042324  1
  Se  Se200  1  0.90641900  0.24598856  0.80562103  1
  Se  Se201  1  0.91676600  0.58476443  0.30335309  1
  Se  Se202  1  0.91570756  0.58169913  0.80616226  1
  Se  Se203  1  0.91113529  0.91207781  0.30505075  1
  Se  Se204  1  0.91865491  0.91238067  0.81594461  1
  Se  Se205  1  0.08345971  0.07785611  0.29860669  1
  Se  Se206  1  0.09229182  0.09283404  0.80903201  1
  Se  Se207  1  0.08752643  0.42180435  0.30324016  1
  Se  Se208  1  0.08701844  0.42741584  0.81726257  1
  Se  Se209  1  0.07853669  0.74313184  0.29766412  1
  Se  Se210  1  0.08432049  0.75360339  0.80757588  1
  Se  Se211  1  0.42363166  0.08644809  0.30880638  1
  Se  Se212  1  0.42072475  0.08771638  0.80310122  1
  Se  Se213  1  0.41772512  0.41553159  0.30522788  1
  Se  Se214  1  0.41242589  0.41584125  0.80878220  1
  Se  Se215  1  0.40931713  0.74346279  0.29927548  1
  Se  Se216  1  0.42676241  0.75579106  0.80576927  1
  Se  Se217  1  0.75247239  0.08437249  0.31638780  1
  Se  Se218  1  0.74709669  0.08265137  0.79976543  1
  Se  Se219  1  0.74988700  0.41510174  0.29911508  1
  Se  Se220  1  0.74850350  0.41698514  0.79880501  1
  Se  Se221  1  0.74847545  0.74644438  0.30348605  1
  Se  Se222  1  0.76098264  0.75207267  0.81475715  1
  Se  Se223  1  0.24210481  0.08857051  0.18484555  1
  Se  Se224  1  0.26086305  0.08054409  0.69937017  1
  Se  Se225  1  0.25417366  0.41382663  0.20198476  1
  Se  Se226  1  0.24630406  0.41963112  0.70208750  1
  Se  Se227  1  0.25111519  0.75004283  0.19784024  1
  Se  Se228  1  0.24123862  0.75299368  0.68346972  1
  Se  Se229  1  0.57846221  0.08754206  0.19062623  1
  Se  Se230  1  0.58631937  0.08970929  0.69640227  1
  Se  Se231  1  0.58947596  0.41114107  0.19345244  1
  Se  Se232  1  0.58520921  0.41526275  0.70044575  1
  Se  Se233  1  0.58777852  0.74300709  0.19886146  1
  Se  Se234  1  0.58052926  0.75924429  0.69324926  1
  Se  Se235  1  0.91306917  0.07512674  0.20998418  1
  Se  Se236  1  0.91358852  0.09393837  0.68851944  1
  Se  Se237  1  0.91672759  0.41960781  0.19536570  1
  Se  Se238  1  0.90987631  0.42071402  0.68498500  1
  Se  Se239  1  0.91565586  0.74499652  0.19021198  1
  Se  Se240  1  0.91397692  0.74201126  0.70111615  1
  Se  Se241  1  0.08195399  0.25272739  0.20221090  1
  Se  Se242  1  0.09132597  0.24423350  0.69351748  1
  Se  Se243  1  0.08045887  0.58187979  0.19538500  1
  Se  Se244  1  0.07694463  0.57712992  0.70028301  1
  Se  Se245  1  0.07523019  0.91499547  0.19476927  1
  Se  Se246  1  0.08953171  0.91161796  0.68532416  1
  Se  Se247  1  0.41614725  0.25439938  0.19633055  1
  Se  Se248  1  0.41554960  0.25619683  0.69913715  1
  Se  Se249  1  0.42077414  0.57791875  0.19851935  1
  Se  Se250  1  0.42274257  0.57596739  0.68857401  1
  Se  Se251  1  0.41985719  0.90850573  0.18797325  1
  Se  Se252  1  0.42513145  0.91186701  0.70075392  1
  Se  Se253  1  0.77046085  0.23210854  0.20181903  1
  Se  Se254  1  0.74648115  0.25768878  0.69044689  1
  Se  Se255  1  0.75059491  0.58411664  0.19083343  1
  Se  Se256  1  0.75456417  0.57850288  0.68558893  1
  Se  Se257  1  0.75300421  0.90655109  0.18892488  1
  Se  Se258  1  0.76518709  0.91938960  0.70117682  1
