# generated using pymatgen
data_In86Cu29Se144
_symmetry_space_group_name_H-M   'P 1'
_cell_length_a   17.58862705
_cell_length_b   17.59092271
_cell_length_c   23.45494177
_cell_angle_alpha   90.00090748
_cell_angle_beta   89.99512913
_cell_angle_gamma   90.00159778
_symmetry_Int_Tables_number   1
_chemical_formula_structural   In86Cu29Se144
_chemical_formula_sum   'In86 Cu29 Se144'
_cell_volume   7256.96314939
_cell_formula_units_Z   1
loop_
 _symmetry_equiv_pos_site_id
 _symmetry_equiv_pos_as_xyz
  1  'x, y, z'
loop_
 _atom_site_type_symbol
 _atom_site_label
 _atom_site_symmetry_multiplicity
 _atom_site_fract_x
 _atom_site_fract_y
 _atom_site_fract_z
 _atom_site_occupancy
  In  In0  1  0.01789326  0.18062141  0.12227936  1
  In  In1  1  0.01685389  0.18267741  0.61608776  1
  In  In2  1  0.02292488  0.48104953  0.13140774  1
  In  In3  1  0.00514922  0.49923478  0.62417767  1
  In  In4  1  -0.00122326  0.83124819  0.11921802  1
  In  In5  1  0.00104902  0.81133103  0.62740583  1
  In  In6  1  0.31622208  0.18236403  0.12906093  1
  In  In7  1  0.33057226  0.17252104  0.62633988  1
  In  In8  1  0.33968594  0.50276258  0.10152639  1
  In  In9  1  0.33038120  0.50119936  0.62535705  1
  In  In10  1  0.31880684  0.82230143  0.11821714  1
  In  In11  1  0.33051085  0.83106551  0.62256928  1
  In  In12  1  0.66494065  0.16230972  0.13413451  1
  In  In13  1  0.66370443  0.15375857  0.60477113  1
  In  In14  1  0.66651846  0.51269019  0.12985363  1
  In  In15  1  0.66070375  0.49168128  0.61615238  1
  In  In16  1  0.66043693  0.80850757  0.12695210  1
  In  In17  1  0.65964861  0.85027233  0.62044569  1
  In  In18  1  0.16480192  -0.00157754  0.38445311  1
  In  In19  1  0.17383017  -0.01378532  0.87687067  1
  In  In20  1  0.16544152  0.33834180  0.37890948  1
  In  In21  1  0.16987898  0.33948533  0.88158676  1
  In  In22  1  0.16706886  0.66591824  0.37330333  1
  In  In23  1  0.17204771  0.67083004  0.87512397  1
  In  In24  1  0.49680719  0.00699891  0.38854652  1
  In  In25  1  0.49583632  0.01422544  0.87215241  1
  In  In26  1  0.49558523  0.33761915  0.38418065  1
  In  In27  1  0.49021864  0.35565183  0.88582267  1
  In  In28  1  0.49818039  0.66158001  0.37537428  1
  In  In29  1  0.47152842  0.66397205  0.87814307  1
  In  In30  1  0.83660727  0.00682767  0.38057416  1
  In  In31  1  0.82780433  -0.00367858  0.87737529  1
  In  In32  1  0.84589729  0.33061953  0.38053591  1
  In  In33  1  0.83624096  0.32555046  0.87182074  1
  In  In34  1  0.82572365  0.65916177  0.36749757  1
  In  In35  1  0.85440003  0.66071217  0.87737722  1
  In  In36  1  0.00224906  0.17276307  0.37930612  1
  In  In37  1  0.01462095  0.19059175  0.86619896  1
  In  In38  1  0.00510922  0.50029346  0.37445431  1
  In  In39  1  0.00841753  0.50202310  0.86973082  1
  In  In40  1  0.01116728  0.83160676  0.37596226  1
  In  In41  1  0.01582986  0.81611263  0.88602043  1
  In  In42  1  0.33179138  0.16975817  0.38599844  1
  In  In43  1  0.31943458  0.15969944  0.86719089  1
  In  In44  1  0.32909870  0.50300425  0.37781843  1
  In  In45  1  0.31969621  0.49854108  0.88045886  1
  In  In46  1  0.34025431  0.82715145  0.38154421  1
  In  In47  1  0.31733919  0.82082622  0.85864637  1
  In  In48  1  0.66069955  0.17448692  0.38654781  1
  In  In49  1  0.66613360  0.16316257  0.87007304  1
  In  In50  1  0.65679114  0.51743347  0.38253460  1
  In  In51  1  0.65615375  0.49477386  0.87578917  1
  In  In52  1  0.66421682  0.81512474  0.37263632  1
  In  In53  1  0.67097529  0.83982876  0.87694138  1
  In  In54  1  0.17069244  0.00179622  0.11812658  1
  In  In55  1  0.17863004  0.01062707  0.62120816  1
  In  In56  1  0.16598162  0.33582911  0.11282653  1
  In  In57  1  0.16804046  0.33802370  0.62665725  1
  In  In58  1  0.17077314  0.65792425  0.12431956  1
  In  In59  1  0.16845305  0.66218999  0.62300611  1
  In  In60  1  0.50161452  0.00219481  0.13087020  1
  In  In61  1  0.49147186  -0.00700575  0.61312577  1
  In  In62  1  0.48114281  0.35047161  0.13054059  1
  In  In63  1  0.49385739  0.32865458  0.62084343  1
  In  In64  1  0.49666044  0.65105085  0.13432611  1
  In  In65  1  0.48458434  0.65550921  0.61671862  1
  In  In66  1  0.85267152  -0.00410616  0.12772447  1
  In  In67  1  0.82125044  0.00352498  0.62150352  1
  In  In68  1  0.84437410  0.34490671  0.12749583  1
  In  In69  1  0.84137281  0.34010587  0.61710943  1
  In  In70  1  0.83216195  0.66779021  0.12776491  1
  In  In71  1  0.84986216  0.66541599  0.62617148  1
  In  In72  1  -0.00044825  -0.00144838  0.74747580  1
  In  In73  1  0.66433034  0.32787836  0.74881803  1
  In  In74  1  0.84117612  0.50356727  -0.00279140  1
  In  In75  1  0.66744443  0.33963760  0.26635820  1
  In  In76  1  -0.00000800  -0.00120006  0.25756811  1
  In  In77  1  0.49539685  0.16851986  0.00032061  1
  In  In78  1  0.83072543  0.83135660  0.50054329  1
  In  In79  1  0.84416785  0.16370538  -0.00244327  1
  In  In80  1  0.66031018  0.00302176  0.74408799  1
  In  In81  1  0.66841734  -0.00559885  0.25924883  1
  In  In82  1  0.49325520  0.82757076  0.00056835  1
  In  In83  1  0.66478034  0.66655085  0.73882972  1
  In  In84  1  0.32987789  0.33940868  0.25578104  1
  In  In85  1  0.33372248  -0.00235685  0.25179268  1
  Cu  Cu86  1  0.84081957  0.17631960  0.73946672  1
  Cu  Cu87  1  0.33135949  0.33544489  0.50401311  1
  Cu  Cu88  1  0.84522143  0.49479220  0.74562927  1
  Cu  Cu89  1  0.00463023  0.65862582  0.49896767  1
  Cu  Cu90  1  0.84091876  0.82403836  0.75576143  1
  Cu  Cu91  1  0.32925756  0.00240619  0.50511811  1
  Cu  Cu92  1  0.49399906  0.82324711  0.25303065  1
  Cu  Cu93  1  0.48628189  0.17245722  0.74761052  1
  Cu  Cu94  1  0.33485705  -0.00112600  -0.00254722  1
  Cu  Cu95  1  0.48856946  0.83556676  0.74338963  1
  Cu  Cu96  1  0.00048489  -0.00320510  -0.00196805  1
  Cu  Cu97  1  0.00413491  0.33735507  0.50058561  1
  Cu  Cu98  1  -0.00022265  -0.00031015  0.50201197  1
  Cu  Cu99  1  0.66585957  0.66850346  0.00466505  1
  Cu  Cu100  1  0.16878680  0.17562579  0.74754184  1
  Cu  Cu101  1  0.67523529  0.33816735  0.49726008  1
  Cu  Cu102  1  0.65979113  0.33285633  0.00578098  1
  Cu  Cu103  1  0.66158142  0.66764112  0.50001261  1
  Cu  Cu104  1  0.67797101  -0.01010458  0.00598510  1
  Cu  Cu105  1  0.33076866  0.66825966  0.49857296  1
  Cu  Cu106  1  0.16850027  0.82978903  0.74719593  1
  Cu  Cu107  1  0.83955605  0.17836981  0.25491926  1
  Cu  Cu108  1  0.48595483  0.50312652  0.75380138  1
  Cu  Cu109  1  0.83044078  0.82732761  0.24456910  1
  Cu  Cu110  1  0.16734619  0.50059760  0.74986445  1
  Cu  Cu111  1  -0.00118918  0.67431760  0.00578243  1
  Cu  Cu112  1  0.16543838  0.82525301  0.24834967  1
  Cu  Cu113  1  0.84388950  0.50113781  0.25176346  1
  Cu  Cu114  1  0.16975544  0.50139368  0.25091092  1
  Se  Se115  1  0.07867160  0.08081388  0.05489428  1
  Se  Se116  1  0.08589654  0.08307284  0.55307379  1
  Se  Se117  1  0.08794519  0.42375770  0.04259987  1
  Se  Se118  1  0.08842106  0.41930121  0.55401883  1
  Se  Se119  1  0.09064107  0.75007212  0.05752839  1
  Se  Se120  1  0.08453347  0.74566806  0.55196561  1
  Se  Se121  1  0.40766361  0.07782655  0.06340042  1
  Se  Se122  1  0.41237966  0.09062664  0.55500509  1
  Se  Se123  1  0.40996656  0.39843009  0.04358841  1
  Se  Se124  1  0.41671513  0.42023900  0.55579412  1
  Se  Se125  1  0.41002645  0.73263532  0.05831185  1
  Se  Se126  1  0.41580576  0.75275633  0.55083189  1
  Se  Se127  1  0.75094171  0.07853175  0.06346594  1
  Se  Se128  1  0.75748838  0.07839746  0.54216700  1
  Se  Se129  1  0.74594019  0.41520739  0.05905779  1
  Se  Se130  1  0.75680020  0.42322260  0.55022260  1
  Se  Se131  1  0.75361613  0.74942919  0.05401637  1
  Se  Se132  1  0.74208197  0.74195651  0.56536817  1
  Se  Se133  1  0.24664828  0.24533086  0.04749462  1
  Se  Se134  1  0.24658247  0.25211233  0.55622639  1
  Se  Se135  1  0.22750522  0.56415331  0.04698980  1
  Se  Se136  1  0.25066641  0.58183253  0.55224130  1
  Se  Se137  1  0.25037842  0.91575537  0.05078410  1
  Se  Se138  1  0.24590491  0.91430668  0.55375218  1
  Se  Se139  1  0.58383790  0.25385438  0.06776168  1
  Se  Se140  1  0.58841584  0.25888992  0.55257756  1
  Se  Se141  1  0.58338997  0.58503826  0.05661922  1
  Se  Se142  1  0.57991178  0.58116485  0.55247591  1
  Se  Se143  1  0.58881236  0.91703172  0.06245524  1
  Se  Se144  1  0.59034795  0.92922518  0.54653149  1
  Se  Se145  1  0.92489507  0.26307130  0.05408059  1
  Se  Se146  1  0.91872105  0.25007132  0.55023388  1
  Se  Se147  1  0.92819202  0.58376863  0.06491505  1
  Se  Se148  1  0.91826237  0.57994573  0.55335826  1
  Se  Se149  1  0.91519140  0.91498666  0.04994324  1
  Se  Se150  1  0.92352981  0.91743578  0.56423152  1
  Se  Se151  1  0.08735187  0.25132253  0.44880640  1
  Se  Se152  1  0.09119412  0.24689142  0.94742289  1
  Se  Se153  1  0.08969116  0.58009259  0.44432278  1
  Se  Se154  1  0.07035057  0.59949400  0.93817696  1
  Se  Se155  1  0.08176095  0.91317737  0.45079395  1
  Se  Se156  1  0.08762154  0.91336699  0.94897336  1
  Se  Se157  1  0.41704527  0.25179567  0.45257476  1
  Se  Se158  1  0.40662755  0.25052256  0.93689154  1
  Se  Se159  1  0.41466285  0.58288279  0.44704785  1
  Se  Se160  1  0.42519796  0.56068286  0.94502380  1
  Se  Se161  1  0.41194130  0.91925187  0.45004463  1
  Se  Se162  1  0.41451303  0.92091951  0.93627999  1
  Se  Se163  1  0.75736323  0.25071199  0.44709716  1
  Se  Se164  1  0.73918963  0.25438034  0.94395607  1
  Se  Se165  1  0.75283945  0.58959807  0.44890515  1
  Se  Se166  1  0.74307599  0.59066718  0.93807969  1
  Se  Se167  1  0.74211615  0.91691830  0.43664588  1
  Se  Se168  1  0.75758403  0.90940218  0.94994453  1
  Se  Se169  1  0.24641399  0.08491107  0.45023542  1
  Se  Se170  1  0.24878081  0.07924626  0.94379454  1
  Se  Se171  1  0.25100619  0.41742566  0.44732795  1
  Se  Se172  1  0.21934619  0.44473179  0.95465627  1
  Se  Se173  1  0.24580992  0.75070014  0.44501029  1
  Se  Se174  1  0.25738332  0.75289931  0.94260862  1
  Se  Se175  1  0.58537698  0.08562090  0.45202685  1
  Se  Se176  1  0.59696226  0.07287643  0.94687383  1
  Se  Se177  1  0.58641104  0.41906053  0.44689917  1
  Se  Se178  1  0.58279962  0.42381986  0.95532116  1
  Se  Se179  1  0.57785998  0.74926222  0.44669795  1
  Se  Se180  1  0.58652875  0.74207474  0.93656604  1
  Se  Se181  1  0.92141935  0.08543398  0.44736430  1
  Se  Se182  1  0.93068383  0.07875717  0.93177994  1
  Se  Se183  1  0.92161818  0.42162885  0.44706624  1
  Se  Se184  1  0.92414380  0.40801112  0.93814085  1
  Se  Se185  1  0.92137555  0.74244726  0.44068948  1
  Se  Se186  1  0.91171973  0.75353157  0.95127637  1
  Se  Se187  1  0.24408508  0.24226066  0.31133350  1
  Se  Se188  1  0.24800086  0.25933030  0.80581111  1
  Se  Se189  1  0.25239871  0.58394561  0.30452380  1
  Se  Se190  1  0.24945065  0.58406251  0.80531601  1
  Se  Se191  1  0.24100404  0.90839817  0.31018491  1
  Se  Se192  1  0.24975257  0.92097787  0.79487357  1
  Se  Se193  1  0.57103598  0.24356579  0.31187048  1
  Se  Se194  1  0.56821671  0.24668961  0.81272118  1
  Se  Se195  1  0.58686035  0.58919930  0.30405492  1
  Se  Se196  1  0.57533615  0.58403879  0.80703151  1
  Se  Se197  1  0.56869581  0.90842746  0.31226801  1
  Se  Se198  1  0.57227026  0.90928705  0.80588707  1
  Se  Se199  1  0.92747306  0.25667833  0.30584230  1
  Se  Se200  1  0.91966227  0.25738900  0.79663884  1
  Se  Se201  1  0.92427940  0.58707238  0.30491209  1
  Se  Se202  1  0.92188385  0.58196372  0.79990108  1
  Se  Se203  1  0.90362094  0.90557062  0.31048393  1
  Se  Se204  1  0.91781294  0.90846453  0.81476847  1
  Se  Se205  1  0.09334907  0.08924188  0.31019029  1
  Se  Se206  1  0.09207408  0.08693509  0.80619852  1
  Se  Se207  1  0.08810749  0.41703248  0.30447452  1
  Se  Se208  1  0.08791125  0.41373845  0.80445096  1
  Se  Se209  1  0.07989664  0.74623920  0.30256024  1
  Se  Se210  1  0.08533319  0.74982537  0.80303868  1
  Se  Se211  1  0.41942567  0.08909403  0.31268770  1
  Se  Se212  1  0.41008501  0.08126314  0.79905436  1
  Se  Se213  1  0.42752830  0.42766496  0.30938996  1
  Se  Se214  1  0.40729794  0.41849271  0.80879428  1
  Se  Se215  1  0.40966953  0.74323179  0.30695685  1
  Se  Se216  1  0.41364461  0.74505653  0.79648693  1
  Se  Se217  1  0.75725916  0.09651377  0.31035182  1
  Se  Se218  1  0.76292827  0.09230425  0.79938722  1
  Se  Se219  1  0.76182747  0.43042596  0.31842988  1
  Se  Se220  1  0.75686106  0.42463119  0.80681900  1
  Se  Se221  1  0.74634177  0.74540126  0.29782153  1
  Se  Se222  1  0.75275337  0.74655329  0.81064170  1
  Se  Se223  1  0.23884072  0.08779556  0.19668744  1
  Se  Se224  1  0.25096800  0.08814393  0.69784487  1
  Se  Se225  1  0.24801100  0.42261487  0.18673435  1
  Se  Se226  1  0.25129306  0.41833481  0.69650274  1
  Se  Se227  1  0.25065340  0.74334052  0.19562004  1
  Se  Se228  1  0.25088063  0.74683613  0.69254882  1
  Se  Se229  1  0.57298789  0.09024863  0.20463066  1
  Se  Se230  1  0.57229206  0.09587838  0.68683774  1
  Se  Se231  1  0.58252223  0.42183704  0.19580696  1
  Se  Se232  1  0.57364542  0.42550620  0.69585336  1
  Se  Se233  1  0.57816844  0.73929520  0.20086700  1
  Se  Se234  1  0.57295491  0.75973233  0.68383869  1
  Se  Se235  1  0.91742204  0.09698223  0.19421295  1
  Se  Se236  1  0.91599363  0.08886790  0.68262781  1
  Se  Se237  1  0.92607412  0.41430292  0.20148422  1
  Se  Se238  1  0.92425930  0.41002586  0.69245298  1
  Se  Se239  1  0.91998469  0.75204872  0.19220362  1
  Se  Se240  1  0.92332396  0.73955368  0.70466403  1
  Se  Se241  1  0.09205938  0.26191065  0.19243446  1
  Se  Se242  1  0.08210538  0.25672835  0.69749810  1
  Se  Se243  1  0.08429616  0.58304824  0.19654892  1
  Se  Se244  1  0.08461495  0.58315676  0.69463115  1
  Se  Se245  1  0.08875554  0.91380018  0.19183578  1
  Se  Se246  1  0.08825565  0.90989476  0.68593536  1
  Se  Se247  1  0.42119755  0.24306691  0.19588366  1
  Se  Se248  1  0.40932489  0.26121968  0.69620236  1
  Se  Se249  1  0.40204347  0.56555776  0.18827431  1
  Se  Se250  1  0.40927540  0.58798497  0.69695062  1
  Se  Se251  1  0.42029569  0.90271520  0.18901263  1
  Se  Se252  1  0.41157112  0.92224236  0.68946627  1
  Se  Se253  1  0.75530958  0.25323092  0.19442965  1
  Se  Se254  1  0.74817554  0.24368761  0.68076850  1
  Se  Se255  1  0.75703214  0.58172774  0.19917187  1
  Se  Se256  1  0.75745354  0.56960503  0.68741603  1
  Se  Se257  1  0.75183752  0.91192942  0.18726548  1
  Se  Se258  1  0.76009603  0.90512429  0.69739640  1
