# generated using pymatgen
data_In86Cu29Se144
_symmetry_space_group_name_H-M   'P 1'
_cell_length_a   17.58438428
_cell_length_b   17.58403626
_cell_length_c   23.45252939
_cell_angle_alpha   89.97572447
_cell_angle_beta   90.00558693
_cell_angle_gamma   89.98955063
_symmetry_Int_Tables_number   1
_chemical_formula_structural   In86Cu29Se144
_chemical_formula_sum   'In86 Cu29 Se144'
_cell_volume   7251.62566567
_cell_formula_units_Z   1
loop_
 _symmetry_equiv_pos_site_id
 _symmetry_equiv_pos_as_xyz
  1  'x, y, z'
loop_
 _atom_site_type_symbol
 _atom_site_label
 _atom_site_symmetry_multiplicity
 _atom_site_fract_x
 _atom_site_fract_y
 _atom_site_fract_z
 _atom_site_occupancy
  In  In0  1  0.00249786  0.16974535  0.14083149  1
  In  In1  1  0.01303070  0.18552407  0.60278732  1
  In  In2  1  -0.00363379  0.50057815  0.12796817  1
  In  In3  1  -0.01385116  0.50069647  0.61998157  1
  In  In4  1  -0.01186860  0.83620584  0.13957054  1
  In  In5  1  0.00286459  0.83365825  0.61007213  1
  In  In6  1  0.32874223  0.16529968  0.12447117  1
  In  In7  1  0.35525513  0.21645371  0.57702872  1
  In  In8  1  0.33812369  0.50002344  0.11395928  1
  In  In9  1  0.34936368  0.48054054  0.63451679  1
  In  In10  1  0.34182889  0.84401303  0.13060947  1
  In  In11  1  0.32845136  0.82466058  0.61961900  1
  In  In12  1  0.66996537  0.18447069  0.13048212  1
  In  In13  1  0.67019775  0.17603055  0.62161681  1
  In  In14  1  0.66002560  0.48872991  0.12002910  1
  In  In15  1  0.65432908  0.48698341  0.61816959  1
  In  In16  1  0.66609032  0.81873375  0.12888808  1
  In  In17  1  0.67325367  0.84510957  0.61253937  1
  In  In18  1  0.16268342  -0.00011064  0.37415567  1
  In  In19  1  0.17071091  0.00349048  0.87438698  1
  In  In20  1  0.15310237  0.33691734  0.38491203  1
  In  In21  1  0.17497136  0.35088059  0.86098829  1
  In  In22  1  0.16467079  0.67774267  0.37594422  1
  In  In23  1  0.16747132  0.63230187  0.88305049  1
  In  In24  1  0.48671827  0.00958709  0.38166188  1
  In  In25  1  0.51629000  0.00064128  0.87582425  1
  In  In26  1  0.50021540  0.32829588  0.38460344  1
  In  In27  1  0.50272248  0.33061671  0.87545946  1
  In  In28  1  0.50795451  0.66090497  0.38323295  1
  In  In29  1  0.48305070  0.66216446  0.87007886  1
  In  In30  1  0.84720580  -0.00950418  0.37781942  1
  In  In31  1  0.82534573  -0.00725640  0.87848287  1
  In  In32  1  0.83649265  0.34104949  0.38165712  1
  In  In33  1  0.84107818  0.34419734  0.86337016  1
  In  In34  1  0.83756884  0.66046286  0.37225853  1
  In  In35  1  0.84906624  0.65899480  0.89285378  1
  In  In36  1  0.00316355  0.16960185  0.38390909  1
  In  In37  1  -0.01418555  0.17261425  0.87512456  1
  In  In38  1  -0.01849162  0.48044334  0.36437829  1
  In  In39  1  0.00931299  0.49536636  0.88672062  1
  In  In40  1  -0.00459676  0.83384955  0.36557031  1
  In  In41  1  -0.00273011  0.81713705  0.87810362  1
  In  In42  1  0.34234612  0.16073533  0.38780901  1
  In  In43  1  0.34825768  0.19074455  0.86648896  1
  In  In44  1  0.33872306  0.49572574  0.38292919  1
  In  In45  1  0.33301336  0.49281861  0.87671852  1
  In  In46  1  0.31995391  0.84153440  0.38349463  1
  In  In47  1  0.34904928  0.82749893  0.87086659  1
  In  In48  1  0.65739467  0.18059663  0.38344878  1
  In  In49  1  0.65166527  0.17218952  0.87703597  1
  In  In50  1  0.66962788  0.49604186  0.37602777  1
  In  In51  1  0.67870725  0.49271967  0.87621233  1
  In  In52  1  0.67395486  0.82731785  0.38137181  1
  In  In53  1  0.67521115  0.83873815  0.87712058  1
  In  In54  1  0.16576649  0.00000645  0.13681361  1
  In  In55  1  0.17238186  -0.00013469  0.61889563  1
  In  In56  1  0.16101036  0.33430559  0.12513813  1
  In  In57  1  0.17004346  0.32834896  0.62484319  1
  In  In58  1  0.16027171  0.65098359  0.12406192  1
  In  In59  1  0.16908398  0.67587119  0.61918578  1
  In  In60  1  0.48624165  0.00328695  0.13239501  1
  In  In61  1  0.50634115  0.01214226  0.61685833  1
  In  In62  1  0.51216532  0.34503013  0.11570699  1
  In  In63  1  0.49844853  0.33507121  0.62281787  1
  In  In64  1  0.50668630  0.65671656  0.12613166  1
  In  In65  1  0.49028642  0.65443946  0.62101140  1
  In  In66  1  0.84611437  -0.00117032  0.13692879  1
  In  In67  1  0.83778411  0.00325524  0.61318186  1
  In  In68  1  0.82508176  0.33857023  0.13347437  1
  In  In69  1  0.83369492  0.33110407  0.62225069  1
  In  In70  1  0.84569389  0.67360764  0.11340549  1
  In  In71  1  0.83618856  0.66966973  0.61296173  1
  In  In72  1  0.33275045  0.01326468  0.74155457  1
  In  In73  1  0.32918074  0.66948080  0.24502385  1
  In  In74  1  0.66778543  0.00977152  0.73950103  1
  In  In75  1  0.16614671  0.82926005  0.00987458  1
  In  In76  1  0.83104995  0.16570141  0.00741986  1
  In  In77  1  0.00474002  0.65739314  0.75126659  1
  In  In78  1  0.00271815  0.00670836  0.73684842  1
  In  In79  1  0.17151046  0.17672155  0.00258185  1
  In  In80  1  0.67147431  0.65869145  0.25484041  1
  In  In81  1  0.33075153  0.32787223  0.25415050  1
  In  In82  1  0.66839973  0.66671122  0.74640837  1
  In  In83  1  0.50683478  0.82335755  0.00395404  1
  In  In84  1  0.16844333  0.50354724  0.50053937  1
  In  In85  1  0.66977585  0.00133809  0.25738167  1
  Cu  Cu86  1  0.16324834  0.17320741  0.74073127  1
  Cu  Cu87  1  0.66688882  -0.00204548  0.00400589  1
  Cu  Cu88  1  -0.00545228  -0.01041448  0.49051002  1
  Cu  Cu89  1  0.32935313  -0.00976230  0.50025467  1
  Cu  Cu90  1  0.66158760  0.00302350  0.49248768  1
  Cu  Cu91  1  0.82915268  0.49613706  0.74542927  1
  Cu  Cu92  1  0.83009794  0.17867071  0.74642166  1
  Cu  Cu93  1  0.83338093  0.49705925  0.24776654  1
  Cu  Cu94  1  0.66765275  0.33008860  -0.00276721  1
  Cu  Cu95  1  0.17744600  0.82334890  0.74732756  1
  Cu  Cu96  1  0.16476370  0.49993538  0.25325915  1
  Cu  Cu97  1  0.49721570  0.49412184  0.75023420  1
  Cu  Cu98  1  0.17061888  0.49517401  0.75133666  1
  Cu  Cu99  1  0.00127004  0.66693792  0.49095548  1
  Cu  Cu100  1  0.48969682  0.83621211  0.26098137  1
  Cu  Cu101  1  0.84111158  0.82771160  0.75250609  1
  Cu  Cu102  1  0.16685358  0.16273453  0.25708723  1
  Cu  Cu103  1  0.49860569  0.82776149  0.74087119  1
  Cu  Cu104  1  0.34344855  0.01392241  0.00078970  1
  Cu  Cu105  1  0.49781147  0.17243233  0.25805386  1
  Cu  Cu106  1  0.33952730  0.66589922  0.50005326  1
  Cu  Cu107  1  0.83715552  0.17423382  0.26219974  1
  Cu  Cu108  1  0.66803057  0.67001205  0.49974470  1
  Cu  Cu109  1  0.67037978  0.34008802  0.50138235  1
  Cu  Cu110  1  0.66789120  0.65741016  0.00194810  1
  Cu  Cu111  1  0.16249147  0.83849035  0.25401488  1
  Cu  Cu112  1  0.00172772  0.33773671  0.00278048  1
  Cu  Cu113  1  0.32699758  0.66249287  -0.00331871  1
  Cu  Cu114  1  0.00270582  -0.00772414  0.01105142  1
  Se  Se115  1  0.08031282  0.08179822  0.06331106  1
  Se  Se116  1  0.07088918  0.06550610  0.55532168  1
  Se  Se117  1  0.08377688  0.42061032  0.05688867  1
  Se  Se118  1  0.07690101  0.41419884  0.55793763  1
  Se  Se119  1  0.07091242  0.74594698  0.06656946  1
  Se  Se120  1  0.08627247  0.74727225  0.54519627  1
  Se  Se121  1  0.42425928  0.09248948  0.05750578  1
  Se  Se122  1  0.40666528  0.07964051  0.55259700  1
  Se  Se123  1  0.42170408  0.41856118  0.04933500  1
  Se  Se124  1  0.42401472  0.42378152  0.55171678  1
  Se  Se125  1  0.40576429  0.73966335  0.06142114  1
  Se  Se126  1  0.42208145  0.75096644  0.55328968  1
  Se  Se127  1  0.74369699  0.07455558  0.06980567  1
  Se  Se128  1  0.74053992  0.08090945  0.55412014  1
  Se  Se129  1  0.75133381  0.40944397  0.05373544  1
  Se  Se130  1  0.75612757  0.42269914  0.55410128  1
  Se  Se131  1  0.74405769  0.74847914  0.05312166  1
  Se  Se132  1  0.75413575  0.75637419  0.54797492  1
  Se  Se133  1  0.26389136  0.26909500  0.05667368  1
  Se  Se134  1  0.21499555  0.23414614  0.54497261  1
  Se  Se135  1  0.24447505  0.58025890  0.05120545  1
  Se  Se136  1  0.26361602  0.58417772  0.56299177  1
  Se  Se137  1  0.26025726  0.93192126  0.05865623  1
  Se  Se138  1  0.24395081  0.90656793  0.55207310  1
  Se  Se139  1  0.58722830  0.24614082  0.05230245  1
  Se  Se140  1  0.58570907  0.25530904  0.55240344  1
  Se  Se141  1  0.57947385  0.57770896  0.05214611  1
  Se  Se142  1  0.58654646  0.58658229  0.55402451  1
  Se  Se143  1  0.58524279  0.92103993  0.06665287  1
  Se  Se144  1  0.57937212  0.92082121  0.54923607  1
  Se  Se145  1  0.92602960  0.25373617  0.06433160  1
  Se  Se146  1  0.89546191  0.23516978  0.55077440  1
  Se  Se147  1  0.90389077  0.56421401  0.05578957  1
  Se  Se148  1  0.91794330  0.58550126  0.54546001  1
  Se  Se149  1  0.91338451  0.91424898  0.06157382  1
  Se  Se150  1  0.90948596  0.90898401  0.54680025  1
  Se  Se151  1  0.09428135  0.24073277  0.45587966  1
  Se  Se152  1  0.07674096  0.25647272  0.93921641  1
  Se  Se153  1  0.07756405  0.58124627  0.43269678  1
  Se  Se154  1  0.04891337  0.61520229  0.94362749  1
  Se  Se155  1  0.08163805  0.90888634  0.43870314  1
  Se  Se156  1  0.08127388  0.92157089  0.94288533  1
  Se  Se157  1  0.41281819  0.25363020  0.45577128  1
  Se  Se158  1  0.42180306  0.25033398  0.94798312  1
  Se  Se159  1  0.42145203  0.57934236  0.44964667  1
  Se  Se160  1  0.41479339  0.58139328  0.94593944  1
  Se  Se161  1  0.41830160  0.91172413  0.44776451  1
  Se  Se162  1  0.41752823  0.92140823  0.94540298  1
  Se  Se163  1  0.75151985  0.25462748  0.44825851  1
  Se  Se164  1  0.75349650  0.25311541  0.93789137  1
  Se  Se165  1  0.74736342  0.58753571  0.44176131  1
  Se  Se166  1  0.75343411  0.57667124  0.94883664  1
  Se  Se167  1  0.75083815  0.92013015  0.44515646  1
  Se  Se168  1  0.75078697  0.91404135  0.95362101  1
  Se  Se169  1  0.24911306  0.07551644  0.44613788  1
  Se  Se170  1  0.26093972  0.08720882  0.93827636  1
  Se  Se171  1  0.25938926  0.40466452  0.44906315  1
  Se  Se172  1  0.22990384  0.43042061  0.94186029  1
  Se  Se173  1  0.24930371  0.74566793  0.45019053  1
  Se  Se174  1  0.25274517  0.74856676  0.93717205  1
  Se  Se175  1  0.57540739  0.09014715  0.44713684  1
  Se  Se176  1  0.58657250  0.08179848  0.95072241  1
  Se  Se177  1  0.58369959  0.41964630  0.44683734  1
  Se  Se178  1  0.58846124  0.41563613  0.94250676  1
  Se  Se179  1  0.58283134  0.75340350  0.44860820  1
  Se  Se180  1  0.59087203  0.73660081  0.93539399  1
  Se  Se181  1  0.91359690  0.08451529  0.44752737  1
  Se  Se182  1  0.92333421  0.07160804  0.94758554  1
  Se  Se183  1  0.91994164  0.42098801  0.45186365  1
  Se  Se184  1  0.91402873  0.41222665  0.94557217  1
  Se  Se185  1  0.91654020  0.75026831  0.43874089  1
  Se  Se186  1  0.90138686  0.77098089  0.95156636  1
  Se  Se187  1  0.24375070  0.24359427  0.31980488  1
  Se  Se188  1  0.24634254  0.25063585  0.80013716  1
  Se  Se189  1  0.24785708  0.57683679  0.31197168  1
  Se  Se190  1  0.25324365  0.57989941  0.80392806  1
  Se  Se191  1  0.25052484  0.91852407  0.30501659  1
  Se  Se192  1  0.25065640  0.91168320  0.80652852  1
  Se  Se193  1  0.58139971  0.25714996  0.30708379  1
  Se  Se194  1  0.58255497  0.24977876  0.80260916  1
  Se  Se195  1  0.57215649  0.57181933  0.30608457  1
  Se  Se196  1  0.57902113  0.57750808  0.80798710  1
  Se  Se197  1  0.57651250  0.91277686  0.31711243  1
  Se  Se198  1  0.58275800  0.90623457  0.80022427  1
  Se  Se199  1  0.92184396  0.25540427  0.31470167  1
  Se  Se200  1  0.92202080  0.25448548  0.79797925  1
  Se  Se201  1  0.91765755  0.58211314  0.29903380  1
  Se  Se202  1  0.90779489  0.57404765  0.80928610  1
  Se  Se203  1  0.91554678  0.92000127  0.29754768  1
  Se  Se204  1  0.91926926  0.91621427  0.80738752  1
  Se  Se205  1  0.07766130  0.08531967  0.30897057  1
  Se  Se206  1  0.08877881  0.09256204  0.80603600  1
  Se  Se207  1  0.08513651  0.41015325  0.30366591  1
  Se  Se208  1  0.07275380  0.42410346  0.80151468  1
  Se  Se209  1  0.08269676  0.74625215  0.30072122  1
  Se  Se210  1  0.09679461  0.74849163  0.81109447  1
  Se  Se211  1  0.41156546  0.08751841  0.30576270  1
  Se  Se212  1  0.42890018  0.08478545  0.80910407  1
  Se  Se213  1  0.42203614  0.41978691  0.30938738  1
  Se  Se214  1  0.41568042  0.41250792  0.80654772  1
  Se  Se215  1  0.41416210  0.74910544  0.31696289  1
  Se  Se216  1  0.41501569  0.74573395  0.79383918  1
  Se  Se217  1  0.75341340  0.09269480  0.31947269  1
  Se  Se218  1  0.75823463  0.09096522  0.80857831  1
  Se  Se219  1  0.75275287  0.41618761  0.30605387  1
  Se  Se220  1  0.74375240  0.41298028  0.79655753  1
  Se  Se221  1  0.75921829  0.75863423  0.30447165  1
  Se  Se222  1  0.76201584  0.74833635  0.81217268  1
  Se  Se223  1  0.25200158  0.08696680  0.19909529  1
  Se  Se224  1  0.24585129  0.10003873  0.68024153  1
  Se  Se225  1  0.24867919  0.42562450  0.19189612  1
  Se  Se226  1  0.24999337  0.40948840  0.69659653  1
  Se  Se227  1  0.23740971  0.76131771  0.18648673  1
  Se  Se228  1  0.25737538  0.73980909  0.69451744  1
  Se  Se229  1  0.57887869  0.09133288  0.19560433  1
  Se  Se230  1  0.57022956  0.10222788  0.69278246  1
  Se  Se231  1  0.59230400  0.40516581  0.19580494  1
  Se  Se232  1  0.58130726  0.41402806  0.69619658  1
  Se  Se233  1  0.56857062  0.75452631  0.20099790  1
  Se  Se234  1  0.58568880  0.75694629  0.68137974  1
  Se  Se235  1  0.91624476  0.08859641  0.20671769  1
  Se  Se236  1  0.90733226  0.09683793  0.68473110  1
  Se  Se237  1  0.92057090  0.41127142  0.19821729  1
  Se  Se238  1  0.91614638  0.41573068  0.69315457  1
  Se  Se239  1  0.91051947  0.73836743  0.19832289  1
  Se  Se240  1  0.91944423  0.75270407  0.68896590  1
  Se  Se241  1  0.09252789  0.25286373  0.20207099  1
  Se  Se242  1  0.07397262  0.25254930  0.69020878  1
  Se  Se243  1  0.08043023  0.58140797  0.20010638  1
  Se  Se244  1  0.09386309  0.57355361  0.68554308  1
  Se  Se245  1  0.07711753  0.92194367  0.20195322  1
  Se  Se246  1  0.09186789  0.90149012  0.68960987  1
  Se  Se247  1  0.42346903  0.24800301  0.18963760  1
  Se  Se248  1  0.40061387  0.25013634  0.67774434  1
  Se  Se249  1  0.42088752  0.57338908  0.19420572  1
  Se  Se250  1  0.41581994  0.58234970  0.69955160  1
  Se  Se251  1  0.41151766  0.92299174  0.20715729  1
  Se  Se252  1  0.42189297  0.91623391  0.68491357  1
  Se  Se253  1  0.75245481  0.25162477  0.20569906  1
  Se  Se254  1  0.74366004  0.25903937  0.69514320  1
  Se  Se255  1  0.75291058  0.57578088  0.18579123  1
  Se  Se256  1  0.75626575  0.57955503  0.68403542  1
  Se  Se257  1  0.75085399  0.90718473  0.19482240  1
  Se  Se258  1  0.76396435  0.91065385  0.69222059  1
