# generated using pymatgen
data_In86Cu29Se144
_symmetry_space_group_name_H-M   'P 1'
_cell_length_a   17.61856463
_cell_length_b   17.61857337
_cell_length_c   23.47753279
_cell_angle_alpha   89.97524664
_cell_angle_beta   89.98592442
_cell_angle_gamma   89.99939021
_symmetry_Int_Tables_number   1
_chemical_formula_structural   In86Cu29Se144
_chemical_formula_sum   'In86 Cu29 Se144'
_cell_volume   7287.75334377
_cell_formula_units_Z   1
loop_
 _symmetry_equiv_pos_site_id
 _symmetry_equiv_pos_as_xyz
  1  'x, y, z'
loop_
 _atom_site_type_symbol
 _atom_site_label
 _atom_site_symmetry_multiplicity
 _atom_site_fract_x
 _atom_site_fract_y
 _atom_site_fract_z
 _atom_site_occupancy
  In  In0  1  0.00424651  0.15044272  0.12991986  1
  In  In1  1  0.03761821  0.18966465  0.56408515  1
  In  In2  1  0.00890991  0.50682965  0.12433104  1
  In  In3  1  0.01768066  0.51404637  0.61489887  1
  In  In4  1  0.00298716  0.83171345  0.12627233  1
  In  In5  1  -0.00079595  0.83499528  0.61833169  1
  In  In6  1  0.32509578  0.15712775  0.11699734  1
  In  In7  1  0.32684832  0.18208775  0.64146257  1
  In  In8  1  0.34147360  0.50415997  0.11959061  1
  In  In9  1  0.32921626  0.49988117  0.62967259  1
  In  In10  1  0.32354839  0.84955628  0.13630701  1
  In  In11  1  0.32052724  0.83787812  0.63211436  1
  In  In12  1  0.66701478  0.18631357  0.11939067  1
  In  In13  1  0.66949838  0.16336435  0.62804410  1
  In  In14  1  0.66923650  0.49930221  0.11545096  1
  In  In15  1  0.67188690  0.50208581  0.62061671  1
  In  In16  1  0.67474508  0.81967092  0.12581942  1
  In  In17  1  0.67989879  0.83139208  0.62301453  1
  In  In18  1  0.16281437  -0.00417569  0.38005078  1
  In  In19  1  0.17314415  -0.01056523  0.87870991  1
  In  In20  1  0.14945172  0.33540634  0.39453711  1
  In  In21  1  0.17448158  0.32660173  0.88149649  1
  In  In22  1  0.16692017  0.67045799  0.37576249  1
  In  In23  1  0.16321628  0.66482993  0.87693551  1
  In  In24  1  0.48887215  0.00298589  0.36259920  1
  In  In25  1  0.48661937  0.01297747  0.88073845  1
  In  In26  1  0.50951184  0.33993859  0.37766314  1
  In  In27  1  0.49432536  0.34045450  0.88141411  1
  In  In28  1  0.47833542  0.66261091  0.37474074  1
  In  In29  1  0.48291343  0.66477795  0.87715655  1
  In  In30  1  0.84370479  -0.00724548  0.38510681  1
  In  In31  1  0.82557252  -0.00207871  0.87600577  1
  In  In32  1  0.83960991  0.33681283  0.38406354  1
  In  In33  1  0.84573138  0.34151550  0.87407103  1
  In  In34  1  0.85241674  0.65589501  0.37702715  1
  In  In35  1  0.83939218  0.66094953  0.87975173  1
  In  In36  1  0.00033330  0.15713807  0.38298049  1
  In  In37  1  0.00519046  0.18028523  0.87327962  1
  In  In38  1  -0.00830956  0.51292264  0.38166681  1
  In  In39  1  -0.00731546  0.50829375  0.88050556  1
  In  In40  1  0.00635904  0.83985355  0.37901282  1
  In  In41  1  0.01125527  0.82382652  0.88235147  1
  In  In42  1  0.32446727  0.15487759  0.37187104  1
  In  In43  1  0.32787944  0.16498612  0.86901273  1
  In  In44  1  0.31629537  0.50303413  0.38504907  1
  In  In45  1  0.33074141  0.49953184  0.87920221  1
  In  In46  1  0.32109929  0.81755768  0.36494755  1
  In  In47  1  0.31985236  0.81765831  0.86602155  1
  In  In48  1  0.66844592  0.17158520  0.37476630  1
  In  In49  1  0.66576964  0.15982082  0.87790408  1
  In  In50  1  0.67093403  0.49564008  0.38205653  1
  In  In51  1  0.66762930  0.49379709  0.88696052  1
  In  In52  1  0.67021780  0.83789554  0.37313708  1
  In  In53  1  0.67501436  0.84295161  0.88022092  1
  In  In54  1  0.16556945  -0.00056285  0.12626900  1
  In  In55  1  0.17172180  0.00989714  0.61177533  1
  In  In56  1  0.17358514  0.33856744  0.11772343  1
  In  In57  1  0.17311190  0.34031932  0.62251029  1
  In  In58  1  0.16627837  0.66987164  0.12713901  1
  In  In59  1  0.16541172  0.66665954  0.62839258  1
  In  In60  1  0.48163024  -0.00145689  0.12221920  1
  In  In61  1  0.49193472  0.00134407  0.62875620  1
  In  In62  1  0.51519997  0.33541257  0.10357976  1
  In  In63  1  0.48048046  0.33419616  0.63168312  1
  In  In64  1  0.49883616  0.65628976  0.12476283  1
  In  In65  1  0.49678596  0.65304529  0.62795440  1
  In  In66  1  0.85764173  0.00180334  0.13220983  1
  In  In67  1  0.85455203  0.01907920  0.59869715  1
  In  In68  1  0.83190749  0.33922431  0.12817856  1
  In  In69  1  0.85925743  0.34139954  0.60479624  1
  In  In70  1  0.84013096  0.66883198  0.12373068  1
  In  In71  1  0.85200771  0.68117205  0.61397077  1
  In  In72  1  0.67152892  0.33586055  0.24853622  1
  In  In73  1  0.50090213  0.17465446  0.50117503  1
  In  In74  1  0.00296195  0.33340186  0.25743665  1
  In  In75  1  0.49696770  0.82843403  0.49645956  1
  In  In76  1  0.66527887  0.66395105  0.24415421  1
  In  In77  1  0.83902233  0.16533556  0.00402363  1
  In  In78  1  -0.00287064  0.00060272  0.74097510  1
  In  In79  1  0.66585472  0.33246793  0.75703369  1
  In  In80  1  0.66390960  0.00052497  0.25298099  1
  In  In81  1  0.49794686  0.82938771  0.00275949  1
  In  In82  1  0.66239031  -0.00456286  0.74421671  1
  In  In83  1  0.66238613  0.66839129  0.75053713  1
  In  In84  1  0.33248798  0.32639244  0.24793608  1
  In  In85  1  0.01359526  0.33586115  0.73595430  1
  Cu  Cu86  1  0.33192608  0.32981552  -0.00303369  1
  Cu  Cu87  1  0.49246157  0.49724278  0.75441818  1
  Cu  Cu88  1  0.49245156  0.16519215  0.23907012  1
  Cu  Cu89  1  0.84321742  0.83146852  0.74512603  1
  Cu  Cu90  1  0.33342397  -0.00111194  0.49860862  1
  Cu  Cu91  1  0.84205141  0.51499621  0.74832072  1
  Cu  Cu92  1  0.16715963  0.51099093  0.25381596  1
  Cu  Cu93  1  0.01020210  0.67157100  0.49778044  1
  Cu  Cu94  1  0.16523139  0.16450431  0.25350017  1
  Cu  Cu95  1  0.33302380  0.33605954  0.50408281  1
  Cu  Cu96  1  0.67025489  0.66123995  0.49910665  1
  Cu  Cu97  1  0.66498810  0.34691287  0.50298914  1
  Cu  Cu98  1  0.00506449  -0.00263846  0.00342970  1
  Cu  Cu99  1  0.16394077  0.16433795  0.74455996  1
  Cu  Cu100  1  0.32485850  -0.00040464  -0.00085775  1
  Cu  Cu101  1  0.67230997  0.66525051  0.00210341  1
  Cu  Cu102  1  0.00524853  0.33857292  -0.00005654  1
  Cu  Cu103  1  0.49222977  0.83776684  0.75079758  1
  Cu  Cu104  1  0.66539019  -0.00403471  0.49565799  1
  Cu  Cu105  1  0.84268123  0.83175734  0.25323142  1
  Cu  Cu106  1  0.67430276  -0.00416182  0.00272917  1
  Cu  Cu107  1  0.49306435  0.50130197  0.24908621  1
  Cu  Cu108  1  0.16506943  0.82806991  0.75262899  1
  Cu  Cu109  1  0.32451675  0.66403736  0.50181721  1
  Cu  Cu110  1  0.16166410  0.83697332  0.25144676  1
  Cu  Cu111  1  0.83321498  0.16903279  0.73695003  1
  Cu  Cu112  1  0.00024809  0.66722951  0.00339765  1
  Cu  Cu113  1  0.32545273  0.66615651  0.00046953  1
  Cu  Cu114  1  0.17052147  0.49917558  0.75393336  1
  Se  Se115  1  0.08692684  0.08427175  0.05387905  1
  Se  Se116  1  0.05441726  0.04375877  0.55001530  1
  Se  Se117  1  0.08738913  0.42243484  0.05378887  1
  Se  Se118  1  0.06428554  0.39506082  0.56072699  1
  Se  Se119  1  0.08469872  0.75087235  0.05553310  1
  Se  Se120  1  0.09023213  0.75253261  0.55610744  1
  Se  Se121  1  0.41439850  0.08185264  0.04712213  1
  Se  Se122  1  0.40952394  0.08336370  0.55771767  1
  Se  Se123  1  0.41472824  0.41537422  0.04983592  1
  Se  Se124  1  0.41436641  0.41990853  0.55785712  1
  Se  Se125  1  0.40501325  0.74616455  0.06349515  1
  Se  Se126  1  0.40920543  0.74353292  0.56162612  1
  Se  Se127  1  0.75034910  0.07550244  0.06654505  1
  Se  Se128  1  0.73802668  0.08557516  0.55079907  1
  Se  Se129  1  0.73672745  0.39463967  0.05744358  1
  Se  Se130  1  0.75802814  0.42363742  0.55206743  1
  Se  Se131  1  0.75647876  0.74949454  0.05219001  1
  Se  Se132  1  0.75048444  0.74849463  0.54992922  1
  Se  Se133  1  0.24763475  0.24759541  0.05116433  1
  Se  Se134  1  0.25565920  0.24824829  0.55868743  1
  Se  Se135  1  0.24677642  0.58291783  0.05802569  1
  Se  Se136  1  0.24573176  0.58004351  0.55937181  1
  Se  Se137  1  0.24704388  0.91518304  0.05584447  1
  Se  Se138  1  0.25264465  0.91350804  0.55217880  1
  Se  Se139  1  0.57943851  0.23407481  0.04085555  1
  Se  Se140  1  0.58820060  0.26412093  0.56466663  1
  Se  Se141  1  0.58306005  0.58467772  0.05192618  1
  Se  Se142  1  0.58490972  0.58521987  0.55571143  1
  Se  Se143  1  0.59063121  0.91920634  0.06312487  1
  Se  Se144  1  0.58548262  0.92134063  0.55932475  1
  Se  Se145  1  0.92979168  0.25620005  0.06399471  1
  Se  Se146  1  0.89494805  0.21994003  0.55124420  1
  Se  Se147  1  0.91783153  0.58114986  0.05543822  1
  Se  Se148  1  0.92339382  0.58608172  0.54847422  1
  Se  Se149  1  0.91969850  0.91652296  0.05621208  1
  Se  Se150  1  0.89135459  0.89183729  0.55537204  1
  Se  Se151  1  0.08969995  0.22818280  0.45636958  1
  Se  Se152  1  0.08427586  0.24868113  0.94951525  1
  Se  Se153  1  0.08978953  0.58305175  0.44593799  1
  Se  Se154  1  0.08240863  0.58340165  0.94824014  1
  Se  Se155  1  0.06776704  0.93465643  0.45276463  1
  Se  Se156  1  0.08685718  0.91401108  0.94871270  1
  Se  Se157  1  0.40686785  0.25752331  0.43708336  1
  Se  Se158  1  0.41040206  0.24637933  0.94029715  1
  Se  Se159  1  0.40974128  0.58059186  0.45020289  1
  Se  Se160  1  0.41308923  0.58256639  0.95099678  1
  Se  Se161  1  0.40993606  0.91993863  0.43618117  1
  Se  Se162  1  0.40458780  0.91276380  0.94051435  1
  Se  Se163  1  0.73778513  0.26173200  0.44341460  1
  Se  Se164  1  0.75521095  0.25197465  0.93706149  1
  Se  Se165  1  0.75600504  0.58335033  0.44360973  1
  Se  Se166  1  0.75404840  0.58113641  0.94792587  1
  Se  Se167  1  0.74939860  0.91110622  0.44669497  1
  Se  Se168  1  0.76049818  0.91384180  0.95277618  1
  Se  Se169  1  0.24776817  0.08283382  0.44780772  1
  Se  Se170  1  0.24632917  0.08488698  0.94265758  1
  Se  Se171  1  0.24243645  0.41608774  0.45525127  1
  Se  Se172  1  0.24733580  0.41799605  0.94888633  1
  Se  Se173  1  0.24855333  0.75317256  0.44767999  1
  Se  Se174  1  0.24502835  0.75094321  0.94643381  1
  Se  Se175  1  0.58096226  0.07515533  0.43779801  1
  Se  Se176  1  0.58991608  0.07290607  0.94632220  1
  Se  Se177  1  0.57680169  0.42570835  0.45095762  1
  Se  Se178  1  0.58849192  0.40629925  0.94990247  1
  Se  Se179  1  0.58846324  0.73793804  0.43656384  1
  Se  Se180  1  0.59035673  0.74189511  0.93894041  1
  Se  Se181  1  0.89661160  0.09972740  0.44918028  1
  Se  Se182  1  0.92765242  0.07696878  0.93855521  1
  Se  Se183  1  0.93824935  0.40516633  0.44576438  1
  Se  Se184  1  0.91618184  0.41932883  0.95033328  1
  Se  Se185  1  0.92247628  0.74981774  0.44373576  1
  Se  Se186  1  0.91688966  0.74944518  0.94723390  1
  Se  Se187  1  0.23439107  0.25318532  0.31495014  1
  Se  Se188  1  0.24079006  0.24893712  0.80190338  1
  Se  Se189  1  0.25498522  0.58797019  0.30772971  1
  Se  Se190  1  0.25022190  0.58357305  0.80948322  1
  Se  Se191  1  0.24544193  0.91843036  0.30730342  1
  Se  Se192  1  0.24879253  0.91572307  0.80148522  1
  Se  Se193  1  0.57144331  0.24267426  0.30249334  1
  Se  Se194  1  0.57614509  0.24171156  0.81292555  1
  Se  Se195  1  0.57924804  0.57472858  0.31001013  1
  Se  Se196  1  0.57846137  0.57491967  0.81301390  1
  Se  Se197  1  0.57146914  0.90353116  0.30422428  1
  Se  Se198  1  0.57519313  0.91138821  0.81228084  1
  Se  Se199  1  0.91192586  0.24308240  0.31322737  1
  Se  Se200  1  0.91308634  0.24932983  0.79811948  1
  Se  Se201  1  0.92186750  0.57953086  0.29974876  1
  Se  Se202  1  0.92426928  0.59297398  0.80447453  1
  Se  Se203  1  0.91906957  0.91849738  0.30818947  1
  Se  Se204  1  0.91502817  0.91313907  0.81048422  1
  Se  Se205  1  0.08420945  0.08390787  0.30990160  1
  Se  Se206  1  0.08542104  0.08682432  0.80800951  1
  Se  Se207  1  0.09530946  0.42420321  0.31367060  1
  Se  Se208  1  0.08534400  0.41923379  0.81244273  1
  Se  Se209  1  0.08277040  0.75346110  0.30851130  1
  Se  Se210  1  0.08062174  0.74591174  0.80464686  1
  Se  Se211  1  0.40826259  0.08796699  0.29533857  1
  Se  Se212  1  0.40973306  0.07749404  0.80317046  1
  Se  Se213  1  0.41668888  0.41971257  0.31117857  1
  Se  Se214  1  0.41105395  0.41460933  0.80852697  1
  Se  Se215  1  0.42062586  0.75142379  0.30107839  1
  Se  Se216  1  0.41578472  0.74547660  0.80047486  1
  Se  Se217  1  0.75585721  0.08432684  0.31287451  1
  Se  Se218  1  0.75846957  0.09111001  0.80059751  1
  Se  Se219  1  0.76096362  0.42364800  0.30880607  1
  Se  Se220  1  0.76177178  0.43212769  0.80601000  1
  Se  Se221  1  0.75660126  0.75054870  0.30791505  1
  Se  Se222  1  0.75626037  0.76003462  0.80664438  1
  Se  Se223  1  0.24800758  0.08635212  0.19504023  1
  Se  Se224  1  0.24635441  0.07807804  0.69264581  1
  Se  Se225  1  0.24495093  0.42614293  0.19461860  1
  Se  Se226  1  0.24950212  0.41311051  0.69934630  1
  Se  Se227  1  0.24585609  0.75422003  0.19770077  1
  Se  Se228  1  0.25046816  0.74464110  0.69995714  1
  Se  Se229  1  0.58216203  0.08979276  0.18424498  1
  Se  Se230  1  0.57112578  0.09572054  0.69608215  1
  Se  Se231  1  0.57404933  0.42141539  0.18946676  1
  Se  Se232  1  0.58053905  0.42567775  0.69415773  1
  Se  Se233  1  0.57137526  0.75762295  0.19138304  1
  Se  Se234  1  0.57513958  0.76165139  0.68893214  1
  Se  Se235  1  0.92118809  0.08750392  0.20579613  1
  Se  Se236  1  0.92020467  0.09700203  0.67971787  1
  Se  Se237  1  0.91769843  0.42312383  0.19428663  1
  Se  Se238  1  0.91570862  0.42930804  0.68725241  1
  Se  Se239  1  0.91969388  0.74803893  0.19570304  1
  Se  Se240  1  0.92742944  0.74954422  0.69383727  1
  Se  Se241  1  0.09377962  0.24994935  0.19112743  1
  Se  Se242  1  0.08466288  0.23124549  0.67645169  1
  Se  Se243  1  0.08262894  0.58878867  0.19827835  1
  Se  Se244  1  0.08605924  0.57978486  0.69870726  1
  Se  Se245  1  0.08053692  0.91971231  0.19539612  1
  Se  Se246  1  0.09417242  0.91176673  0.68825632  1
  Se  Se247  1  0.42326376  0.25220920  0.17794204  1
  Se  Se248  1  0.42148359  0.24902720  0.70728246  1
  Se  Se249  1  0.41129301  0.58515017  0.19693794  1
  Se  Se250  1  0.41206921  0.58270048  0.70065743  1
  Se  Se251  1  0.41918699  0.92105773  0.20065663  1
  Se  Se252  1  0.41045706  0.91984340  0.69645586  1
  Se  Se253  1  0.76280509  0.23807149  0.19685817  1
  Se  Se254  1  0.75749825  0.26063393  0.68447077  1
  Se  Se255  1  0.75645813  0.57214243  0.18940306  1
  Se  Se256  1  0.75884145  0.58996729  0.68771471  1
  Se  Se257  1  0.75767226  0.90937826  0.19397475  1
  Se  Se258  1  0.76594342  0.91801946  0.68808194  1
