# generated using pymatgen
data_In86Cu29Se144
_symmetry_space_group_name_H-M   'P 1'
_cell_length_a   17.71275448
_cell_length_b   17.71225299
_cell_length_c   23.58037590
_cell_angle_alpha   90.03676867
_cell_angle_beta   89.99381141
_cell_angle_gamma   89.98268046
_symmetry_Int_Tables_number   1
_chemical_formula_structural   In86Cu29Se144
_chemical_formula_sum   'In86 Cu29 Se144'
_cell_volume   7397.93518231
_cell_formula_units_Z   1
loop_
 _symmetry_equiv_pos_site_id
 _symmetry_equiv_pos_as_xyz
  1  'x, y, z'
loop_
 _atom_site_type_symbol
 _atom_site_label
 _atom_site_symmetry_multiplicity
 _atom_site_fract_x
 _atom_site_fract_y
 _atom_site_fract_z
 _atom_site_occupancy
  In  In0  1  -0.00715114  0.14768817  0.10324254  1
  In  In1  1  0.00172701  0.16532192  0.63419399  1
  In  In2  1  0.00898137  0.49820264  0.12820116  1
  In  In3  1  -0.00634772  0.50014676  0.62926518  1
  In  In4  1  0.00378939  0.83025498  0.12654228  1
  In  In5  1  -0.00259154  0.83704633  0.61713006  1
  In  In6  1  0.33318755  0.16384157  0.12238366  1
  In  In7  1  0.32346067  0.16181583  0.62829705  1
  In  In8  1  0.33278910  0.49379185  0.12973097  1
  In  In9  1  0.34625570  0.49381993  0.62038353  1
  In  In10  1  0.32543491  0.83889483  0.13426240  1
  In  In11  1  0.34683438  0.84319289  0.60828884  1
  In  In12  1  0.66273656  0.15678982  0.11227965  1
  In  In13  1  0.67310677  0.15974426  0.63825765  1
  In  In14  1  0.66475614  0.51475532  0.12817787  1
  In  In15  1  0.66171987  0.50177496  0.62415610  1
  In  In16  1  0.66865146  0.83024772  0.12734172  1
  In  In17  1  0.66425388  0.84673475  0.61609286  1
  In  In18  1  0.15617894  -0.01045631  0.36039271  1
  In  In19  1  0.16620773  -0.00816606  0.88757785  1
  In  In20  1  0.17340536  0.32241816  0.37018629  1
  In  In21  1  0.16200095  0.33748056  0.88210651  1
  In  In22  1  0.17550388  0.68091061  0.37262808  1
  In  In23  1  0.15501164  0.68052456  0.88507803  1
  In  In24  1  0.49522554  -0.00768472  0.36811159  1
  In  In25  1  0.50117043  0.00866974  0.86609061  1
  In  In26  1  0.50164996  0.34643476  0.37507151  1
  In  In27  1  0.50192573  0.33653553  0.87791639  1
  In  In28  1  0.49781313  0.66715716  0.37359364  1
  In  In29  1  0.48816552  0.66806450  0.87948813  1
  In  In30  1  0.81934472  -0.01900723  0.35898287  1
  In  In31  1  0.78459762  0.03815061  0.93006258  1
  In  In32  1  0.83601699  0.33476697  0.37683175  1
  In  In33  1  0.82751326  0.32697068  0.87081528  1
  In  In34  1  0.85286267  0.68994622  0.35481909  1
  In  In35  1  0.84122598  0.68233577  0.87889859  1
  In  In36  1  0.00999060  0.16043582  0.37093411  1
  In  In37  1  -0.00748924  0.16900246  0.88553649  1
  In  In38  1  0.00228814  0.52720792  0.36979091  1
  In  In39  1  0.01532762  0.50237105  0.87851335  1
  In  In40  1  -0.00176237  0.83495054  0.37336049  1
  In  In41  1  -0.04309528  0.89450722  0.93268899  1
  In  In42  1  0.33063375  0.15964103  0.35828342  1
  In  In43  1  0.34563466  0.15665326  0.88419792  1
  In  In44  1  0.35495473  0.52027688  0.35813173  1
  In  In45  1  0.33297183  0.50054907  0.88195612  1
  In  In46  1  0.33200114  0.83072205  0.37305323  1
  In  In47  1  0.31937251  0.83781726  0.87776261  1
  In  In48  1  0.67200100  0.15354377  0.37140993  1
  In  In49  1  0.65519036  0.17100807  0.87557864  1
  In  In50  1  0.65481063  0.50462887  0.37770534  1
  In  In51  1  0.66497001  0.49297726  0.87312582  1
  In  In52  1  0.66823194  0.83538184  0.37228709  1
  In  In53  1  0.66356629  0.85677874  0.87572555  1
  In  In54  1  0.16681981  -0.00202001  0.11968543  1
  In  In55  1  0.17250058  -0.00767693  0.62662236  1
  In  In56  1  0.17079409  0.33640930  0.11690019  1
  In  In57  1  0.16327951  0.32967972  0.63076768  1
  In  In58  1  0.16936409  0.66300669  0.13137120  1
  In  In59  1  0.16539509  0.68031454  0.62153345  1
  In  In60  1  0.49935234  0.00180084  0.12616526  1
  In  In61  1  0.50475691  -0.00566332  0.63403889  1
  In  In62  1  0.49274657  0.32011485  0.11635599  1
  In  In63  1  0.51016174  0.34577569  0.62724711  1
  In  In64  1  0.50314282  0.66002818  0.13264061  1
  In  In65  1  0.49739974  0.66804473  0.61022867  1
  In  In66  1  0.83483930  -0.00603145  0.11878421  1
  In  In67  1  0.82693946  -0.01004445  0.62490795  1
  In  In68  1  0.84560828  0.32544048  0.11528764  1
  In  In69  1  0.83394518  0.32944007  0.64220025  1
  In  In70  1  0.82086175  0.67652996  0.13808582  1
  In  In71  1  0.82374683  0.67465705  0.61822207  1
  In  In72  1  0.83154131  0.50604649  0.00125830  1
  In  In73  1  0.83716054  0.15985440  0.51076334  1
  In  In74  1  -0.01146581  -0.00389755  0.76965612  1
  In  In75  1  0.16655981  0.16316413  0.50475693  1
  In  In76  1  0.33203068  0.66641906  0.73933960  1
  In  In77  1  0.00472196  0.67160636  0.74777883  1
  In  In78  1  0.66639943  0.32791530  0.24897800  1
  In  In79  1  0.17916398  0.50866739  0.48633701  1
  In  In80  1  0.00493912  0.32948438  0.24241542  1
  In  In81  1  0.83119538  0.51048050  0.50099781  1
  In  In82  1  0.66213943  0.66510327  0.74311737  1
  In  In83  1  0.49757471  0.82978800  0.00674015  1
  In  In84  1  0.50141851  0.16174411  0.49850017  1
  In  In85  1  0.33757196  0.32997440  0.76068201  1
  Cu  Cu86  1  0.33001095  0.65460133  0.00604375  1
  Cu  Cu87  1  0.83737083  0.16000495  0.24085967  1
  Cu  Cu88  1  0.83680033  0.84184581  0.24640996  1
  Cu  Cu89  1  0.16553062  0.49645367  0.24720143  1
  Cu  Cu90  1  0.00453516  0.66377226  0.00750263  1
  Cu  Cu91  1  0.50157395  0.49714030  0.24984569  1
  Cu  Cu92  1  0.66971632  0.33050085  0.50307894  1
  Cu  Cu93  1  -0.00485841  -0.00493957  0.49232726  1
  Cu  Cu94  1  0.66185502  0.33748274  -0.00281269  1
  Cu  Cu95  1  0.34439994  0.33586782  0.49559324  1
  Cu  Cu96  1  0.66460207  0.67065145  0.00617764  1
  Cu  Cu97  1  0.33692011  -0.00131418  0.00590328  1
  Cu  Cu98  1  0.50441282  0.83177138  0.25054232  1
  Cu  Cu99  1  0.16302734  0.84120683  0.75772164  1
  Cu  Cu100  1  0.16645298  0.16249065  0.23923079  1
  Cu  Cu101  1  0.32667609  0.00026375  0.49378984  1
  Cu  Cu102  1  0.66830940  0.67630905  0.49426305  1
  Cu  Cu103  1  0.16466497  0.16749383  0.75198467  1
  Cu  Cu104  1  0.00234494  0.34541698  0.50400246  1
  Cu  Cu105  1  0.17390114  0.50024789  0.75775389  1
  Cu  Cu106  1  0.33406187  0.33617746  -0.00001927  1
  Cu  Cu107  1  0.49149348  0.83862730  0.74459307  1
  Cu  Cu108  1  0.84097156  0.49558282  0.75482582  1
  Cu  Cu109  1  0.83191916  0.15906335  0.76680395  1
  Cu  Cu110  1  0.49645331  0.16860918  0.75459007  1
  Cu  Cu111  1  0.49976016  0.16631901  0.24096026  1
  Cu  Cu112  1  0.82750916  0.84049203  0.75229895  1
  Cu  Cu113  1  -0.00262651  0.32986006  0.00042367  1
  Cu  Cu114  1  0.16944656  0.83153010  0.24779984  1
  Se  Se115  1  0.09726844  0.08271503  0.04589205  1
  Se  Se116  1  0.06992851  0.07298546  0.55953720  1
  Se  Se117  1  0.07704435  0.41506100  0.05353960  1
  Se  Se118  1  0.08868832  0.42165464  0.55915287  1
  Se  Se119  1  0.08878018  0.74508227  0.06111347  1
  Se  Se120  1  0.08259222  0.75586196  0.55400045  1
  Se  Se121  1  0.42111864  0.08341323  0.05483886  1
  Se  Se122  1  0.40395235  0.07884945  0.55713488  1
  Se  Se123  1  0.41559025  0.41675273  0.05660160  1
  Se  Se124  1  0.42750771  0.41350340  0.55100248  1
  Se  Se125  1  0.40783626  0.73977009  0.06468358  1
  Se  Se126  1  0.39948676  0.73520276  0.54806324  1
  Se  Se127  1  0.75775679  0.08261602  0.04877150  1
  Se  Se128  1  0.73524877  0.07319193  0.55815053  1
  Se  Se129  1  0.74325398  0.41250417  0.06019227  1
  Se  Se130  1  0.75529789  0.40633677  0.56144566  1
  Se  Se131  1  0.75156180  0.74887773  0.05742461  1
  Se  Se132  1  0.74698997  0.75893733  0.55127591  1
  Se  Se133  1  0.25418511  0.25019018  0.05283740  1
  Se  Se134  1  0.25966239  0.26261364  0.55642032  1
  Se  Se135  1  0.24742786  0.57586989  0.06202106  1
  Se  Se136  1  0.25617588  0.58503617  0.56324670  1
  Se  Se137  1  0.25493952  0.91192043  0.05506248  1
  Se  Se138  1  0.24501583  0.91816883  0.54982793  1
  Se  Se139  1  0.58394667  0.24791285  0.04899115  1
  Se  Se140  1  0.59294238  0.24759578  0.56244839  1
  Se  Se141  1  0.58141832  0.58590518  0.05511647  1
  Se  Se142  1  0.59444791  0.58832451  0.55177958  1
  Se  Se143  1  0.59146397  0.92192525  0.05665891  1
  Se  Se144  1  0.56022845  0.91021835  0.55586436  1
  Se  Se145  1  0.91055186  0.24031551  0.04108645  1
  Se  Se146  1  0.92703564  0.26095513  0.56327921  1
  Se  Se147  1  0.91856938  0.58924818  0.06613198  1
  Se  Se148  1  0.92777685  0.59624137  0.55966865  1
  Se  Se149  1  0.92353810  0.91128105  0.05532529  1
  Se  Se150  1  0.91209957  0.92064974  0.55248505  1
  Se  Se151  1  0.07636322  0.25789735  0.44509973  1
  Se  Se152  1  0.08371824  0.24920058  0.94848861  1
  Se  Se153  1  0.07895520  0.60226416  0.44521318  1
  Se  Se154  1  0.08724547  0.58340688  0.95155886  1
  Se  Se155  1  0.08454725  0.91938792  0.44046059  1
  Se  Se156  1  0.10284299  0.87922288  0.93688773  1
  Se  Se157  1  0.41176025  0.24708693  0.43438258  1
  Se  Se158  1  0.41795881  0.25506553  0.94509887  1
  Se  Se159  1  0.42808497  0.57299488  0.44174839  1
  Se  Se160  1  0.41789939  0.58112585  0.94986869  1
  Se  Se161  1  0.41182200  0.92036032  0.44076144  1
  Se  Se162  1  0.41479114  0.91977979  0.94132492  1
  Se  Se163  1  0.74802901  0.24965036  0.44381107  1
  Se  Se164  1  0.74304548  0.25532834  0.94230415  1
  Se  Se165  1  0.74747650  0.59450418  0.43548063  1
  Se  Se166  1  0.74252411  0.59518878  0.93906804  1
  Se  Se167  1  0.75270993  0.91656970  0.44064417  1
  Se  Se168  1  0.76394141  0.89443341  0.94840389  1
  Se  Se169  1  0.24794513  0.08078876  0.43455341  1
  Se  Se170  1  0.25451388  0.07889268  0.94860756  1
  Se  Se171  1  0.26263917  0.40812776  0.43313334  1
  Se  Se172  1  0.24892235  0.41841130  0.94751688  1
  Se  Se173  1  0.26550818  0.74105160  0.44561667  1
  Se  Se174  1  0.25891570  0.74263272  0.94790596  1
  Se  Se175  1  0.58944152  0.07145793  0.44048477  1
  Se  Se176  1  0.58400979  0.07468144  0.94048279  1
  Se  Se177  1  0.58879682  0.41221031  0.44869872  1
  Se  Se178  1  0.58105294  0.42388558  0.94673385  1
  Se  Se179  1  0.58255676  0.75296832  0.43912163  1
  Se  Se180  1  0.58957573  0.74786796  0.93906771  1
  Se  Se181  1  0.91855415  0.08205337  0.43742077  1
  Se  Se182  1  0.93166011  0.05753304  0.94064481  1
  Se  Se183  1  0.92641495  0.42132029  0.44039124  1
  Se  Se184  1  0.91998151  0.41539860  0.94023998  1
  Se  Se185  1  0.91318837  0.75359380  0.44022669  1
  Se  Se186  1  0.92453293  0.74665575  0.95273512  1
  Se  Se187  1  0.24673034  0.24627935  0.29469021  1
  Se  Se188  1  0.24495189  0.24099835  0.81590442  1
  Se  Se189  1  0.24106147  0.57964054  0.30651323  1
  Se  Se190  1  0.24686381  0.58886971  0.81286257  1
  Se  Se191  1  0.25390770  0.91453292  0.30115078  1
  Se  Se192  1  0.24774368  0.92489004  0.80717670  1
  Se  Se193  1  0.57510187  0.23992559  0.31045517  1
  Se  Se194  1  0.57777908  0.25491830  0.80489646  1
  Se  Se195  1  0.58103145  0.58293852  0.30323417  1
  Se  Se196  1  0.57554244  0.58392707  0.81019386  1
  Se  Se197  1  0.58628159  0.91780776  0.30170658  1
  Se  Se198  1  0.57722583  0.91678313  0.79949293  1
  Se  Se199  1  0.91071713  0.24172031  0.30536475  1
  Se  Se200  1  0.92006442  0.24647612  0.80869419  1
  Se  Se201  1  0.90147168  0.57204370  0.30097792  1
  Se  Se202  1  0.91540603  0.58139605  0.81212171  1
  Se  Se203  1  0.92561605  0.92078242  0.29914051  1
  Se  Se204  1  0.90803785  0.89912935  0.82244712  1
  Se  Se205  1  0.08158906  0.08374215  0.29538832  1
  Se  Se206  1  0.08865131  0.08821664  0.81570977  1
  Se  Se207  1  0.08536251  0.41950589  0.31171923  1
  Se  Se208  1  0.08745229  0.41738021  0.80623895  1
  Se  Se209  1  0.08524098  0.75394621  0.30542228  1
  Se  Se210  1  0.07885178  0.76307605  0.81316554  1
  Se  Se211  1  0.42139284  0.08037731  0.29706171  1
  Se  Se212  1  0.40889600  0.08424575  0.80042996  1
  Se  Se213  1  0.41727606  0.41084429  0.29958470  1
  Se  Se214  1  0.42404950  0.43098201  0.80790338  1
  Se  Se215  1  0.41898416  0.75164662  0.30370672  1
  Se  Se216  1  0.41619194  0.75814736  0.80605649  1
  Se  Se217  1  0.75175461  0.08305281  0.29665710  1
  Se  Se218  1  0.75358692  0.07923028  0.82534756  1
  Se  Se219  1  0.75002365  0.41802594  0.31187719  1
  Se  Se220  1  0.75153071  0.41786340  0.80485546  1
  Se  Se221  1  0.74945429  0.75852331  0.29747514  1
  Se  Se222  1  0.74761955  0.75416090  0.80780045  1
  Se  Se223  1  0.25175183  0.07842347  0.18967499  1
  Se  Se224  1  0.24174062  0.08262498  0.69703772  1
  Se  Se225  1  0.24467817  0.41031129  0.19525811  1
  Se  Se226  1  0.25121015  0.42141717  0.69441186  1
  Se  Se227  1  0.25401168  0.74453371  0.19984031  1
  Se  Se228  1  0.24163936  0.76713137  0.69288229  1
  Se  Se229  1  0.58749507  0.08613171  0.19088919  1
  Se  Se230  1  0.57952696  0.08405231  0.70106367  1
  Se  Se231  1  0.57774827  0.41572125  0.18746471  1
  Se  Se232  1  0.59752613  0.41482321  0.69656052  1
  Se  Se233  1  0.58570578  0.74850844  0.19524566  1
  Se  Se234  1  0.57151697  0.75638297  0.68612470  1
  Se  Se235  1  0.91889692  0.08150860  0.18464875  1
  Se  Se236  1  0.90593295  0.08360544  0.69728060  1
  Se  Se237  1  0.90758838  0.41796218  0.18966562  1
  Se  Se238  1  0.92531755  0.41430795  0.70157726  1
  Se  Se239  1  0.91845448  0.75294266  0.19746166  1
  Se  Se240  1  0.90531250  0.75885951  0.69166645  1
  Se  Se241  1  0.08376398  0.23834911  0.17854587  1
  Se  Se242  1  0.08171518  0.25085585  0.70052552  1
  Se  Se243  1  0.08150792  0.58240057  0.19974367  1
  Se  Se244  1  0.09722813  0.57771473  0.69199691  1
  Se  Se245  1  0.08971965  0.91441269  0.19186133  1
  Se  Se246  1  0.07705816  0.91616689  0.69619314  1
  Se  Se247  1  0.41420819  0.24925771  0.19247629  1
  Se  Se248  1  0.42100660  0.24664589  0.68834712  1
  Se  Se249  1  0.41549701  0.57873117  0.19750897  1
  Se  Se250  1  0.43116872  0.57729559  0.68928847  1
  Se  Se251  1  0.42311898  0.91454205  0.19440538  1
  Se  Se252  1  0.40415529  0.91870907  0.69285857  1
  Se  Se253  1  0.75700773  0.24334705  0.18485319  1
  Se  Se254  1  0.75390998  0.24176042  0.70641704  1
  Se  Se255  1  0.75412180  0.57550585  0.19946924  1
  Se  Se256  1  0.76484935  0.57583329  0.69186881  1
  Se  Se257  1  0.75096000  0.91915511  0.19119281  1
  Se  Se258  1  0.74273297  0.91610093  0.69602838  1
