# generated using pymatgen
data_In86Cu29Se144
_symmetry_space_group_name_H-M   'P 1'
_cell_length_a   17.57875642
_cell_length_b   17.57444346
_cell_length_c   23.44115420
_cell_angle_alpha   90.00892339
_cell_angle_beta   89.99559136
_cell_angle_gamma   90.00261973
_symmetry_Int_Tables_number   1
_chemical_formula_structural   In86Cu29Se144
_chemical_formula_sum   'In86 Cu29 Se144'
_cell_volume   7241.83647657
_cell_formula_units_Z   1
loop_
 _symmetry_equiv_pos_site_id
 _symmetry_equiv_pos_as_xyz
  1  'x, y, z'
loop_
 _atom_site_type_symbol
 _atom_site_label
 _atom_site_symmetry_multiplicity
 _atom_site_fract_x
 _atom_site_fract_y
 _atom_site_fract_z
 _atom_site_occupancy
  In  In0  1  -0.00501970  0.17188070  0.13033604  1
  In  In1  1  0.00124199  0.16690212  0.62301051  1
  In  In2  1  -0.03367078  0.47176837  0.10594128  1
  In  In3  1  0.00261822  0.49748202  0.62388880  1
  In  In4  1  0.01042598  0.83564732  0.12796539  1
  In  In5  1  -0.00028234  0.83226721  0.62827941  1
  In  In6  1  0.32139131  0.17480878  0.13081753  1
  In  In7  1  0.32761936  0.17582059  0.62153570  1
  In  In8  1  0.33480299  0.48545190  0.12341003  1
  In  In9  1  0.33243264  0.50134304  0.62574543  1
  In  In10  1  0.34500498  0.83239195  0.12329564  1
  In  In11  1  0.32000534  0.83809959  0.62602150  1
  In  In12  1  0.69019984  0.17742041  0.11948419  1
  In  In13  1  0.67476133  0.15872009  0.62397389  1
  In  In14  1  0.66669140  0.49055298  0.12033366  1
  In  In15  1  0.66337131  0.49391248  0.61820315  1
  In  In16  1  0.66256178  0.84700213  0.11903622  1
  In  In17  1  0.67403736  0.82009175  0.62531423  1
  In  In18  1  0.16786684  0.01044842  0.37941265  1
  In  In19  1  0.15989447  0.01501405  0.87566063  1
  In  In20  1  0.16587765  0.33272750  0.37660877  1
  In  In21  1  0.16043552  0.32923317  0.86641813  1
  In  In22  1  0.16507570  0.66523733  0.38787633  1
  In  In23  1  0.16611062  0.66611327  0.85985803  1
  In  In24  1  0.49837502  0.01792674  0.37091393  1
  In  In25  1  0.49378900  -0.00744477  0.88019353  1
  In  In26  1  0.50480233  0.34290868  0.36746291  1
  In  In27  1  0.49915492  0.36209436  0.87520056  1
  In  In28  1  0.48510919  0.66180911  0.37698957  1
  In  In29  1  0.50057795  0.66478365  0.87518462  1
  In  In30  1  0.84475439  -0.00628313  0.38247424  1
  In  In31  1  0.84947631  0.00619783  0.87143323  1
  In  In32  1  0.83212956  0.33312613  0.37580814  1
  In  In33  1  0.85344899  0.32315769  0.89555732  1
  In  In34  1  0.84329611  0.66013436  0.38545712  1
  In  In35  1  0.83073422  0.65891044  0.86823760  1
  In  In36  1  0.00200911  0.16865900  0.37759212  1
  In  In37  1  0.00405180  0.17020323  0.87397933  1
  In  In38  1  0.00227611  0.49279107  0.38091109  1
  In  In39  1  -0.00864717  0.49280448  0.86018876  1
  In  In40  1  -0.00293820  0.83996691  0.38307936  1
  In  In41  1  -0.00379534  0.84307795  0.85483023  1
  In  In42  1  0.32125114  0.16008045  0.36954728  1
  In  In43  1  0.30943115  0.16859947  0.87827582  1
  In  In44  1  0.33809642  0.49692316  0.38279095  1
  In  In45  1  0.34364678  0.50738237  0.85994322  1
  In  In46  1  0.31610659  0.84565371  0.38636947  1
  In  In47  1  0.34640344  0.82569435  0.86889873  1
  In  In48  1  0.66449580  0.18417843  0.37242828  1
  In  In49  1  0.68197247  0.19189270  0.88378340  1
  In  In50  1  0.68011001  0.48363746  0.38716972  1
  In  In51  1  0.67601340  0.49245714  0.88545981  1
  In  In52  1  0.67695047  0.84208123  0.37789262  1
  In  In53  1  0.66092004  0.81999002  0.87361845  1
  In  In54  1  0.15030748  0.01511739  0.13558398  1
  In  In55  1  0.15938600  -0.01742238  0.60653284  1
  In  In56  1  0.17042381  0.32479875  0.12876214  1
  In  In57  1  0.16334705  0.33163861  0.62055682  1
  In  In58  1  0.16635072  0.66234510  0.12935901  1
  In  In59  1  0.16642469  0.66386634  0.62635094  1
  In  In60  1  0.50187685  -0.00840897  0.12323977  1
  In  In61  1  0.48864219  -0.00113405  0.62559676  1
  In  In62  1  0.49194459  0.33993899  0.12652548  1
  In  In63  1  0.48051839  0.33872293  0.63333264  1
  In  In64  1  0.50608749  0.66411323  0.11476779  1
  In  In65  1  0.50163706  0.64900264  0.63470155  1
  In  In66  1  0.83756852  0.01346301  0.12791994  1
  In  In67  1  0.84700670  0.00759775  0.61972358  1
  In  In68  1  0.83596113  0.33317146  0.13698029  1
  In  In69  1  0.84567752  0.34398430  0.61550051  1
  In  In70  1  0.83478994  0.64696615  0.12732562  1
  In  In71  1  0.84772296  0.67654875  0.61836792  1
  In  In72  1  0.66705305  0.01140078  0.24203821  1
  In  In73  1  0.66965043  -0.00288645  0.75417162  1
  In  In74  1  0.16269266  0.49041396  0.00071633  1
  In  In75  1  0.82775931  0.83092799  -0.00603173  1
  In  In76  1  0.32958780  0.66852621  0.25329822  1
  In  In77  1  0.66695647  0.33592075  0.75515509  1
  In  In78  1  0.66086137  0.66449818  0.24670715  1
  In  In79  1  0.32202861  -0.00237252  0.74628922  1
  In  In80  1  0.17202406  0.83899302  -0.00811605  1
  In  In81  1  0.00305960  0.65525848  0.25607139  1
  In  In82  1  0.49866326  0.17054356  0.00424139  1
  In  In83  1  0.50553464  0.82738018  0.50292451  1
  In  In84  1  0.67032528  0.66412675  0.75286905  1
  In  In85  1  0.50141092  0.17603051  0.50101637  1
  Cu  Cu86  1  0.49315554  0.17450555  0.24608437  1
  Cu  Cu87  1  0.83677009  0.50015303  0.74562535  1
  Cu  Cu88  1  0.15952467  0.49355108  0.25039554  1
  Cu  Cu89  1  0.49232957  0.84354458  0.24920789  1
  Cu  Cu90  1  0.49392417  0.16521748  0.75490374  1
  Cu  Cu91  1  0.67047094  0.66128465  0.50346342  1
  Cu  Cu92  1  0.84221911  0.83003781  0.25596110  1
  Cu  Cu93  1  0.84171714  0.17730963  0.75055053  1
  Cu  Cu94  1  0.15712925  0.16755251  0.74682304  1
  Cu  Cu95  1  0.00464591  0.00182969  0.49992190  1
  Cu  Cu96  1  0.34349210  0.65787640  -0.00505981  1
  Cu  Cu97  1  0.16360858  0.83430536  0.74243142  1
  Cu  Cu98  1  0.32992111  0.33665904  0.49961689  1
  Cu  Cu99  1  0.49896770  0.49694727  0.25021436  1
  Cu  Cu100  1  0.16792739  0.49578331  0.74189712  1
  Cu  Cu101  1  0.16339829  0.16924260  0.25500046  1
  Cu  Cu102  1  0.33206665  0.66236092  0.50612776  1
  Cu  Cu103  1  0.00120487  0.32874058  0.49866833  1
  Cu  Cu104  1  0.16485007  0.84784173  0.25723349  1
  Cu  Cu105  1  0.00395033  0.66571104  -0.00831278  1
  Cu  Cu106  1  0.65966405  -0.00249996  -0.00175882  1
  Cu  Cu107  1  0.32660213  -0.00418146  -0.00147298  1
  Cu  Cu108  1  0.67934530  -0.00037829  0.50191559  1
  Cu  Cu109  1  0.00188039  0.66604940  0.50796343  1
  Cu  Cu110  1  0.33505496  0.33732906  -0.00191643  1
  Cu  Cu111  1  0.66607205  0.66187116  -0.00199587  1
  Cu  Cu112  1  0.66510940  0.33298870  0.49711019  1
  Cu  Cu113  1  0.83959040  0.16867530  0.25353383  1
  Cu  Cu114  1  -0.00441994  0.01051172  0.00210771  1
  Se  Se115  1  0.07887257  0.09032975  0.05779496  1
  Se  Se116  1  0.08658077  0.08839967  0.55162460  1
  Se  Se117  1  0.07437331  0.39379160  0.05334063  1
  Se  Se118  1  0.08225541  0.41616413  0.55141490  1
  Se  Se119  1  0.08244589  0.74298786  0.05360712  1
  Se  Se120  1  0.08562581  0.75171269  0.55862373  1
  Se  Se121  1  0.40606764  0.07747024  0.05998901  1
  Se  Se122  1  0.40961991  0.08019918  0.55406868  1
  Se  Se123  1  0.42083868  0.42036435  0.04837035  1
  Se  Se124  1  0.41538785  0.41702253  0.55412601  1
  Se  Se125  1  0.41723365  0.74736079  0.05116374  1
  Se  Se126  1  0.41463602  0.74236631  0.56559640  1
  Se  Se127  1  0.74729365  0.07352026  0.05298360  1
  Se  Se128  1  0.75944298  0.08882621  0.55156485  1
  Se  Se129  1  0.78123637  0.43580543  0.06543695  1
  Se  Se130  1  0.75004555  0.41651592  0.55025254  1
  Se  Se131  1  0.74434538  0.74117015  0.06237643  1
  Se  Se132  1  0.75403765  0.75009119  0.54983452  1
  Se  Se133  1  0.25314683  0.25392544  0.05238285  1
  Se  Se134  1  0.24623792  0.24982712  0.54841161  1
  Se  Se135  1  0.25690415  0.58797340  0.05748855  1
  Se  Se136  1  0.24548342  0.57858800  0.55563217  1
  Se  Se137  1  0.24724046  0.92263913  0.06583634  1
  Se  Se138  1  0.26455125  0.91940131  0.54614359  1
  Se  Se139  1  0.59043832  0.25993725  0.06076145  1
  Se  Se140  1  0.58872664  0.26135528  0.56787324  1
  Se  Se141  1  0.58526000  0.57505792  0.05077683  1
  Se  Se142  1  0.58073827  0.58390857  0.55460610  1
  Se  Se143  1  0.57422367  0.91269674  0.04579443  1
  Se  Se144  1  0.59357781  0.92518390  0.56236808  1
  Se  Se145  1  0.89170739  0.23244559  0.06571790  1
  Se  Se146  1  0.91598539  0.24604751  0.55172817  1
  Se  Se147  1  0.91915225  0.58915399  0.04812025  1
  Se  Se148  1  0.91595427  0.57762934  0.55412864  1
  Se  Se149  1  0.92063084  0.91801126  0.05775616  1
  Se  Se150  1  0.92275466  0.91583868  0.55381554  1
  Se  Se151  1  0.08826057  0.24705967  0.44721533  1
  Se  Se152  1  0.09836172  0.24121310  0.94099650  1
  Se  Se153  1  0.07970382  0.58036979  0.45063850  1
  Se  Se154  1  0.08463538  0.58498860  0.93460053  1
  Se  Se155  1  0.08891417  0.91819700  0.44663435  1
  Se  Se156  1  0.06789858  0.92305013  0.94054440  1
  Se  Se157  1  0.41142180  0.25830112  0.43651717  1
  Se  Se158  1  0.41122455  0.25340862  0.93644813  1
  Se  Se159  1  0.41796505  0.58100104  0.45334615  1
  Se  Se160  1  0.42213560  0.57258375  0.94106110  1
  Se  Se161  1  0.42519767  0.92344116  0.44143361  1
  Se  Se162  1  0.40917936  0.91119661  0.94733754  1
  Se  Se163  1  0.74995514  0.24833720  0.44764644  1
  Se  Se164  1  0.75755598  0.25629151  0.96260925  1
  Se  Se165  1  0.75503697  0.57884364  0.45039996  1
  Se  Se166  1  0.75753718  0.58645027  0.94656991  1
  Se  Se167  1  0.76000608  0.91140435  0.45155601  1
  Se  Se168  1  0.74148446  0.92515713  0.93310295  1
  Se  Se169  1  0.25760679  0.08382229  0.44904420  1
  Se  Se170  1  0.24109975  0.08300480  0.95290740  1
  Se  Se171  1  0.24510806  0.42022363  0.44655519  1
  Se  Se172  1  0.25694527  0.41575742  0.93385960  1
  Se  Se173  1  0.25104718  0.74840930  0.45313344  1
  Se  Se174  1  0.25626831  0.73650553  0.93890233  1
  Se  Se175  1  0.59562558  0.08029984  0.44438264  1
  Se  Se176  1  0.58829695  0.08475013  0.93717841  1
  Se  Se177  1  0.57586002  0.41586463  0.44848950  1
  Se  Se178  1  0.60134945  0.39584501  0.94765195  1
  Se  Se179  1  0.59381695  0.73957263  0.43730421  1
  Se  Se180  1  0.58164446  0.74659482  0.94773729  1
  Se  Se181  1  0.91914187  0.08565750  0.44813124  1
  Se  Se182  1  0.91518593  0.09200089  0.94540226  1
  Se  Se183  1  0.91467388  0.41295699  0.44805741  1
  Se  Se184  1  0.92921075  0.42857673  0.94651861  1
  Se  Se185  1  0.92105537  0.74967749  0.45044650  1
  Se  Se186  1  0.92617536  0.75063279  0.93370059  1
  Se  Se187  1  0.24981859  0.25495824  0.30372128  1
  Se  Se188  1  0.24687857  0.24697336  0.79775047  1
  Se  Se189  1  0.23804345  0.57740262  0.30985493  1
  Se  Se190  1  0.24976552  0.58191113  0.79474959  1
  Se  Se191  1  0.25277240  0.92672929  0.30806899  1
  Se  Se192  1  0.23760750  0.90853146  0.81386659  1
  Se  Se193  1  0.58060252  0.25365058  0.29854675  1
  Se  Se194  1  0.57474290  0.24385078  0.81428030  1
  Se  Se195  1  0.57499765  0.57810025  0.31239127  1
  Se  Se196  1  0.58718951  0.56886403  0.81226843  1
  Se  Se197  1  0.58175697  0.91673084  0.30697351  1
  Se  Se198  1  0.57166325  0.90713245  0.80678038  1
  Se  Se199  1  0.92036677  0.25268673  0.30837790  1
  Se  Se200  1  0.91939639  0.25933192  0.80888890  1
  Se  Se201  1  0.90538177  0.56895073  0.30944461  1
  Se  Se202  1  0.91837003  0.58978805  0.79576445  1
  Se  Se203  1  0.92173080  0.91745396  0.30640873  1
  Se  Se204  1  0.91037664  0.92684572  0.79275179  1
  Se  Se205  1  0.08126584  0.08326183  0.30710538  1
  Se  Se206  1  0.07630694  0.08163286  0.80028471  1
  Se  Se207  1  0.07870982  0.41275315  0.30700206  1
  Se  Se208  1  0.08344378  0.41495697  0.79673297  1
  Se  Se209  1  0.09084967  0.75400052  0.31153147  1
  Se  Se210  1  0.07970741  0.75037935  0.79568754  1
  Se  Se211  1  0.41394870  0.08758489  0.29867336  1
  Se  Se212  1  0.41222582  0.08411525  0.81310692  1
  Se  Se213  1  0.40921101  0.42059066  0.30387152  1
  Se  Se214  1  0.40602342  0.40115010  0.79824231  1
  Se  Se215  1  0.41620489  0.76522407  0.31235920  1
  Se  Se216  1  0.41486857  0.73441629  0.80163790  1
  Se  Se217  1  0.75538653  0.08712461  0.31265636  1
  Se  Se218  1  0.75345268  0.10117077  0.80878547  1
  Se  Se219  1  0.73627237  0.40280666  0.30779571  1
  Se  Se220  1  0.76583501  0.41899139  0.81165010  1
  Se  Se221  1  0.75726723  0.74982502  0.31010240  1
  Se  Se222  1  0.76260025  0.76424806  0.80295565  1
  Se  Se223  1  0.24762995  0.08534721  0.20024044  1
  Se  Se224  1  0.23580016  0.08634112  0.68474880  1
  Se  Se225  1  0.24825081  0.41717327  0.19545204  1
  Se  Se226  1  0.25009452  0.41013981  0.69000890  1
  Se  Se227  1  0.23964966  0.76400351  0.19423683  1
  Se  Se228  1  0.24991838  0.74862043  0.69599240  1
  Se  Se229  1  0.57618069  0.10015226  0.18186386  1
  Se  Se230  1  0.57415463  0.08881524  0.69416504  1
  Se  Se231  1  0.58206684  0.41790294  0.19366075  1
  Se  Se232  1  0.57605311  0.42436986  0.69550391  1
  Se  Se233  1  0.57319592  0.76369882  0.19026329  1
  Se  Se234  1  0.57685164  0.75554362  0.69490160  1
  Se  Se235  1  0.92074029  0.08108603  0.20257541  1
  Se  Se236  1  0.91716076  0.08858166  0.69617832  1
  Se  Se237  1  0.92693192  0.41456742  0.20116554  1
  Se  Se238  1  0.92023850  0.41348971  0.69503905  1
  Se  Se239  1  0.91429205  0.74885495  0.19074147  1
  Se  Se240  1  0.91543842  0.75090666  0.69665900  1
  Se  Se241  1  0.08189429  0.25191791  0.19882240  1
  Se  Se242  1  0.07792729  0.25445544  0.69283492  1
  Se  Se243  1  0.08067754  0.56782054  0.18536411  1
  Se  Se244  1  0.08108714  0.58240939  0.69456198  1
  Se  Se245  1  0.07529485  0.92159669  0.20217866  1
  Se  Se246  1  0.08536129  0.92362238  0.69130842  1
  Se  Se247  1  0.40849000  0.25868393  0.19512568  1
  Se  Se248  1  0.40977018  0.24315251  0.69900826  1
  Se  Se249  1  0.42208721  0.58297906  0.19051041  1
  Se  Se250  1  0.41388704  0.57509128  0.70128452  1
  Se  Se251  1  0.41023808  0.92503125  0.19516757  1
  Se  Se252  1  0.42187590  0.90569611  0.69693597  1
  Se  Se253  1  0.74915678  0.24916176  0.20470281  1
  Se  Se254  1  0.75626525  0.25067948  0.68976665  1
  Se  Se255  1  0.75485099  0.56871733  0.20045223  1
  Se  Se256  1  0.75472964  0.57773899  0.68548133  1
  Se  Se257  1  0.76029138  0.90789863  0.19328708  1
  Se  Se258  1  0.75587846  0.91683972  0.68635118  1
