# generated using pymatgen
data_In86Cu29Se144
_symmetry_space_group_name_H-M   'P 1'
_cell_length_a   17.57836808
_cell_length_b   17.57879364
_cell_length_c   23.43961588
_cell_angle_alpha   89.99082873
_cell_angle_beta   89.99097210
_cell_angle_gamma   90.01270499
_symmetry_Int_Tables_number   1
_chemical_formula_structural   In86Cu29Se144
_chemical_formula_sum   'In86 Cu29 Se144'
_cell_volume   7242.99342224
_cell_formula_units_Z   1
loop_
 _symmetry_equiv_pos_site_id
 _symmetry_equiv_pos_as_xyz
  1  'x, y, z'
loop_
 _atom_site_type_symbol
 _atom_site_label
 _atom_site_symmetry_multiplicity
 _atom_site_fract_x
 _atom_site_fract_y
 _atom_site_fract_z
 _atom_site_occupancy
  In  In0  1  0.00432951  0.16818921  0.13161095  1
  In  In1  1  -0.00085664  0.16380147  0.61622198  1
  In  In2  1  0.00743060  0.49440180  0.13612044  1
  In  In3  1  0.00092040  0.50698116  0.61999757  1
  In  In4  1  -0.00291748  0.83703640  0.13988605  1
  In  In5  1  0.00971036  0.82356446  0.61787979  1
  In  In6  1  0.32915998  0.15603415  0.11956540  1
  In  In7  1  0.33016565  0.16153099  0.62263228  1
  In  In8  1  0.32719230  0.50865307  0.12835043  1
  In  In9  1  0.33724737  0.49030357  0.62575044  1
  In  In10  1  0.32983446  0.83884000  0.13128574  1
  In  In11  1  0.34073451  0.84834591  0.61580642  1
  In  In12  1  0.65932560  0.17470024  0.13522621  1
  In  In13  1  0.67133649  0.17097949  0.61369695  1
  In  In14  1  0.66884637  0.49500151  0.13905667  1
  In  In15  1  0.66899394  0.50011668  0.61353163  1
  In  In16  1  0.66933519  0.83332442  0.14895827  1
  In  In17  1  0.66133411  0.84476645  0.61654638  1
  In  In18  1  0.16492525  0.00046884  0.37523339  1
  In  In19  1  0.18906588  0.02742056  0.83796562  1
  In  In20  1  0.14215894  0.32711739  0.38008354  1
  In  In21  1  0.17828761  0.31809571  0.89528782  1
  In  In22  1  0.17537839  0.67249197  0.37196382  1
  In  In23  1  0.15409031  0.67417584  0.87435405  1
  In  In24  1  0.49561448  0.00035419  0.37361429  1
  In  In25  1  0.49428369  0.01937837  0.87988486  1
  In  In26  1  0.51021357  0.32309735  0.38223062  1
  In  In27  1  0.46956848  0.32746341  0.86785493  1
  In  In28  1  0.49772065  0.66885652  0.37990399  1
  In  In29  1  0.50624483  0.66088809  0.87597982  1
  In  In30  1  0.84524080  0.00304494  0.36272916  1
  In  In31  1  0.83984287  -0.00823767  0.87668855  1
  In  In32  1  0.83902634  0.33671604  0.38227851  1
  In  In33  1  0.83789699  0.34290599  0.87164054  1
  In  In34  1  0.82556576  0.66413187  0.36705696  1
  In  In35  1  0.84435615  0.65152583  0.87671034  1
  In  In36  1  0.00035862  0.16574087  0.38071429  1
  In  In37  1  0.05284979  0.16941776  0.86906194  1
  In  In38  1  -0.00953329  0.49203141  0.37505975  1
  In  In39  1  -0.00093908  0.50484916  0.87312000  1
  In  In40  1  0.00376273  0.83884266  0.36848252  1
  In  In41  1  0.01353712  0.84027577  0.86417970  1
  In  In42  1  0.34006344  0.15735154  0.38073561  1
  In  In43  1  0.32967034  0.16974659  0.87319360  1
  In  In44  1  0.33154671  0.51492755  0.37724300  1
  In  In45  1  0.32623945  0.46835951  0.86510725  1
  In  In46  1  0.33017903  0.83754262  0.37763416  1
  In  In47  1  0.31803090  0.83555669  0.87251969  1
  In  In48  1  0.66666866  0.16659942  0.37200949  1
  In  In49  1  0.66513255  0.15447930  0.87794733  1
  In  In50  1  0.66623252  0.49896579  0.37709102  1
  In  In51  1  0.66702667  0.50247956  0.87445820  1
  In  In52  1  0.66111599  0.82401618  0.36502976  1
  In  In53  1  0.66321817  0.83563176  0.87630103  1
  In  In54  1  0.16834933  0.00629444  0.13050530  1
  In  In55  1  0.16881484  -0.00044152  0.62188214  1
  In  In56  1  0.15513458  0.32918288  0.11862598  1
  In  In57  1  0.18321541  0.32825801  0.62845555  1
  In  In58  1  0.17098779  0.66300086  0.13456708  1
  In  In59  1  0.14508877  0.66533406  0.61782902  1
  In  In60  1  0.49079643  0.01327969  0.13720779  1
  In  In61  1  0.49363291  -0.00255156  0.61613761  1
  In  In62  1  0.51265296  0.33103405  0.12755381  1
  In  In63  1  0.49245389  0.32739687  0.61678807  1
  In  In64  1  0.49592582  0.66729124  0.14091393  1
  In  In65  1  0.49984281  0.67003113  0.61455079  1
  In  In66  1  0.83715726  -0.00406234  0.14460763  1
  In  In67  1  0.83411738  0.01333375  0.61711483  1
  In  In68  1  0.83364622  0.33190095  0.13485558  1
  In  In69  1  0.84664299  0.33734876  0.60127773  1
  In  In70  1  0.83876680  0.66492838  0.14802826  1
  In  In71  1  0.85644318  0.66384573  0.60984054  1
  In  In72  1  0.16869554  0.49344987  0.50176726  1
  In  In73  1  0.84110543  0.16282314  0.00734204  1
  In  In74  1  0.15998864  0.84430200  0.01005685  1
  In  In75  1  0.66066963  0.32794113  0.73374247  1
  In  In76  1  0.84140527  0.49406516  0.00537240  1
  In  In77  1  0.67177418  0.66671086  0.75511003  1
  In  In78  1  0.33171773  0.33221367  0.25434322  1
  In  In79  1  0.49065015  0.84521816  0.00454311  1
  In  In80  1  0.32833513  0.66847989  0.74340883  1
  In  In81  1  0.00948624  0.32964575  0.74743978  1
  In  In82  1  0.66731709  0.00184588  0.74136156  1
  In  In83  1  0.83796394  0.83303048  0.01451935  1
  In  In84  1  0.83028142  0.83172121  0.48378665  1
  In  In85  1  0.49312355  0.48998540  -0.00650476  1
  Cu  Cu86  1  0.83585697  0.17524317  0.25585924  1
  Cu  Cu87  1  0.65829376  0.00451531  0.49254268  1
  Cu  Cu88  1  -0.00137418  0.66683120  -0.00084733  1
  Cu  Cu89  1  0.65952060  0.66303331  0.01670228  1
  Cu  Cu90  1  0.17180016  0.83749740  0.25302881  1
  Cu  Cu91  1  0.16100855  0.50127587  0.25636419  1
  Cu  Cu92  1  0.49170874  0.17464353  0.74724511  1
  Cu  Cu93  1  0.16182091  0.83381049  0.74030776  1
  Cu  Cu94  1  0.32981304  0.65942602  0.00334806  1
  Cu  Cu95  1  0.83736925  0.50696044  0.74441061  1
  Cu  Cu96  1  0.66196593  0.32293185  0.00019924  1
  Cu  Cu97  1  0.00138040  -0.00402012  0.49490961  1
  Cu  Cu98  1  0.66151136  0.00212901  0.01148249  1
  Cu  Cu99  1  0.00938935  0.01260065  -0.00148592  1
  Cu  Cu100  1  0.49620637  0.83485355  0.74513855  1
  Cu  Cu101  1  0.82942990  0.49647228  0.25818724  1
  Cu  Cu102  1  0.33434177  0.32951448  0.49955988  1
  Cu  Cu103  1  0.66720840  0.66814201  0.49165568  1
  Cu  Cu104  1  0.50138545  0.50058597  0.25639683  1
  Cu  Cu105  1  0.33351528  0.67357412  0.49839202  1
  Cu  Cu106  1  0.32864734  0.00342992  0.49763564  1
  Cu  Cu107  1  0.49964595  0.16440670  0.25514798  1
  Cu  Cu108  1  0.16384434  0.50031699  0.74714177  1
  Cu  Cu109  1  0.84726184  0.82669709  0.74361364  1
  Cu  Cu110  1  0.84721880  0.16883626  0.74470100  1
  Cu  Cu111  1  0.32843709  0.32632546  0.00114953  1
  Cu  Cu112  1  0.16336183  0.16667311  0.25225132  1
  Cu  Cu113  1  0.66488504  0.33380450  0.49436178  1
  Cu  Cu114  1  0.49379429  0.83096577  0.25757104  1
  Se  Se115  1  0.08774315  0.08961616  0.05997996  1
  Se  Se116  1  0.08355594  0.07828015  0.55071313  1
  Se  Se117  1  0.08968841  0.43358678  0.05794857  1
  Se  Se118  1  0.08266985  0.40377157  0.56427787  1
  Se  Se119  1  0.07242611  0.74638163  0.06512768  1
  Se  Se120  1  0.07625810  0.74243322  0.54116361  1
  Se  Se121  1  0.42544559  0.08367160  0.05515579  1
  Se  Se122  1  0.41570406  0.08592088  0.54985278  1
  Se  Se123  1  0.40800809  0.40661371  0.06376677  1
  Se  Se124  1  0.41567027  0.41893307  0.54883733  1
  Se  Se125  1  0.41096104  0.73959263  0.06119667  1
  Se  Se126  1  0.41969783  0.75775387  0.54986896  1
  Se  Se127  1  0.74902371  0.07674608  0.06928392  1
  Se  Se128  1  0.74708968  0.08278696  0.54515620  1
  Se  Se129  1  0.73856127  0.40798898  0.05919238  1
  Se  Se130  1  0.75040414  0.41910768  0.54445331  1
  Se  Se131  1  0.74337315  0.74222199  0.07163871  1
  Se  Se132  1  0.74559185  0.74604067  0.55675222  1
  Se  Se133  1  0.24618438  0.24607569  0.05680035  1
  Se  Se134  1  0.24987746  0.24676895  0.55131502  1
  Se  Se135  1  0.24221041  0.58227632  0.05673307  1
  Se  Se136  1  0.25720487  0.59006153  0.56163913  1
  Se  Se137  1  0.26290223  0.93106211  0.05788456  1
  Se  Se138  1  0.24574720  0.91583989  0.54809277  1
  Se  Se139  1  0.58015030  0.24220531  0.05486030  1
  Se  Se140  1  0.58245309  0.25095129  0.54968017  1
  Se  Se141  1  0.57701959  0.57544710  0.06525278  1
  Se  Se142  1  0.58465923  0.58657445  0.54904958  1
  Se  Se143  1  0.58850811  0.91557209  0.07111828  1
  Se  Se144  1  0.57783303  0.91783114  0.54534211  1
  Se  Se145  1  0.92390150  0.26321134  0.06147237  1
  Se  Se146  1  0.90843796  0.23077787  0.54454483  1
  Se  Se147  1  0.91878103  0.59388006  0.06508753  1
  Se  Se148  1  0.91530509  0.56579041  0.54235552  1
  Se  Se149  1  0.92996005  0.93339624  0.06210802  1
  Se  Se150  1  0.91556639  0.91669559  0.55361599  1
  Se  Se151  1  0.07905078  0.24380746  0.45559388  1
  Se  Se152  1  0.07231367  0.25534193  0.95479873  1
  Se  Se153  1  0.08758087  0.58075007  0.43605016  1
  Se  Se154  1  0.08114802  0.58584780  0.94436180  1
  Se  Se155  1  0.08483843  0.91221943  0.44385984  1
  Se  Se156  1  0.08387609  0.92779568  0.93794489  1
  Se  Se157  1  0.41865030  0.24621635  0.44740183  1
  Se  Se158  1  0.41470261  0.24527555  0.94834419  1
  Se  Se159  1  0.41634702  0.58459688  0.45110259  1
  Se  Se160  1  0.40426006  0.58475461  0.93579269  1
  Se  Se161  1  0.41471212  0.91975385  0.44593790  1
  Se  Se162  1  0.40092358  0.92634565  0.93885055  1
  Se  Se163  1  0.74776013  0.24887920  0.44290531  1
  Se  Se164  1  0.75015677  0.25311152  0.93963836  1
  Se  Se165  1  0.75317688  0.58384044  0.44344665  1
  Se  Se166  1  0.74243139  0.58997653  0.95063413  1
  Se  Se167  1  0.73992742  0.92652885  0.43089197  1
  Se  Se168  1  0.74196554  0.92166828  0.95065024  1
  Se  Se169  1  0.24354812  0.08667910  0.44608746  1
  Se  Se170  1  0.23642426  0.08317454  0.93144626  1
  Se  Se171  1  0.25602191  0.40661211  0.43541426  1
  Se  Se172  1  0.25238874  0.42206542  0.95361134  1
  Se  Se173  1  0.24654661  0.75427156  0.44783200  1
  Se  Se174  1  0.24983707  0.74563392  0.94827051  1
  Se  Se175  1  0.57641273  0.08937867  0.44053750  1
  Se  Se176  1  0.58324647  0.08519905  0.95387439  1
  Se  Se177  1  0.57899569  0.42120631  0.44754734  1
  Se  Se178  1  0.58680421  0.40099695  0.93386071  1
  Se  Se179  1  0.58359235  0.75619872  0.44500427  1
  Se  Se180  1  0.58778330  0.74445086  0.95055601  1
  Se  Se181  1  0.91290941  0.07641733  0.44409648  1
  Se  Se182  1  0.92693275  0.08582420  0.93525232  1
  Se  Se183  1  0.92467564  0.41254538  0.45345093  1
  Se  Se184  1  0.93174017  0.40622620  0.94500987  1
  Se  Se185  1  0.92501125  0.73988013  0.43421559  1
  Se  Se186  1  0.92190298  0.75227601  0.94020877  1
  Se  Se187  1  0.24221003  0.24494130  0.31566300  1
  Se  Se188  1  0.24388553  0.25741203  0.80983909  1
  Se  Se189  1  0.25147078  0.58450986  0.30103761  1
  Se  Se190  1  0.24462888  0.57992556  0.81087625  1
  Se  Se191  1  0.25314951  0.92257204  0.30611269  1
  Se  Se192  1  0.25403674  0.90952249  0.79131855  1
  Se  Se193  1  0.58338165  0.25182829  0.30256794  1
  Se  Se194  1  0.58114835  0.24368215  0.80839380  1
  Se  Se195  1  0.58162688  0.58533752  0.31077445  1
  Se  Se196  1  0.57343694  0.56993071  0.80134713  1
  Se  Se197  1  0.57913190  0.91824570  0.30422293  1
  Se  Se198  1  0.57580420  0.91671797  0.80833154  1
  Se  Se199  1  0.92091102  0.25333164  0.31144149  1
  Se  Se200  1  0.91886075  0.24390207  0.81310465  1
  Se  Se201  1  0.91787285  0.58108424  0.30465944  1
  Se  Se202  1  0.92358354  0.58612376  0.79818323  1
  Se  Se203  1  0.91734491  0.91087284  0.29690189  1
  Se  Se204  1  0.91656636  0.91617968  0.80204534  1
  Se  Se205  1  0.08050335  0.08432412  0.30747565  1
  Se  Se206  1  0.05755918  0.06073021  0.79735937  1
  Se  Se207  1  0.07809722  0.41389129  0.30476685  1
  Se  Se208  1  0.09269398  0.41797600  0.81261228  1
  Se  Se209  1  0.08868643  0.75111168  0.30307037  1
  Se  Se210  1  0.08301902  0.74738841  0.79482868  1
  Se  Se211  1  0.41126006  0.08138418  0.30215661  1
  Se  Se212  1  0.41532069  0.08701359  0.80255261  1
  Se  Se213  1  0.42113467  0.41984885  0.31620247  1
  Se  Se214  1  0.42858309  0.42663417  0.79470901  1
  Se  Se215  1  0.41072916  0.74770333  0.31076017  1
  Se  Se216  1  0.42228965  0.75404560  0.80915662  1
  Se  Se217  1  0.75193884  0.08684081  0.30276192  1
  Se  Se218  1  0.76090432  0.09018273  0.80387004  1
  Se  Se219  1  0.74881746  0.41104248  0.31147316  1
  Se  Se220  1  0.75226567  0.42361653  0.79876701  1
  Se  Se221  1  0.75593521  0.75613465  0.29896790  1
  Se  Se222  1  0.76538519  0.75899481  0.81253314  1
  Se  Se223  1  0.25198557  0.08856038  0.19991262  1
  Se  Se224  1  0.25828008  0.07125948  0.69222965  1
  Se  Se225  1  0.23999298  0.41988530  0.19427836  1
  Se  Se226  1  0.25275183  0.41851378  0.69926469  1
  Se  Se227  1  0.25307931  0.75141702  0.19875262  1
  Se  Se228  1  0.24280881  0.75514645  0.67893926  1
  Se  Se229  1  0.58795079  0.08178153  0.20350436  1
  Se  Se230  1  0.57671505  0.09636082  0.68675603  1
  Se  Se231  1  0.58142252  0.41245015  0.20397719  1
  Se  Se232  1  0.57452887  0.42683618  0.68302567  1
  Se  Se233  1  0.58127329  0.74464983  0.20882592  1
  Se  Se234  1  0.58297918  0.75695875  0.69116516  1
  Se  Se235  1  0.91984772  0.09092971  0.20235379  1
  Se  Se236  1  0.92202845  0.08013934  0.69047190  1
  Se  Se237  1  0.91424587  0.41829416  0.20078614  1
  Se  Se238  1  0.91055465  0.41621433  0.68803152  1
  Se  Se239  1  0.91634798  0.75730839  0.20896543  1
  Se  Se240  1  0.92413126  0.74205174  0.68830983  1
  Se  Se241  1  0.08526679  0.25517548  0.19944849  1
  Se  Se242  1  0.09481366  0.23508372  0.68936763  1
  Se  Se243  1  0.07999368  0.58884930  0.20271991  1
  Se  Se244  1  0.07940752  0.58157551  0.69544019  1
  Se  Se245  1  0.08854562  0.92135795  0.19918648  1
  Se  Se246  1  0.07851087  0.91564091  0.68694111  1
  Se  Se247  1  0.42027076  0.24406919  0.19184923  1
  Se  Se248  1  0.40967719  0.25398702  0.69057640  1
  Se  Se249  1  0.41241420  0.57729672  0.20261135  1
  Se  Se250  1  0.42616190  0.58300742  0.68896257  1
  Se  Se251  1  0.41638827  0.91591222  0.19962774  1
  Se  Se252  1  0.41756283  0.92214779  0.69350542  1
  Se  Se253  1  0.74729399  0.25392754  0.20198889  1
  Se  Se254  1  0.76711105  0.24690159  0.68317160  1
  Se  Se255  1  0.74462158  0.58255026  0.20695609  1
  Se  Se256  1  0.75638300  0.58558489  0.68464192  1
  Se  Se257  1  0.74827726  0.92263297  0.21169389  1
  Se  Se258  1  0.76283622  0.90735268  0.68764222  1
