# generated using pymatgen
data_In86Cu29Se144
_symmetry_space_group_name_H-M   'P 1'
_cell_length_a   17.58177431
_cell_length_b   17.59004410
_cell_length_c   23.45034329
_cell_angle_alpha   90.00187967
_cell_angle_beta   89.98990935
_cell_angle_gamma   90.00230845
_symmetry_Int_Tables_number   1
_chemical_formula_structural   In86Cu29Se144
_chemical_formula_sum   'In86 Cu29 Se144'
_cell_volume   7252.35119330
_cell_formula_units_Z   1
loop_
 _symmetry_equiv_pos_site_id
 _symmetry_equiv_pos_as_xyz
  1  'x, y, z'
loop_
 _atom_site_type_symbol
 _atom_site_label
 _atom_site_symmetry_multiplicity
 _atom_site_fract_x
 _atom_site_fract_y
 _atom_site_fract_z
 _atom_site_occupancy
  In  In0  1  -0.00807007  0.15776130  0.11754420  1
  In  In1  1  -0.01726481  0.16955170  0.62628350  1
  In  In2  1  -0.00022601  0.50455599  0.10523021  1
  In  In3  1  -0.00390256  0.49859389  0.63004010  1
  In  In4  1  0.00291182  0.84064043  0.12898062  1
  In  In5  1  0.00540285  0.84508189  0.62313851  1
  In  In6  1  0.34545152  0.18083499  0.11567333  1
  In  In7  1  0.34877404  0.17008749  0.62696318  1
  In  In8  1  0.34123823  0.50368183  0.12079423  1
  In  In9  1  0.34922706  0.48579286  0.63725420  1
  In  In10  1  0.33232805  0.81711972  0.12823324  1
  In  In11  1  0.32244224  0.83147825  0.62434546  1
  In  In12  1  0.66822088  0.16427295  0.11883659  1
  In  In13  1  0.66187343  0.16610645  0.63274362  1
  In  In14  1  0.65630393  0.49690800  0.11131799  1
  In  In15  1  0.65108110  0.51072772  0.63349716  1
  In  In16  1  0.67237803  0.84774102  0.12413395  1
  In  In17  1  0.67688314  0.82212394  0.62884112  1
  In  In18  1  0.14749875  0.00139093  0.37377007  1
  In  In19  1  0.16657640  0.01973126  0.86896959  1
  In  In20  1  0.18245589  0.32327864  0.37309917  1
  In  In21  1  0.17911340  0.32385516  0.87815883  1
  In  In22  1  0.18005058  0.66274162  0.37431967  1
  In  In23  1  0.16762183  0.64872386  0.88020238  1
  In  In24  1  0.51848609  -0.00307090  0.37315579  1
  In  In25  1  0.51207118  -0.00852891  0.88094933  1
  In  In26  1  0.50018185  0.33394458  0.38496253  1
  In  In27  1  0.50092780  0.33430022  0.87599723  1
  In  In28  1  0.48801172  0.66736632  0.37135491  1
  In  In29  1  0.50254052  0.66936599  0.87706642  1
  In  In30  1  0.83267678  -0.00206373  0.37497853  1
  In  In31  1  0.84095629  0.00582415  0.86688254  1
  In  In32  1  0.80709847  0.32860690  0.37984703  1
  In  In33  1  0.82177147  0.34165413  0.87987531  1
  In  In34  1  0.83827343  0.67241930  0.37813619  1
  In  In35  1  0.81994315  0.66767949  0.88074803  1
  In  In36  1  -0.00407353  0.14983044  0.37210868  1
  In  In37  1  0.00855068  0.15787043  0.87727672  1
  In  In38  1  -0.00147150  0.50528517  0.37173404  1
  In  In39  1  -0.00091963  0.50510486  0.89042927  1
  In  In40  1  -0.01538500  0.84984658  0.38773763  1
  In  In41  1  -0.01146506  0.83989648  0.87283582  1
  In  In42  1  0.33707906  0.18213667  0.37002250  1
  In  In43  1  0.32497509  0.17883024  0.88023383  1
  In  In44  1  0.35176373  0.50484044  0.36334515  1
  In  In45  1  0.33776852  0.49982179  0.87590117  1
  In  In46  1  0.33455445  0.81645845  0.37768387  1
  In  In47  1  0.35430096  0.83469782  0.87812778  1
  In  In48  1  0.67682903  0.16318777  0.38714041  1
  In  In49  1  0.66686248  0.16731073  0.87509592  1
  In  In50  1  0.64874052  0.49636721  0.37527749  1
  In  In51  1  0.66457026  0.50007073  0.87738244  1
  In  In52  1  0.66834147  0.84602101  0.37229432  1
  In  In53  1  0.65833931  0.82317625  0.86401142  1
  In  In54  1  0.15317509  -0.00113064  0.12498225  1
  In  In55  1  0.17216086  -0.01231653  0.62604468  1
  In  In56  1  0.17693439  0.34464640  0.11596336  1
  In  In57  1  0.16920265  0.34149206  0.63054407  1
  In  In58  1  0.17667822  0.66422679  0.12179281  1
  In  In59  1  0.16704033  0.67801456  0.62978502  1
  In  In60  1  0.51190586  0.01257692  0.11582673  1
  In  In61  1  0.50233818  0.01965649  0.62473690  1
  In  In62  1  0.49714577  0.33204487  0.11944571  1
  In  In63  1  0.50148529  0.33170542  0.63099240  1
  In  In64  1  0.49172579  0.65678534  0.11127221  1
  In  In65  1  0.51119506  0.65215214  0.63380022  1
  In  In66  1  0.82134497  0.00620953  0.13591824  1
  In  In67  1  0.82907835  0.00032487  0.62775836  1
  In  In68  1  0.83519334  0.33229244  0.11487134  1
  In  In69  1  0.82628559  0.31446241  0.62100233  1
  In  In70  1  0.83632781  0.66593742  0.11725233  1
  In  In71  1  0.80901686  0.67282549  0.62484661  1
  In  In72  1  0.16698578  0.16231201  0.49621623  1
  In  In73  1  0.00238352  0.32773612  0.75445076  1
  In  In74  1  -0.00220267  0.66730946  0.75650894  1
  In  In75  1  0.50527036  0.82978236  0.49923374  1
  In  In76  1  0.17108959  0.50201265  0.50280108  1
  In  In77  1  0.82914040  0.83060609  -0.00149548  1
  In  In78  1  0.82324378  0.50233494  0.50589009  1
  In  In79  1  0.16613599  0.83343380  0.00803329  1
  In  In80  1  0.00528851  0.33229234  0.25016166  1
  In  In81  1  0.33169988  -0.00183880  0.24682194  1
  In  In82  1  0.00850592  0.67423090  0.24020153  1
  In  In83  1  0.66296122  0.67135723  0.25235680  1
  In  In84  1  0.65588831  0.33326733  0.24302995  1
  In  In85  1  0.33677180  0.00351543  0.75081735  1
  Cu  Cu86  1  0.17535995  0.49550560  0.75790181  1
  Cu  Cu87  1  0.17072254  0.83277523  0.74964621  1
  Cu  Cu88  1  -0.00129598  0.00304934  -0.00219366  1
  Cu  Cu89  1  0.83145959  0.49968693  0.24149016  1
  Cu  Cu90  1  0.50122806  0.17058312  0.75435875  1
  Cu  Cu91  1  -0.00691607  -0.00030729  0.50160827  1
  Cu  Cu92  1  0.49986435  0.50078792  0.75855649  1
  Cu  Cu93  1  0.33153905  -0.00232276  0.50149954  1
  Cu  Cu94  1  0.50108604  0.83186245  0.75013757  1
  Cu  Cu95  1  0.15979516  0.83375609  0.25243896  1
  Cu  Cu96  1  0.00121559  0.32529695  -0.00430527  1
  Cu  Cu97  1  0.34288492  0.33573602  0.50314937  1
  Cu  Cu98  1  0.50759897  0.16346703  0.24314985  1
  Cu  Cu99  1  0.33502755  0.33832463  -0.00262263  1
  Cu  Cu100  1  -0.00107837  0.67864959  0.50499983  1
  Cu  Cu101  1  0.50088063  0.83282722  0.24949765  1
  Cu  Cu102  1  0.66963633  0.00360322  0.50301318  1
  Cu  Cu103  1  0.66329702  0.32981806  -0.00392867  1
  Cu  Cu104  1  0.82214945  0.49483032  0.75251487  1
  Cu  Cu105  1  0.33475982  0.66380419  -0.00100922  1
  Cu  Cu106  1  0.83220888  0.83578815  0.74902995  1
  Cu  Cu107  1  0.18200993  0.49619593  0.24466377  1
  Cu  Cu108  1  -0.01016232  0.33068537  0.49617467  1
  Cu  Cu109  1  0.17037709  0.17100675  0.24641543  1
  Cu  Cu110  1  0.67373713  0.00315459  -0.00268435  1
  Cu  Cu111  1  0.33608516  0.00464726  -0.00406603  1
  Cu  Cu112  1  0.33642280  0.66038134  0.50066062  1
  Cu  Cu113  1  0.83425972  0.16170141  0.25388670  1
  Cu  Cu114  1  0.82784508  0.16407696  0.75076784  1
  Se  Se115  1  0.08602727  0.08393570  0.05017744  1
  Se  Se116  1  0.07756736  0.07870281  0.56142674  1
  Se  Se117  1  0.08392707  0.41306216  0.04660244  1
  Se  Se118  1  0.07145313  0.40836501  0.55620736  1
  Se  Se119  1  0.07097129  0.74125719  0.06129722  1
  Se  Se120  1  0.08753627  0.75527633  0.55789625  1
  Se  Se121  1  0.42045688  0.08809881  0.04993370  1
  Se  Se122  1  0.41329028  0.08442169  0.55061999  1
  Se  Se123  1  0.42077972  0.41975534  0.05022936  1
  Se  Se124  1  0.42456450  0.41848644  0.55747009  1
  Se  Se125  1  0.41360792  0.75457300  0.04958993  1
  Se  Se126  1  0.41467544  0.74335215  0.56165694  1
  Se  Se127  1  0.75817937  0.08255168  0.05369786  1
  Se  Se128  1  0.74756314  0.08721773  0.56104505  1
  Se  Se129  1  0.74715654  0.41303060  0.05066837  1
  Se  Se130  1  0.73881444  0.41390807  0.56794402  1
  Se  Se131  1  0.73532514  0.74295085  0.05601732  1
  Se  Se132  1  0.74652756  0.75298634  0.54690945  1
  Se  Se133  1  0.25082708  0.25167767  0.04907398  1
  Se  Se134  1  0.25290135  0.25774845  0.55736462  1
  Se  Se135  1  0.25014941  0.57983772  0.05054201  1
  Se  Se136  1  0.25906664  0.58545045  0.56795157  1
  Se  Se137  1  0.26077615  0.92616371  0.06319132  1
  Se  Se138  1  0.24805733  0.91231152  0.54960524  1
  Se  Se139  1  0.58273464  0.24781707  0.05381135  1
  Se  Se140  1  0.55883309  0.22548256  0.56708013  1
  Se  Se141  1  0.58232714  0.58472115  0.04416556  1
  Se  Se142  1  0.58780583  0.58951036  0.55340821  1
  Se  Se143  1  0.58931144  0.92054579  0.05055762  1
  Se  Se144  1  0.58774010  0.92263281  0.56281328  1
  Se  Se145  1  0.91501604  0.24486974  0.04914921  1
  Se  Se146  1  0.91084945  0.24316384  0.54725827  1
  Se  Se147  1  0.90363678  0.57908465  0.04574494  1
  Se  Se148  1  0.92135807  0.59285428  0.56320870  1
  Se  Se149  1  0.91848803  0.92349601  0.05865623  1
  Se  Se150  1  0.91123846  0.91667629  0.55709569  1
  Se  Se151  1  0.07526445  0.25558095  0.43639902  1
  Se  Se152  1  0.08786427  0.24541505  0.94375221  1
  Se  Se153  1  0.07396488  0.59230127  0.44542840  1
  Se  Se154  1  0.08446196  0.58628454  0.95600622  1
  Se  Se155  1  0.08464889  0.91905438  0.45227652  1
  Se  Se156  1  0.08136583  0.92162358  0.94019503  1
  Se  Se157  1  0.41711214  0.24400911  0.44973128  1
  Se  Se158  1  0.41811579  0.25130544  0.94655784  1
  Se  Se159  1  0.41881405  0.58014182  0.44503470  1
  Se  Se160  1  0.41970346  0.58312205  0.94479454  1
  Se  Se161  1  0.41343661  0.92085936  0.43800755  1
  Se  Se162  1  0.42330957  0.91774026  0.95235522  1
  Se  Se163  1  0.74309113  0.25416483  0.45896438  1
  Se  Se164  1  0.75066310  0.24653917  0.94682538  1
  Se  Se165  1  0.74175975  0.58735010  0.43628515  1
  Se  Se166  1  0.75634148  0.57205617  0.94692621  1
  Se  Se167  1  0.74866568  0.91889476  0.44719496  1
  Se  Se168  1  0.74710410  0.92065499  0.93343157  1
  Se  Se169  1  0.25787547  0.07578549  0.43317676  1
  Se  Se170  1  0.24801261  0.08536264  0.94665039  1
  Se  Se171  1  0.26098580  0.41394247  0.44177548  1
  Se  Se172  1  0.24937303  0.41965779  0.94389482  1
  Se  Se173  1  0.24975538  0.74430152  0.45109105  1
  Se  Se174  1  0.25479598  0.74986962  0.94102711  1
  Se  Se175  1  0.58198201  0.08165544  0.44883452  1
  Se  Se176  1  0.58518068  0.08569221  0.94716715  1
  Se  Se177  1  0.60303916  0.39833871  0.44771115  1
  Se  Se178  1  0.58042826  0.41742905  0.94675801  1
  Se  Se179  1  0.58992231  0.74358625  0.43359210  1
  Se  Se180  1  0.57819765  0.76268879  0.94254987  1
  Se  Se181  1  0.91230110  0.08376300  0.44707176  1
  Se  Se182  1  0.91395349  0.08390790  0.94388275  1
  Se  Se183  1  0.91511895  0.41657147  0.43807665  1
  Se  Se184  1  0.91523872  0.41201353  0.94844503  1
  Se  Se185  1  0.91021728  0.75472870  0.45192390  1
  Se  Se186  1  0.92636932  0.74150728  0.94237367  1
  Se  Se187  1  0.25728816  0.25459813  0.29376987  1
  Se  Se188  1  0.24319390  0.24064764  0.80127927  1
  Se  Se189  1  0.25614303  0.58365584  0.30164905  1
  Se  Se190  1  0.25550147  0.58592724  0.80574202  1
  Se  Se191  1  0.24508752  0.91088204  0.31272929  1
  Se  Se192  1  0.24938791  0.91161236  0.81382756  1
  Se  Se193  1  0.58306966  0.23954532  0.31093729  1
  Se  Se194  1  0.58620982  0.25348922  0.80661705  1
  Se  Se195  1  0.56820759  0.57503814  0.30146617  1
  Se  Se196  1  0.58542734  0.58612033  0.80752519  1
  Se  Se197  1  0.58766999  0.91777667  0.29604176  1
  Se  Se198  1  0.58326908  0.91967266  0.80000046  1
  Se  Se199  1  0.90698268  0.25131280  0.31250291  1
  Se  Se200  1  0.90705622  0.24427220  0.81355340  1
  Se  Se201  1  0.91103625  0.58186441  0.30001322  1
  Se  Se202  1  0.90851617  0.57163979  0.81091491  1
  Se  Se203  1  0.92656187  0.92650745  0.30693488  1
  Se  Se204  1  0.91976783  0.91931368  0.79666043  1
  Se  Se205  1  0.08521243  0.08799449  0.29719251  1
  Se  Se206  1  0.07469353  0.08029261  0.79787924  1
  Se  Se207  1  0.09869148  0.42523596  0.30995478  1
  Se  Se208  1  0.08468764  0.42402461  0.81545041  1
  Se  Se209  1  0.08429910  0.75341780  0.31705506  1
  Se  Se210  1  0.09254366  0.75568261  0.81461733  1
  Se  Se211  1  0.42521678  0.08619907  0.30690014  1
  Se  Se212  1  0.42346017  0.08783672  0.81640445  1
  Se  Se213  1  0.41752864  0.39819152  0.30794989  1
  Se  Se214  1  0.41496990  0.41340866  0.80592360  1
  Se  Se215  1  0.41330652  0.75073997  0.29847962  1
  Se  Se216  1  0.41818776  0.74880389  0.80329507  1
  Se  Se217  1  0.74742992  0.08518729  0.30925280  1
  Se  Se218  1  0.74450230  0.08053584  0.80395656  1
  Se  Se219  1  0.75061274  0.42516957  0.30331207  1
  Se  Se220  1  0.73951622  0.41139711  0.80467392  1
  Se  Se221  1  0.76061838  0.75872604  0.30657614  1
  Se  Se222  1  0.75448855  0.74653169  0.80127443  1
  Se  Se223  1  0.24872584  0.09073353  0.18395216  1
  Se  Se224  1  0.24721262  0.08975322  0.68808921  1
  Se  Se225  1  0.26166949  0.41352836  0.19002643  1
  Se  Se226  1  0.25438100  0.41094156  0.70275830  1
  Se  Se227  1  0.24081430  0.74927438  0.19899942  1
  Se  Se228  1  0.25587365  0.74778530  0.70164306  1
  Se  Se229  1  0.59322949  0.08131667  0.19326808  1
  Se  Se230  1  0.58218771  0.08114462  0.70480763  1
  Se  Se231  1  0.56886660  0.43075888  0.19008415  1
  Se  Se232  1  0.58033097  0.41749340  0.70112975  1
  Se  Se233  1  0.57760709  0.75477376  0.18463592  1
  Se  Se234  1  0.58557613  0.74866598  0.69709564  1
  Se  Se235  1  0.91908835  0.08469724  0.19696568  1
  Se  Se236  1  0.91372638  0.08253774  0.69817815  1
  Se  Se237  1  0.91777788  0.42190061  0.18661360  1
  Se  Se238  1  0.90565433  0.41554359  0.69351371  1
  Se  Se239  1  0.90458237  0.75938817  0.19135043  1
  Se  Se240  1  0.91355178  0.75228898  0.68885226  1
  Se  Se241  1  0.08893855  0.24721508  0.18338310  1
  Se  Se242  1  0.08843391  0.24129922  0.68895993  1
  Se  Se243  1  0.08984575  0.56830325  0.18784088  1
  Se  Se244  1  0.09187411  0.57374159  0.69699398  1
  Se  Se245  1  0.07995299  0.92115883  0.20179913  1
  Se  Se246  1  0.08641607  0.91683743  0.69949673  1
  Se  Se247  1  0.42321931  0.24925752  0.19467778  1
  Se  Se248  1  0.41460256  0.25294113  0.70312182  1
  Se  Se249  1  0.40729630  0.59915797  0.18974933  1
  Se  Se250  1  0.41673855  0.58406933  0.70263963  1
  Se  Se251  1  0.42452294  0.91382193  0.18540029  1
  Se  Se252  1  0.42347985  0.91262754  0.68696662  1
  Se  Se253  1  0.75993234  0.24652074  0.19210321  1
  Se  Se254  1  0.74657141  0.25147715  0.70044783  1
  Se  Se255  1  0.74812527  0.57960620  0.18601789  1
  Se  Se256  1  0.74632009  0.58519109  0.69975920  1
  Se  Se257  1  0.75138826  0.91282398  0.20164951  1
  Se  Se258  1  0.74577126  0.91696834  0.69690262  1
